data_image0
_chemical_formula_structural       Cd4H52C40N8O16
_chemical_formula_sum              "Cd4 H52 C40 N8 O16"
_cell_length_a       8.34827
_cell_length_b       9.33221
_cell_length_c       14.9125
_cell_angle_alpha    100.973
_cell_angle_beta     90.0002
_cell_angle_gamma    90.0003

_space_group_name_H-M_alt    "P 1"
_space_group_IT_number       1

loop_
  _space_group_symop_operation_xyz
  'x, y, z'

loop_
  _atom_site_type_symbol
  _atom_site_label
  _atom_site_symmetry_multiplicity
  _atom_site_fract_x
  _atom_site_fract_y
  _atom_site_fract_z
  _atom_site_occupancy
  Cd  Cd1       1.0  0.99347  0.24999  0.75000  1.0000
  Cd  Cd2       1.0  0.00653  0.75000  0.25000  1.0000
  Cd  Cd3       1.0  1.00000  1.00000  0.50000  1.0000
  Cd  Cd4       1.0  0.00000  0.50000  0.00000  1.0000
  H   H1        1.0  0.70525  0.79878  0.69477  1.0000
  H   H2        1.0  0.70525  0.70122  0.80523  1.0000
  H   H3        1.0  0.29475  0.20122  0.30523  1.0000
  H   H4        1.0  0.29475  0.29878  0.19477  1.0000
  H   H5        1.0  0.68322  0.85375  0.58741  1.0000
  H   H6        1.0  0.68323  0.64625  0.91259  1.0000
  H   H7        1.0  0.31677  0.14625  0.41259  1.0000
  H   H8        1.0  0.31677  0.35375  0.08741  1.0000
  H   H9        1.0  0.41937  0.83159  0.67425  1.0000
  H   H10       1.0  0.41938  0.66841  0.82575  1.0000
  H   H11       1.0  0.58063  0.16841  0.32575  1.0000
  H   H12       1.0  0.58062  0.33159  0.17425  1.0000
  H   H13       1.0  0.48501  0.97852  0.75868  1.0000
  H   H14       1.0  0.48500  0.52148  0.74132  1.0000
  H   H15       1.0  0.51499  0.02148  0.24132  1.0000
  H   H16       1.0  0.51500  0.47853  0.25868  1.0000
  H   H17       1.0  0.50810  0.13421  0.63547  1.0000
  H   H18       1.0  0.50810  0.36579  0.86453  1.0000
  H   H19       1.0  0.49190  0.86579  0.36453  1.0000
  H   H20       1.0  0.49190  0.63421  0.13547  1.0000
  H   H21       1.0  0.42918  0.98842  0.55594  1.0000
  H   H22       1.0  0.42917  0.51158  0.94406  1.0000
  H   H23       1.0  0.57083  0.01158  0.44406  1.0000
  H   H24       1.0  0.57082  0.48842  0.05594  1.0000
  H   H25       1.0  0.03146  0.83080  0.69018  1.0000
  H   H26       1.0  0.03146  0.66920  0.80982  1.0000
  H   H27       1.0  0.96853  0.16920  0.30982  1.0000
  H   H28       1.0  0.96854  0.33081  0.19018  1.0000
  H   H29       1.0  0.16557  0.55210  0.67455  1.0000
  H   H30       1.0  0.16557  0.94790  0.82545  1.0000
  H   H31       1.0  0.83443  0.44790  0.32545  1.0000
  H   H32       1.0  0.83443  0.05210  0.17455  1.0000
  H   H33       1.0  0.18177  0.68211  0.41788  1.0000
  H   H34       1.0  0.18177  0.81789  0.08212  1.0000
  H   H35       1.0  0.81823  0.31790  0.58212  1.0000
  H   H36       1.0  0.81823  0.18211  0.91788  1.0000
  H   H37       1.0  0.25584  0.42779  0.42069  1.0000
  H   H38       1.0  0.25585  0.07221  0.07931  1.0000
  H   H39       1.0  0.74415  0.57221  0.57931  1.0000
  H   H40       1.0  0.74415  0.92778  0.92070  1.0000
  H   H41       1.0  0.21260  0.35328  0.52003  1.0000
  H   H42       1.0  0.21260  0.14672  0.97997  1.0000
  H   H43       1.0  0.78740  0.64672  0.47997  1.0000
  H   H44       1.0  0.78740  0.85328  0.02003  1.0000
  H   H45       1.0  0.46505  0.45900  0.59342  1.0000
  H   H46       1.0  0.46505  0.04100  0.90658  1.0000
  H   H47       1.0  0.53495  0.54100  0.40658  1.0000
  H   H48       1.0  0.53495  0.95900  0.09342  1.0000
  H   H49       1.0  0.49752  0.33273  0.49139  1.0000
  H   H50       1.0  0.49752  0.16727  0.00861  1.0000
  H   H51       1.0  0.50248  0.66727  0.50861  1.0000
  H   H52       1.0  0.50248  0.83273  0.99139  1.0000
  C   C1        1.0  0.77966  0.01686  0.69439  1.0000
  C   C2        1.0  0.77967  0.48314  0.80561  1.0000
  C   C3        1.0  0.22034  0.98314  0.30561  1.0000
  C   C4        1.0  0.22034  0.51686  0.19439  1.0000
  C   C5        1.0  0.66899  0.88910  0.66152  1.0000
  C   C6        1.0  0.66899  0.61090  0.83848  1.0000
  C   C7        1.0  0.33101  0.11090  0.33848  1.0000
  C   C8        1.0  0.33101  0.38910  0.16152  1.0000
  C   C9        1.0  0.49400  0.93058  0.68561  1.0000
  C   C10       1.0  0.49400  0.56942  0.81439  1.0000
  C   C11       1.0  0.50599  0.06942  0.31439  1.0000
  C   C12       1.0  0.50600  0.43058  0.18561  1.0000
  C   C13       1.0  0.42947  0.03762  0.62898  1.0000
  C   C14       1.0  0.42947  0.46238  0.87102  1.0000
  C   C15       1.0  0.57054  0.96238  0.37102  1.0000
  C   C16       1.0  0.57053  0.53762  0.12898  1.0000
  C   C17       1.0  0.26295  0.09616  0.65395  1.0000
  C   C18       1.0  0.26295  0.40384  0.84605  1.0000
  C   C19       1.0  0.73705  0.90384  0.34605  1.0000
  C   C20       1.0  0.73705  0.59616  0.15395  1.0000
  C   C21       1.0  0.08105  0.75863  0.63128  1.0000
  C   C22       1.0  0.08105  0.74136  0.86872  1.0000
  C   C23       1.0  0.91895  0.24136  0.36872  1.0000
  C   C24       1.0  0.91895  0.25864  0.13128  1.0000
  C   C25       1.0  0.14663  0.62186  0.62487  1.0000
  C   C26       1.0  0.14663  0.87813  0.87513  1.0000
  C   C27       1.0  0.85337  0.37813  0.37513  1.0000
  C   C28       1.0  0.85337  0.12187  0.12487  1.0000
  C   C29       1.0  0.15762  0.68828  0.48993  1.0000
  C   C30       1.0  0.15762  0.81171  0.01007  1.0000
  C   C31       1.0  0.84238  0.31172  0.51008  1.0000
  C   C32       1.0  0.84238  0.18829  0.98992  1.0000
  C   C33       1.0  0.27320  0.44227  0.49490  1.0000
  C   C34       1.0  0.27320  0.05773  0.00510  1.0000
  C   C35       1.0  0.72680  0.55773  0.50510  1.0000
  C   C36       1.0  0.72680  0.94227  0.99490  1.0000
  C   C37       1.0  0.45132  0.44292  0.51870  1.0000
  C   C38       1.0  0.45132  0.05708  0.98130  1.0000
  C   C39       1.0  0.54868  0.55708  0.48130  1.0000
  C   C40       1.0  0.54868  0.94292  0.01870  1.0000
  N   N1        1.0  0.08875  0.79892  0.54680  1.0000
  N   N2        1.0  0.08876  0.70107  0.95320  1.0000
  N   N3        1.0  0.91125  0.20107  0.45320  1.0000
  N   N4        1.0  0.91125  0.29893  0.04680  1.0000
  N   N5        1.0  0.19351  0.57927  0.53486  1.0000
  N   N6        1.0  0.19351  0.92073  0.96514  1.0000
  N   N7        1.0  0.80649  0.42073  0.46514  1.0000
  N   N8        1.0  0.80649  0.07927  0.03486  1.0000
  O   O1        1.0  0.84355  0.08383  0.63529  1.0000
  O   O2        1.0  0.84356  0.41617  0.86471  1.0000
  O   O3        1.0  0.15645  0.91617  0.36471  1.0000
  O   O4        1.0  0.15644  0.58382  0.13529  1.0000
  O   O5        1.0  0.80490  0.05788  0.77916  1.0000
  O   O6        1.0  0.80490  0.44212  0.72084  1.0000
  O   O7        1.0  0.19510  0.94212  0.22084  1.0000
  O   O8        1.0  0.19511  0.55788  0.27916  1.0000
  O   O9        1.0  0.18723  0.15495  0.59568  1.0000
  O   O10       1.0  0.18722  0.34505  0.90432  1.0000
  O   O11       1.0  0.81277  0.84505  0.40432  1.0000
  O   O12       1.0  0.81277  0.65495  0.09567  1.0000
  O   O13       1.0  0.20725  0.08857  0.73245  1.0000
  O   O14       1.0  0.20725  0.41143  0.76755  1.0000
  O   O15       1.0  0.79276  0.91143  0.26755  1.0000
  O   O16       1.0  0.79275  0.58857  0.23245  1.0000
