data_image0
_chemical_formula_structural       Cd4H42C38N12O16
_chemical_formula_sum              "Cd4 H42 C38 N12 O16"
_cell_length_a       8.9106
_cell_length_b       10.5683
_cell_length_c       12.8256
_cell_angle_alpha    86.1897
_cell_angle_beta     73.9091
_cell_angle_gamma    83.2894

_space_group_name_H-M_alt    "P 1"
_space_group_IT_number       1

loop_
  _space_group_symop_operation_xyz
  'x, y, z'

loop_
  _atom_site_type_symbol
  _atom_site_label
  _atom_site_symmetry_multiplicity
  _atom_site_fract_x
  _atom_site_fract_y
  _atom_site_fract_z
  _atom_site_occupancy
  Cd  Cd1       1.0  0.15388  0.49723  0.08335  1.0000
  Cd  Cd2       1.0  0.84612  0.50277  0.91665  1.0000
  Cd  Cd3       1.0  0.57924  0.82784  0.30907  1.0000
  Cd  Cd4       1.0  0.42076  0.17216  0.69093  1.0000
  H   H1        1.0  0.78481  0.39924  0.18404  1.0000
  H   H2        1.0  0.21519  0.60076  0.81596  1.0000
  H   H3        1.0  0.73318  0.17009  0.30238  1.0000
  H   H4        1.0  0.26682  0.82991  0.69762  1.0000
  H   H5        1.0  0.20606  0.24118  0.25148  1.0000
  H   H6        1.0  0.79394  0.75882  0.74852  1.0000
  H   H7        1.0  0.13219  0.01722  0.31469  1.0000
  H   H8        1.0  0.86781  0.98278  0.68531  1.0000
  H   H9        1.0  0.93578  0.98412  0.33459  1.0000
  H   H10       1.0  0.06422  0.01588  0.66541  1.0000
  H   H11       1.0  0.85711  0.10045  0.51012  1.0000
  H   H12       1.0  0.14289  0.89955  0.48988  1.0000
  H   H13       1.0  0.05293  0.13474  0.48909  1.0000
  H   H14       1.0  0.94707  0.86526  0.51091  1.0000
  H   H15       1.0  0.54876  0.54620  0.20009  1.0000
  H   H16       1.0  0.45124  0.45380  0.79991  1.0000
  H   H17       1.0  0.36079  0.36176  0.31194  1.0000
  H   H18       1.0  0.63921  0.63824  0.68806  1.0000
  H   H19       1.0  0.33744  0.66281  0.51998  1.0000
  H   H20       1.0  0.66256  0.33719  0.48002  1.0000
  H   H21       1.0  0.19008  0.48101  0.60252  1.0000
  H   H22       1.0  0.80992  0.51898  0.39748  1.0000
  H   H23       1.0  0.25103  0.33337  0.53775  1.0000
  H   H24       1.0  0.74897  0.66663  0.46225  1.0000
  H   H25       1.0  0.05351  0.38052  0.43197  1.0000
  H   H26       1.0  0.94649  0.61948  0.56803  1.0000
  H   H27       1.0  0.96851  0.37936  0.57424  1.0000
  H   H28       1.0  0.03149  0.62064  0.42576  1.0000
  H   H29       1.0  0.48886  0.12225  0.20287  1.0000
  H   H30       1.0  0.51114  0.87775  0.79713  1.0000
  H   H31       1.0  0.34258  0.15589  0.03535  1.0000
  H   H32       1.0  0.65742  0.84411  0.96465  1.0000
  H   H33       1.0  0.30628  0.78005  0.17002  1.0000
  H   H34       1.0  0.69372  0.21995  0.82998  1.0000
  H   H35       1.0  0.20483  0.83289  0.00856  1.0000
  H   H36       1.0  0.79517  0.16711  0.99144  1.0000
  H   H37       1.0  0.27275  0.96680  0.92615  1.0000
  H   H38       1.0  0.72725  0.03320  0.07385  1.0000
  H   H39       1.0  0.05601  0.11018  0.04688  1.0000
  H   H40       1.0  0.94399  0.88982  0.95312  1.0000
  H   H41       1.0  0.98110  0.97443  0.12228  1.0000
  H   H42       1.0  0.01890  0.02557  0.87772  1.0000
  C   C1        1.0  0.92755  0.71790  0.21270  1.0000
  C   C2        1.0  0.07245  0.28210  0.78730  1.0000
  C   C3        1.0  0.84272  0.68524  0.12654  1.0000
  C   C4        1.0  0.15728  0.31476  0.87346  1.0000
  C   C5        1.0  0.51360  0.43630  0.03338  1.0000
  C   C6        1.0  0.48640  0.56370  0.96662  1.0000
  C   C7        1.0  0.52290  0.05821  0.45982  1.0000
  C   C8        1.0  0.47710  0.94179  0.54018  1.0000
  C   C9        1.0  0.86414  0.33513  0.21819  1.0000
  C   C10       1.0  0.13586  0.66487  0.78181  1.0000
  C   C11       1.0  0.83662  0.22184  0.27570  1.0000
  C   C12       1.0  0.16338  0.77816  0.72430  1.0000
  C   C13       1.0  0.08403  0.25740  0.25138  1.0000
  C   C14       1.0  0.91597  0.74261  0.74862  1.0000
  C   C15       1.0  0.00912  0.05254  0.35146  1.0000
  C   C16       1.0  0.99088  0.94746  0.64854  1.0000
  C   C17       1.0  0.98049  0.06440  0.47349  1.0000
  C   C18       1.0  0.01951  0.93560  0.52651  1.0000
  C   C19       1.0  0.47591  0.54310  0.28298  1.0000
  C   C20       1.0  0.52409  0.45690  0.71702  1.0000
  C   C21       1.0  0.38223  0.45193  0.33733  1.0000
  C   C22       1.0  0.61777  0.54807  0.66267  1.0000
  C   C23       1.0  0.36824  0.60833  0.44697  1.0000
  C   C24       1.0  0.63176  0.39167  0.55303  1.0000
  C   C25       1.0  0.20094  0.43172  0.52760  1.0000
  C   C26       1.0  0.79906  0.56828  0.47240  1.0000
  C   C27       1.0  0.04048  0.43319  0.50582  1.0000
  C   C28       1.0  0.95952  0.56681  0.49418  1.0000
  C   C29       1.0  0.42925  0.05628  0.17142  1.0000
  C   C30       1.0  0.57075  0.94372  0.82858  1.0000
  C   C31       1.0  0.35677  0.07446  0.08921  1.0000
  C   C32       1.0  0.64323  0.92554  0.91079  1.0000
  C   C33       1.0  0.33932  0.87668  0.15746  1.0000
  C   C34       1.0  0.66068  0.12332  0.84254  1.0000
  C   C35       1.0  0.20871  0.93634  0.00838  1.0000
  C   C36       1.0  0.79130  0.06366  0.99162  1.0000
  C   C37       1.0  0.04533  0.00832  0.04093  1.0000
  C   C38       1.0  0.95467  0.99168  0.95907  1.0000
  N   N1        1.0  0.01903  0.35630  0.20363  1.0000
  N   N2        1.0  0.98097  0.64370  0.79637  1.0000
  N   N3        1.0  0.97757  0.17362  0.29551  1.0000
  N   N4        1.0  0.02243  0.82638  0.70449  1.0000
  N   N5        1.0  0.46671  0.63999  0.35222  1.0000
  N   N6        1.0  0.53329  0.36001  0.64778  1.0000
  N   N7        1.0  0.31447  0.49492  0.44088  1.0000
  N   N8        1.0  0.68553  0.50508  0.55912  1.0000
  N   N9        1.0  0.41765  0.93253  0.21336  1.0000
  N   N10       1.0  0.58235  0.06747  0.78664  1.0000
  N   N11       1.0  0.30017  0.96008  0.08194  1.0000
  N   N12       1.0  0.69983  0.03992  0.91806  1.0000
  O   O1        1.0  0.91832  0.60399  0.05618  1.0000
  O   O2        1.0  0.08168  0.39601  0.94382  1.0000
  O   O3        1.0  0.06740  0.66946  0.20248  1.0000
  O   O4        1.0  0.93260  0.33054  0.79753  1.0000
  O   O5        1.0  0.70836  0.74014  0.13128  1.0000
  O   O6        1.0  0.29164  0.25986  0.86872  1.0000
  O   O7        1.0  0.84916  0.79250  0.28675  1.0000
  O   O8        1.0  0.15084  0.20750  0.71325  1.0000
  O   O9        1.0  0.39410  0.38643  0.09080  1.0000
  O   O10       1.0  0.60590  0.61357  0.90920  1.0000
  O   O11       1.0  0.65461  0.39140  0.02676  1.0000
  O   O12       1.0  0.34539  0.60860  0.97324  1.0000
  O   O13       1.0  0.58395  0.03527  0.36030  1.0000
  O   O14       1.0  0.41605  0.96473  0.63969  1.0000
  O   O15       1.0  0.49729  0.16805  0.49870  1.0000
  O   O16       1.0  0.50271  0.83195  0.50130  1.0000
