data_image0
_chemical_formula_structural       Cd2H70C48N12O8
_chemical_formula_sum              "Cd2 H70 C48 N12 O8"
_cell_length_a       8.06618
_cell_length_b       10.5753
_cell_length_c       17.6713
_cell_angle_alpha    105.136
_cell_angle_beta     92.8715
_cell_angle_gamma    91.5313

_space_group_name_H-M_alt    "P 1"
_space_group_IT_number       1

loop_
  _space_group_symop_operation_xyz
  'x, y, z'

loop_
  _atom_site_type_symbol
  _atom_site_label
  _atom_site_symmetry_multiplicity
  _atom_site_fract_x
  _atom_site_fract_y
  _atom_site_fract_z
  _atom_site_occupancy
  Cd  Cd1       1.0  0.47465  0.00224  0.23735  1.0000
  Cd  Cd2       1.0  0.52535  0.99776  0.76265  1.0000
  H   H1        1.0  0.58161  0.46878  0.29492  1.0000
  H   H2        1.0  0.41835  0.53122  0.70508  1.0000
  H   H3        1.0  0.79075  0.43306  0.27491  1.0000
  H   H4        1.0  0.20922  0.56696  0.72510  1.0000
  H   H5        1.0  0.50226  0.41929  0.15191  1.0000
  H   H6        1.0  0.49773  0.58071  0.84809  1.0000
  H   H7        1.0  0.65498  0.54838  0.18288  1.0000
  H   H8        1.0  0.34500  0.45162  0.81712  1.0000
  H   H9        1.0  0.71033  0.26537  0.09318  1.0000
  H   H10       1.0  0.28967  0.73463  0.90683  1.0000
  H   H11       1.0  0.87522  0.37840  0.13521  1.0000
  H   H12       1.0  0.12477  0.62160  0.86480  1.0000
  H   H13       1.0  0.60872  0.42975  0.01795  1.0000
  H   H14       1.0  0.39129  0.57025  0.98205  1.0000
  H   H15       1.0  0.79321  0.52450  0.05378  1.0000
  H   H16       1.0  0.20680  0.47549  0.94623  1.0000
  H   H17       1.0  0.95574  0.32051  0.99103  1.0000
  H   H18       1.0  0.04427  0.67948  0.00897  1.0000
  H   H19       1.0  0.76535  0.24160  0.94973  1.0000
  H   H20       1.0  0.23466  0.75839  0.05028  1.0000
  H   H21       1.0  0.92577  0.48722  0.91815  1.0000
  H   H22       1.0  0.07424  0.51277  0.08185  1.0000
  H   H23       1.0  0.72280  0.42695  0.88169  1.0000
  H   H24       1.0  0.27721  0.57304  0.11831  1.0000
  H   H25       1.0  0.94733  0.35441  0.78540  1.0000
  H   H26       1.0  0.05268  0.64559  0.21461  1.0000
  H   H27       1.0  0.02971  0.25959  0.84746  1.0000
  H   H28       1.0  0.97030  0.74041  0.15254  1.0000
  H   H29       1.0  0.57899  0.69783  0.10869  1.0000
  H   H30       1.0  0.42102  0.30217  0.89131  1.0000
  H   H31       1.0  0.73607  0.68405  0.96972  1.0000
  H   H32       1.0  0.26394  0.31594  0.03028  1.0000
  H   H33       1.0  0.62449  0.07705  0.07584  1.0000
  H   H34       1.0  0.37551  0.92295  0.92416  1.0000
  H   H35       1.0  0.73361  0.02875  0.93999  1.0000
  H   H36       1.0  0.26639  0.97125  0.06001  1.0000
  H   H37       1.0  0.75322  0.86479  0.88685  1.0000
  H   H38       1.0  0.24677  0.13521  0.11315  1.0000
  H   H39       1.0  0.02785  0.85705  0.95563  1.0000
  H   H40       1.0  0.97214  0.14294  0.04437  1.0000
  H   H41       1.0  0.02194  0.99002  0.91221  1.0000
  H   H42       1.0  0.97806  0.00998  0.08779  1.0000
  H   H43       1.0  0.54018  0.00546  0.43087  1.0000
  H   H44       1.0  0.45983  0.99455  0.56913  1.0000
  H   H45       1.0  0.45847  0.20870  0.55857  1.0000
  H   H46       1.0  0.54155  0.79130  0.44143  1.0000
  H   H47       1.0  0.25786  0.27328  0.34620  1.0000
  H   H48       1.0  0.74213  0.72672  0.65380  1.0000
  H   H49       1.0  0.22583  0.39898  0.55996  1.0000
  H   H50       1.0  0.77417  0.60102  0.44003  1.0000
  H   H51       1.0  0.20833  0.44345  0.46963  1.0000
  H   H52       1.0  0.79168  0.55655  0.53037  1.0000
  H   H53       1.0  0.40694  0.59412  0.56507  1.0000
  H   H54       1.0  0.59307  0.40587  0.43493  1.0000
  H   H55       1.0  0.52368  0.46175  0.57798  1.0000
  H   H56       1.0  0.47633  0.53825  0.42203  1.0000
  H   H57       1.0  0.58388  0.71271  0.27985  1.0000
  H   H58       1.0  0.41612  0.28730  0.72014  1.0000
  H   H59       1.0  0.89369  0.67822  0.35073  1.0000
  H   H60       1.0  0.10630  0.32179  0.64926  1.0000
  H   H61       1.0  0.87045  0.06481  0.32462  1.0000
  H   H62       1.0  0.12956  0.93520  0.67538  1.0000
  H   H63       1.0  0.17281  0.83813  0.37842  1.0000
  H   H64       1.0  0.82719  0.16187  0.62157  1.0000
  H   H65       1.0  0.13852  0.00349  0.38356  1.0000
  H   H66       1.0  0.86148  0.99651  0.61644  1.0000
  H   H67       1.0  0.00699  0.85398  0.49804  1.0000
  H   H68       1.0  0.99300  0.14603  0.50195  1.0000
  H   H69       1.0  0.17996  0.96557  0.51708  1.0000
  H   H70       1.0  0.82003  0.03443  0.48292  1.0000
  C   C1        1.0  0.62307  0.26547  0.25150  1.0000
  C   C2        1.0  0.37693  0.73453  0.74850  1.0000
  C   C3        1.0  0.66131  0.40852  0.25174  1.0000
  C   C4        1.0  0.33867  0.59149  0.74826  1.0000
  C   C5        1.0  0.63308  0.44198  0.17321  1.0000
  C   C6        1.0  0.36690  0.55803  0.82679  1.0000
  C   C7        1.0  0.74574  0.37078  0.11032  1.0000
  C   C8        1.0  0.25425  0.62922  0.88968  1.0000
  C   C9        1.0  0.73950  0.42334  0.03758  1.0000
  C   C10       1.0  0.26050  0.57666  0.96242  1.0000
  C   C11       1.0  0.82981  0.33870  0.96988  1.0000
  C   C12       1.0  0.17020  0.66130  0.03012  1.0000
  C   C13       1.0  0.84526  0.39745  0.90015  1.0000
  C   C14       1.0  0.15475  0.60255  0.09985  1.0000
  C   C15       1.0  0.91623  0.30169  0.82908  1.0000
  C   C16       1.0  0.08377  0.69830  0.17092  1.0000
  C   C17       1.0  0.78578  0.19349  0.79161  1.0000
  C   C18       1.0  0.21423  0.80651  0.20840  1.0000
  C   C19       1.0  0.61218  0.77494  0.08142  1.0000
  C   C20       1.0  0.38784  0.22506  0.91858  1.0000
  C   C21       1.0  0.69030  0.76645  0.01281  1.0000
  C   C22       1.0  0.30971  0.23355  0.98719  1.0000
  C   C23       1.0  0.63302  0.97209  0.06687  1.0000
  C   C24       1.0  0.36698  0.02790  0.93313  1.0000
  C   C25       1.0  0.78616  0.93573  0.94340  1.0000
  C   C26       1.0  0.21384  0.06427  0.05660  1.0000
  C   C27       1.0  0.97417  0.95317  0.96003  1.0000
  C   C28       1.0  0.02583  0.04682  0.03997  1.0000
  C   C29       1.0  0.46827  0.09096  0.43249  1.0000
  C   C30       1.0  0.53174  0.90904  0.56750  1.0000
  C   C31       1.0  0.43024  0.19042  0.49589  1.0000
  C   C32       1.0  0.56976  0.80958  0.50410  1.0000
  C   C33       1.0  0.32240  0.22542  0.38577  1.0000
  C   C34       1.0  0.67760  0.77458  0.61423  1.0000
  C   C35       1.0  0.29303  0.40606  0.50864  1.0000
  C   C36       1.0  0.70697  0.59394  0.49136  1.0000
  C   C37       1.0  0.44789  0.49654  0.53436  1.0000
  C   C38       1.0  0.55211  0.50346  0.46565  1.0000
  C   C39       1.0  0.69072  0.77949  0.30032  1.0000
  C   C40       1.0  0.30927  0.22052  0.69968  1.0000
  C   C41       1.0  0.84075  0.76250  0.33614  1.0000
  C   C42       1.0  0.15925  0.23750  0.66385  1.0000
  C   C43       1.0  0.83415  0.96420  0.32233  1.0000
  C   C44       1.0  0.16585  0.03581  0.67767  1.0000
  C   C45       1.0  0.08539  0.91641  0.39753  1.0000
  C   C46       1.0  0.91461  0.08359  0.60247  1.0000
  C   C47       1.0  0.05755  0.94366  0.48523  1.0000
  C   C48       1.0  0.94245  0.05634  0.51477  1.0000
  N   N1        1.0  0.57668  0.90385  0.11437  1.0000
  N   N2        1.0  0.42333  0.09614  0.88563  1.0000
  N   N3        1.0  0.70217  0.89249  0.00433  1.0000
  N   N4        1.0  0.29784  0.10751  0.99567  1.0000
  N   N5        1.0  0.40006  0.11381  0.36458  1.0000
  N   N6        1.0  0.59993  0.88619  0.63541  1.0000
  N   N7        1.0  0.33605  0.27490  0.46532  1.0000
  N   N8        1.0  0.66394  0.72510  0.53468  1.0000
  N   N9        1.0  0.68870  0.90580  0.29236  1.0000
  N   N10       1.0  0.31130  0.09421  0.70764  1.0000
  N   N11       1.0  0.93014  0.88040  0.34982  1.0000
  N   N12       1.0  0.06986  0.11961  0.65018  1.0000
  O   O1        1.0  0.71509  0.21481  0.29430  1.0000
  O   O2        1.0  0.28492  0.78519  0.70569  1.0000
  O   O3        1.0  0.49479  0.20661  0.20907  1.0000
  O   O4        1.0  0.50521  0.79339  0.79094  1.0000
  O   O5        1.0  0.79380  0.08352  0.80945  1.0000
  O   O6        1.0  0.20620  0.91648  0.19056  1.0000
  O   O7        1.0  0.66927  0.21967  0.74783  1.0000
  O   O8        1.0  0.33074  0.78033  0.25217  1.0000
