data_image0
_chemical_formula_structural       Cd4H36C32N8O16
_chemical_formula_sum              "Cd4 H36 C32 N8 O16"
_cell_length_a       7.49031
_cell_length_b       9.10819
_cell_length_c       14.6588
_cell_angle_alpha    92.0423
_cell_angle_beta     104.802
_cell_angle_gamma    90.0291

_space_group_name_H-M_alt    "P 1"
_space_group_IT_number       1

loop_
  _space_group_symop_operation_xyz
  'x, y, z'

loop_
  _atom_site_type_symbol
  _atom_site_label
  _atom_site_symmetry_multiplicity
  _atom_site_fract_x
  _atom_site_fract_y
  _atom_site_fract_z
  _atom_site_occupancy
  Cd  Cd1       1.0  0.51262  0.48095  0.63159  1.0000
  Cd  Cd2       1.0  0.88051  0.01902  0.36845  1.0000
  Cd  Cd3       1.0  0.48738  0.51905  0.36841  1.0000
  Cd  Cd4       1.0  0.11949  0.98098  0.63155  1.0000
  H   H1        1.0  0.46335  0.86255  0.40855  1.0000
  H   H2        1.0  0.05500  0.63731  0.59135  1.0000
  H   H3        1.0  0.53665  0.13745  0.59145  1.0000
  H   H4        1.0  0.94499  0.36268  0.40866  1.0000
  H   H5        1.0  0.27843  0.96167  0.43817  1.0000
  H   H6        1.0  0.84035  0.53826  0.56195  1.0000
  H   H7        1.0  0.72157  0.03833  0.56183  1.0000
  H   H8        1.0  0.15965  0.46174  0.43805  1.0000
  H   H9        1.0  0.59176  0.69481  0.82274  1.0000
  H   H10       1.0  0.76823  0.80510  0.17730  1.0000
  H   H11       1.0  0.40823  0.30519  0.17726  1.0000
  H   H12       1.0  0.23177  0.19490  0.82270  1.0000
  H   H13       1.0  0.34070  0.74938  0.93110  1.0000
  H   H14       1.0  0.40861  0.75039  0.06910  1.0000
  H   H15       1.0  0.65929  0.25063  0.06889  1.0000
  H   H16       1.0  0.59139  0.24961  0.93089  1.0000
  H   H17       1.0  0.13555  0.40703  0.72786  1.0000
  H   H18       1.0  0.40735  0.09309  0.27212  1.0000
  H   H19       1.0  0.86446  0.59296  0.27215  1.0000
  H   H20       1.0  0.59265  0.90691  0.72788  1.0000
  H   H21       1.0  0.93256  0.48431  0.83018  1.0000
  H   H22       1.0  0.10173  0.01552  0.16991  1.0000
  H   H23       1.0  0.06744  0.51570  0.16982  1.0000
  H   H24       1.0  0.89827  0.98448  0.83009  1.0000
  H   H25       1.0  0.96627  0.66716  0.87664  1.0000
  H   H26       1.0  0.08882  0.83270  0.12335  1.0000
  H   H27       1.0  0.03373  0.33284  0.12336  1.0000
  H   H28       1.0  0.91118  0.16730  0.87665  1.0000
  H   H29       1.0  0.19218  0.57253  0.02494  1.0000
  H   H30       1.0  0.16746  0.92761  0.97533  1.0000
  H   H31       1.0  0.80781  0.42747  0.97506  1.0000
  H   H32       1.0  0.83253  0.07240  0.02467  1.0000
  H   H33       1.0  0.14348  0.39217  0.97816  1.0000
  H   H34       1.0  0.16541  0.10789  0.02215  1.0000
  H   H35       1.0  0.85652  0.60783  0.02183  1.0000
  H   H36       1.0  0.83459  0.89211  0.97785  1.0000
  C   C1        1.0  0.35196  0.75989  0.51000  1.0000
  C   C2        1.0  0.84212  0.74001  0.49002  1.0000
  C   C3        1.0  0.64804  0.24011  0.49000  1.0000
  C   C4        1.0  0.15788  0.25999  0.50998  1.0000
  C   C5        1.0  0.32686  0.85253  0.42310  1.0000
  C   C6        1.0  0.90401  0.64740  0.57694  1.0000
  C   C7        1.0  0.67314  0.14747  0.57690  1.0000
  C   C8        1.0  0.09599  0.35260  0.42306  1.0000
  C   C9        1.0  0.19473  0.77978  0.33564  1.0000
  C   C10       1.0  0.85974  0.72019  0.66442  1.0000
  C   C11       1.0  0.80527  0.22022  0.66436  1.0000
  C   C12       1.0  0.14026  0.27982  0.33559  1.0000
  C   C13       1.0  0.46130  0.64216  0.82113  1.0000
  C   C14       1.0  0.63947  0.85777  0.17893  1.0000
  C   C15       1.0  0.53870  0.35785  0.17886  1.0000
  C   C16       1.0  0.36053  0.14223  0.82107  1.0000
  C   C17       1.0  0.33939  0.66816  0.87535  1.0000
  C   C18       1.0  0.46325  0.83160  0.12483  1.0000
  C   C19       1.0  0.66061  0.33184  0.12465  1.0000
  C   C20       1.0  0.53675  0.16840  0.87517  1.0000
  C   C21       1.0  0.22763  0.49229  0.76773  1.0000
  C   C22       1.0  0.45938  0.00768  0.23230  1.0000
  C   C23       1.0  0.77238  0.50770  0.23227  1.0000
  C   C24       1.0  0.54062  0.99231  0.76769  1.0000
  C   C25       1.0  0.03130  0.55862  0.87878  1.0000
  C   C26       1.0  0.15190  0.94124  0.12132  1.0000
  C   C27       1.0  0.96870  0.44137  0.12122  1.0000
  C   C28       1.0  0.84809  0.05876  0.87868  1.0000
  C   C29       1.0  0.08316  0.50251  0.97904  1.0000
  C   C30       1.0  0.10405  0.99753  0.02112  1.0000
  C   C31       1.0  0.91684  0.49749  0.02096  1.0000
  C   C32       1.0  0.89595  0.00247  0.97888  1.0000
  N   N1        1.0  0.38986  0.53282  0.75432  1.0000
  N   N2        1.0  0.63502  0.96720  0.24569  1.0000
  N   N3        1.0  0.61014  0.46718  0.24568  1.0000
  N   N4        1.0  0.36498  0.03280  0.75431  1.0000
  N   N5        1.0  0.19267  0.57214  0.84111  1.0000
  N   N6        1.0  0.35092  0.92766  0.15906  1.0000
  N   N7        1.0  0.80733  0.42786  0.15890  1.0000
  N   N8        1.0  0.64908  0.07234  0.84094  1.0000
  O   O1        1.0  0.40370  0.62610  0.50168  1.0000
  O   O2        1.0  0.90223  0.87383  0.49833  1.0000
  O   O3        1.0  0.59630  0.37390  0.49832  1.0000
  O   O4        1.0  0.09777  0.12617  0.50168  1.0000
  O   O5        1.0  0.32606  0.81297  0.58577  1.0000
  O   O6        1.0  0.74034  0.68684  0.41429  1.0000
  O   O7        1.0  0.67394  0.18702  0.41423  1.0000
  O   O8        1.0  0.25966  0.31315  0.58572  1.0000
  O   O9        1.0  0.03322  0.83067  0.30672  1.0000
  O   O10       1.0  0.72682  0.66964  0.69330  1.0000
  O   O11       1.0  0.96678  0.16933  0.69328  1.0000
  O   O12       1.0  0.27318  0.33036  0.30671  1.0000
  O   O13       1.0  0.25130  0.67035  0.29455  1.0000
  O   O14       1.0  0.95800  0.82931  0.70562  1.0000
  O   O15       1.0  0.74870  0.32964  0.70546  1.0000
  O   O16       1.0  0.04199  0.17069  0.29438  1.0000
