data_image0
_chemical_formula_structural       Ag4H28C26S4N8O12
_chemical_formula_sum              "Ag4 H28 C26 S4 N8 O12"
_cell_length_a       5.09106
_cell_length_b       12.6749
_cell_length_c       14.0962
_cell_angle_alpha    82.9373
_cell_angle_beta     79.6324
_cell_angle_gamma    78.4212

_space_group_name_H-M_alt    "P 1"
_space_group_IT_number       1

loop_
  _space_group_symop_operation_xyz
  'x, y, z'

loop_
  _atom_site_type_symbol
  _atom_site_label
  _atom_site_symmetry_multiplicity
  _atom_site_fract_x
  _atom_site_fract_y
  _atom_site_fract_z
  _atom_site_occupancy
  Ag  Ag1       1.0  0.14685  0.88622  0.00027  1.0000
  Ag  Ag2       1.0  0.96642  0.38634  0.50012  1.0000
  Ag  Ag3       1.0  0.85316  0.11378  0.99973  1.0000
  Ag  Ag4       1.0  0.03358  0.61366  0.49988  1.0000
  H   H1        1.0  0.58324  0.80556  0.83014  1.0000
  H   H2        1.0  0.78138  0.30556  0.33011  1.0000
  H   H3        1.0  0.41677  0.19444  0.16985  1.0000
  H   H4        1.0  0.21862  0.69444  0.66990  1.0000
  H   H5        1.0  0.69358  0.82452  0.64774  1.0000
  H   H6        1.0  0.83428  0.32438  0.14769  1.0000
  H   H7        1.0  0.30642  0.17548  0.35226  1.0000
  H   H8        1.0  0.16572  0.67563  0.85231  1.0000
  H   H9        1.0  0.36219  0.95227  0.55550  1.0000
  H   H10       1.0  0.12972  0.45223  0.05550  1.0000
  H   H11       1.0  0.63780  0.04773  0.44450  1.0000
  H   H12       1.0  0.87028  0.54777  0.94450  1.0000
  H   H13       1.0  0.94622  0.05482  0.64455  1.0000
  H   H14       1.0  0.35363  0.55505  0.14456  1.0000
  H   H15       1.0  0.05378  0.94518  0.35545  1.0000
  H   H16       1.0  0.64637  0.44495  0.85544  1.0000
  H   H17       1.0  0.55136  0.11750  0.71808  1.0000
  H   H18       1.0  0.61254  0.61771  0.21813  1.0000
  H   H19       1.0  0.44864  0.88250  0.28192  1.0000
  H   H20       1.0  0.38746  0.38229  0.78187  1.0000
  H   H21       1.0  0.38795  0.17631  0.82488  1.0000
  H   H22       1.0  0.61082  0.67653  0.32493  1.0000
  H   H23       1.0  0.61205  0.82369  0.17512  1.0000
  H   H24       1.0  0.38918  0.32347  0.67507  1.0000
  H   H25       1.0  0.89695  0.23111  0.68959  1.0000
  H   H26       1.0  0.18213  0.73140  0.18955  1.0000
  H   H27       1.0  0.10305  0.76889  0.31041  1.0000
  H   H28       1.0  0.81787  0.26860  0.81045  1.0000
  C   C1        1.0  0.44691  0.85849  0.78578  1.0000
  C   C2        1.0  0.90873  0.35860  0.28575  1.0000
  C   C3        1.0  0.55308  0.14151  0.21422  1.0000
  C   C4        1.0  0.09127  0.64140  0.71425  1.0000
  C   C5        1.0  0.50667  0.86959  0.68519  1.0000
  C   C6        1.0  0.93844  0.36958  0.18516  1.0000
  C   C7        1.0  0.49333  0.13041  0.31481  1.0000
  C   C8        1.0  0.06156  0.63043  0.81484  1.0000
  C   C9        1.0  0.32309  0.94087  0.63415  1.0000
  C   C10       1.0  0.10147  0.44093  0.13416  1.0000
  C   C11       1.0  0.67690  0.05913  0.36585  1.0000
  C   C12       1.0  0.89853  0.55907  0.86585  1.0000
  C   C13       1.0  0.08774  0.99830  0.68425  1.0000
  C   C14       1.0  0.22911  0.49851  0.18427  1.0000
  C   C15       1.0  0.91226  0.00170  0.31576  1.0000
  C   C16       1.0  0.77089  0.50149  0.81574  1.0000
  C   C17       1.0  0.04492  0.98280  0.78535  1.0000
  C   C18       1.0  0.18647  0.48306  0.28536  1.0000
  C   C19       1.0  0.95508  0.01720  0.21465  1.0000
  C   C20       1.0  0.81353  0.51694  0.71464  1.0000
  C   C21       1.0  0.58831  0.15274  0.78089  1.0000
  C   C22       1.0  0.47778  0.65301  0.28092  1.0000
  C   C23       1.0  0.41169  0.84725  0.21911  1.0000
  C   C24       1.0  0.52222  0.34699  0.71908  1.0000
  C   C25       1.0  0.73082  0.24986  0.75000  1.0000
  C   C26       1.0  0.26918  0.75014  0.25000  1.0000
  S   S1        1.0  0.74914  0.04449  0.85928  1.0000
  S   S2        1.0  0.34689  0.54476  0.35931  1.0000
  S   S3        1.0  0.25086  0.95551  0.14072  1.0000
  S   S4        1.0  0.65311  0.45524  0.64069  1.0000
  N   N1        1.0  0.22057  0.91398  0.83522  1.0000
  N   N2        1.0  0.03000  0.41420  0.33521  1.0000
  N   N3        1.0  0.77943  0.08601  0.16478  1.0000
  N   N4        1.0  0.97000  0.58580  0.66479  1.0000
  N   N5        1.0  0.69209  0.73211  0.02438  1.0000
  N   N6        1.0  0.55204  0.23201  0.52430  1.0000
  N   N7        1.0  0.30791  0.26789  0.97562  1.0000
  N   N8        1.0  0.44796  0.76799  0.47570  1.0000
  O   O1        1.0  0.47364  0.70103  0.01826  1.0000
  O   O2        1.0  0.80775  0.20108  0.51793  1.0000
  O   O3        1.0  0.52635  0.29897  0.98174  1.0000
  O   O4        1.0  0.19225  0.79892  0.48207  1.0000
  O   O5        1.0  0.72288  0.82753  0.98728  1.0000
  O   O6        1.0  0.46222  0.32737  0.48726  1.0000
  O   O7        1.0  0.27713  0.17247  0.01272  1.0000
  O   O8        1.0  0.53778  0.67263  0.51274  1.0000
  O   O9        1.0  0.87192  0.67236  0.06669  1.0000
  O   O10       1.0  0.39028  0.17212  0.56680  1.0000
  O   O11       1.0  0.12808  0.32764  0.93331  1.0000
  O   O12       1.0  0.60973  0.82788  0.43320  1.0000
