data_image0
_chemical_formula_structural       Zn4H16C24O12
_chemical_formula_sum              "Zn4 H16 C24 O12"
_cell_length_a       6.17381
_cell_length_b       7.87338
_cell_length_c       11.9602
_cell_angle_alpha    90.0002
_cell_angle_beta     91.056
_cell_angle_gamma    90.0005

_space_group_name_H-M_alt    "P 1"
_space_group_IT_number       1

loop_
  _space_group_symop_operation_xyz
  'x, y, z'

loop_
  _atom_site_type_symbol
  _atom_site_label
  _atom_site_symmetry_multiplicity
  _atom_site_fract_x
  _atom_site_fract_y
  _atom_site_fract_z
  _atom_site_occupancy
  Zn  Zn1       1.0  0.75848  0.66525  0.52026  1.0000
  Zn  Zn2       1.0  0.25848  0.83474  0.52026  1.0000
  Zn  Zn3       1.0  0.24153  0.33474  0.47974  1.0000
  Zn  Zn4       1.0  0.74153  0.16525  0.47974  1.0000
  H   H1        1.0  0.28557  0.36485  0.84522  1.0000
  H   H2        1.0  0.78558  0.13516  0.84522  1.0000
  H   H3        1.0  0.71443  0.63513  0.15478  1.0000
  H   H4        1.0  0.21441  0.86487  0.15478  1.0000
  H   H5        1.0  0.67637  0.59990  0.75487  1.0000
  H   H6        1.0  0.17639  0.90008  0.75487  1.0000
  H   H7        1.0  0.32363  0.40009  0.24513  1.0000
  H   H8        1.0  0.82362  0.09992  0.24513  1.0000
  H   H9        1.0  0.60349  0.65796  0.95392  1.0000
  H   H10       1.0  0.10347  0.84204  0.95391  1.0000
  H   H11       1.0  0.39652  0.34203  0.04608  1.0000
  H   H12       1.0  0.89651  0.15800  0.04609  1.0000
  H   H13       1.0  0.91371  0.91641  0.61634  1.0000
  H   H14       1.0  0.41370  0.58359  0.61634  1.0000
  H   H15       1.0  0.08631  0.08359  0.38366  1.0000
  H   H16       1.0  0.58631  0.41640  0.38366  1.0000
  C   C1        1.0  0.13673  0.42829  0.86968  1.0000
  C   C2        1.0  0.63670  0.07170  0.86968  1.0000
  C   C3        1.0  0.86328  0.57169  0.13032  1.0000
  C   C4        1.0  0.36327  0.92832  0.13032  1.0000
  C   C5        1.0  0.98562  0.47674  0.78858  1.0000
  C   C6        1.0  0.48564  0.02326  0.78858  1.0000
  C   C7        1.0  0.01438  0.52325  0.21142  1.0000
  C   C8        1.0  0.51436  0.97676  0.21142  1.0000
  C   C9        1.0  0.79161  0.55999  0.81971  1.0000
  C   C10       1.0  0.29161  0.94000  0.81971  1.0000
  C   C11       1.0  0.20840  0.44000  0.18030  1.0000
  C   C12       1.0  0.70838  0.06002  0.18028  1.0000
  C   C13       1.0  0.75154  0.59247  0.93042  1.0000
  C   C14       1.0  0.25154  0.90753  0.93042  1.0000
  C   C15       1.0  0.24846  0.40751  0.06957  1.0000
  C   C16       1.0  0.74843  0.09250  0.06958  1.0000
  C   C17       1.0  0.09840  0.45816  0.98435  1.0000
  C   C18       1.0  0.59839  0.04186  0.98435  1.0000
  C   C19       1.0  0.90161  0.54182  0.01565  1.0000
  C   C20       1.0  0.40158  0.95818  0.01565  1.0000
  C   C21       1.0  0.02344  0.43945  0.66840  1.0000
  C   C22       1.0  0.52343  0.06054  0.66839  1.0000
  C   C23       1.0  0.97657  0.56053  0.33160  1.0000
  C   C24       1.0  0.47656  0.93946  0.33160  1.0000
  O   O1        1.0  0.86453  0.44019  0.59907  1.0000
  O   O2        1.0  0.36455  0.05981  0.59908  1.0000
  O   O3        1.0  0.13546  0.55981  0.40093  1.0000
  O   O4        1.0  0.63546  0.94018  0.40092  1.0000
  O   O5        1.0  0.21878  0.40500  0.63967  1.0000
  O   O6        1.0  0.71880  0.09500  0.63967  1.0000
  O   O7        1.0  0.78122  0.59500  0.36033  1.0000
  O   O8        1.0  0.28121  0.90499  0.36033  1.0000
  O   O9        1.0  0.97702  0.81299  0.58523  1.0000
  O   O10       1.0  0.47702  0.68701  0.58523  1.0000
  O   O11       1.0  0.02299  0.18701  0.41477  1.0000
  O   O12       1.0  0.52299  0.31299  0.41477  1.0000
