data_image0
_chemical_formula_structural       Cd2H36C48S4N24
_chemical_formula_sum              "Cd2 H36 C48 S4 N24"
_cell_length_a       9.11777
_cell_length_b       11.2304
_cell_length_c       13.071
_cell_angle_alpha    94.0493
_cell_angle_beta     90.0001
_cell_angle_gamma    90

_space_group_name_H-M_alt    "P 1"
_space_group_IT_number       1

loop_
  _space_group_symop_operation_xyz
  'x, y, z'

loop_
  _atom_site_type_symbol
  _atom_site_label
  _atom_site_symmetry_multiplicity
  _atom_site_fract_x
  _atom_site_fract_y
  _atom_site_fract_z
  _atom_site_occupancy
  Cd  Cd1       1.0  0.00000  0.00000  0.00000  1.0000
  Cd  Cd2       1.0  0.50000  0.50000  0.50000  1.0000
  H   H1        1.0  0.82360  0.20082  0.87477  1.0000
  H   H2        1.0  0.32360  0.29918  0.62523  1.0000
  H   H3        1.0  0.17640  0.79918  0.12523  1.0000
  H   H4        1.0  0.67640  0.70082  0.37477  1.0000
  H   H5        1.0  0.74825  0.43317  0.94419  1.0000
  H   H6        1.0  0.24824  0.06683  0.55581  1.0000
  H   H7        1.0  0.25176  0.56683  0.05581  1.0000
  H   H8        1.0  0.75176  0.93317  0.44419  1.0000
  H   H9        1.0  0.02249  0.27810  0.16255  1.0000
  H   H10       1.0  0.52249  0.22190  0.33745  1.0000
  H   H11       1.0  0.97751  0.72190  0.83745  1.0000
  H   H12       1.0  0.47751  0.77810  0.66255  1.0000
  H   H13       1.0  0.74488  0.59611  0.03833  1.0000
  H   H14       1.0  0.24489  0.90389  0.46167  1.0000
  H   H15       1.0  0.25511  0.40389  0.96167  1.0000
  H   H16       1.0  0.75511  0.09611  0.53833  1.0000
  H   H17       1.0  0.92776  0.78248  0.30933  1.0000
  H   H18       1.0  0.42777  0.71752  0.19067  1.0000
  H   H19       1.0  0.07223  0.21752  0.69067  1.0000
  H   H20       1.0  0.57224  0.28248  0.80933  1.0000
  H   H21       1.0  0.77470  0.78279  0.15076  1.0000
  H   H22       1.0  0.27470  0.71721  0.34924  1.0000
  H   H23       1.0  0.22530  0.21721  0.84924  1.0000
  H   H24       1.0  0.72530  0.28279  0.65076  1.0000
  H   H25       1.0  0.95564  0.71376  0.47972  1.0000
  H   H26       1.0  0.45564  0.78624  0.02028  1.0000
  H   H27       1.0  0.04436  0.28624  0.52028  1.0000
  H   H28       1.0  0.54436  0.21376  0.97972  1.0000
  H   H29       1.0  0.19116  0.65424  0.60056  1.0000
  H   H30       1.0  0.69116  0.84576  0.89944  1.0000
  H   H31       1.0  0.80884  0.34576  0.39945  1.0000
  H   H32       1.0  0.30884  0.15424  0.10056  1.0000
  H   H33       1.0  0.22323  0.45790  0.31355  1.0000
  H   H34       1.0  0.72323  0.04210  0.18645  1.0000
  H   H35       1.0  0.77677  0.54210  0.68645  1.0000
  H   H36       1.0  0.27677  0.95790  0.81355  1.0000
  C   C1        1.0  0.85280  0.25260  0.94492  1.0000
  C   C2        1.0  0.35279  0.24739  0.55508  1.0000
  C   C3        1.0  0.14720  0.74740  0.05508  1.0000
  C   C4        1.0  0.64720  0.75260  0.44492  1.0000
  C   C5        1.0  0.81669  0.36729  0.97808  1.0000
  C   C6        1.0  0.31669  0.13271  0.52192  1.0000
  C   C7        1.0  0.18331  0.63271  0.02192  1.0000
  C   C8        1.0  0.68331  0.86729  0.47808  1.0000
  C   C9        1.0  0.96017  0.28636  0.09289  1.0000
  C   C10       1.0  0.46017  0.21364  0.40711  1.0000
  C   C11       1.0  0.03983  0.71364  0.90711  1.0000
  C   C12       1.0  0.53983  0.78636  0.59289  1.0000
  C   C13       1.0  0.88616  0.49595  0.13586  1.0000
  C   C14       1.0  0.38616  0.00405  0.36414  1.0000
  C   C15       1.0  0.11384  0.50405  0.86414  1.0000
  C   C16       1.0  0.61384  0.99595  0.63586  1.0000
  C   C17       1.0  0.81052  0.59691  0.10785  1.0000
  C   C18       1.0  0.31052  0.90309  0.39215  1.0000
  C   C19       1.0  0.18948  0.40309  0.89215  1.0000
  C   C20       1.0  0.68948  0.09691  0.60785  1.0000
  C   C21       1.0  0.90938  0.70089  0.26078  1.0000
  C   C22       1.0  0.40938  0.79911  0.23922  1.0000
  C   C23       1.0  0.09062  0.29911  0.73922  1.0000
  C   C24       1.0  0.59062  0.20089  0.76078  1.0000
  C   C25       1.0  0.97367  0.59273  0.28245  1.0000
  C   C26       1.0  0.47366  0.90727  0.21755  1.0000
  C   C27       1.0  0.02634  0.40727  0.71755  1.0000
  C   C28       1.0  0.52633  0.09273  0.78245  1.0000
  C   C29       1.0  0.82552  0.70061  0.17174  1.0000
  C   C30       1.0  0.32552  0.79939  0.32826  1.0000
  C   C31       1.0  0.17448  0.29939  0.82826  1.0000
  C   C32       1.0  0.67448  0.20061  0.67174  1.0000
  C   C33       1.0  0.04670  0.65326  0.46394  1.0000
  C   C34       1.0  0.54671  0.84674  0.03606  1.0000
  C   C35       1.0  0.95329  0.34674  0.53606  1.0000
  C   C36       1.0  0.45330  0.15325  0.96394  1.0000
  C   C37       1.0  0.98493  0.96635  0.74182  1.0000
  C   C38       1.0  0.48493  0.53365  0.75818  1.0000
  C   C39       1.0  0.01507  0.03365  0.25818  1.0000
  C   C40       1.0  0.51507  0.46635  0.24182  1.0000
  C   C41       1.0  0.16348  0.62234  0.52274  1.0000
  C   C42       1.0  0.66348  0.87766  0.97726  1.0000
  C   C43       1.0  0.83652  0.37766  0.47727  1.0000
  C   C44       1.0  0.33652  0.12234  0.02274  1.0000
  C   C45       1.0  0.18443  0.51667  0.37723  1.0000
  C   C46       1.0  0.68443  0.98333  0.12277  1.0000
  C   C47       1.0  0.81557  0.48333  0.62277  1.0000
  C   C48       1.0  0.31556  0.01667  0.87723  1.0000
  S   S1        1.0  0.04197  0.92666  0.62689  1.0000
  S   S2        1.0  0.54197  0.57334  0.87311  1.0000
  S   S3        1.0  0.95803  0.07334  0.37311  1.0000
  S   S4        1.0  0.45803  0.42666  0.12689  1.0000
  N   N1        1.0  0.94154  0.20373  0.01689  1.0000
  N   N2        1.0  0.44154  0.29627  0.48311  1.0000
  N   N3        1.0  0.05846  0.79627  0.98311  1.0000
  N   N4        1.0  0.55846  0.70373  0.51689  1.0000
  N   N5        1.0  0.88598  0.38848  0.07250  1.0000
  N   N6        1.0  0.38598  0.11152  0.42750  1.0000
  N   N7        1.0  0.11402  0.61152  0.92750  1.0000
  N   N8        1.0  0.61402  0.88848  0.57250  1.0000
  N   N9        1.0  0.96461  0.49268  0.22177  1.0000
  N   N10       1.0  0.46461  0.00732  0.27823  1.0000
  N   N11       1.0  0.03539  0.50732  0.77823  1.0000
  N   N12       1.0  0.53539  0.99268  0.72177  1.0000
  N   N13       1.0  0.06066  0.58512  0.37155  1.0000
  N   N14       1.0  0.56066  0.91488  0.12845  1.0000
  N   N15       1.0  0.93934  0.41488  0.62845  1.0000
  N   N16       1.0  0.43934  0.08512  0.87155  1.0000
  N   N17       1.0  0.94125  0.99612  0.82558  1.0000
  N   N18       1.0  0.44125  0.50388  0.67442  1.0000
  N   N19       1.0  0.05875  0.00388  0.17442  1.0000
  N   N20       1.0  0.55875  0.49612  0.32558  1.0000
  N   N21       1.0  0.24864  0.53842  0.46746  1.0000
  N   N22       1.0  0.74864  0.96158  0.03254  1.0000
  N   N23       1.0  0.75136  0.46158  0.53254  1.0000
  N   N24       1.0  0.25136  0.03842  0.96746  1.0000
