data_image0
_chemical_formula_structural       Zn2H34C42N4Cl2O16
_chemical_formula_sum              "Zn2 H34 C42 N4 Cl2 O16"
_cell_length_a       9.47375
_cell_length_b       9.96662
_cell_length_c       12.7991
_cell_angle_alpha    67.814
_cell_angle_beta     85.6801
_cell_angle_gamma    69.5017

_space_group_name_H-M_alt    "P 1"
_space_group_IT_number       1

loop_
  _space_group_symop_operation_xyz
  'x, y, z'

loop_
  _atom_site_type_symbol
  _atom_site_label
  _atom_site_symmetry_multiplicity
  _atom_site_fract_x
  _atom_site_fract_y
  _atom_site_fract_z
  _atom_site_occupancy
  Zn  Zn1       1.0  0.76372  0.00601  0.13142  1.0000
  Zn  Zn2       1.0  0.23629  0.99398  0.86858  1.0000
  H   H1        1.0  0.20001  0.12017  0.57108  1.0000
  H   H2        1.0  0.79999  0.87983  0.42892  1.0000
  H   H3        1.0  0.58297  0.76633  0.91028  1.0000
  H   H4        1.0  0.41703  0.23367  0.08972  1.0000
  H   H5        1.0  0.22627  0.78998  0.47752  1.0000
  H   H6        1.0  0.77372  0.21002  0.52248  1.0000
  H   H7        1.0  0.36013  0.75891  0.64839  1.0000
  H   H8        1.0  0.63987  0.24109  0.35161  1.0000
  H   H9        1.0  0.50882  0.26322  0.75208  1.0000
  H   H10       1.0  0.49118  0.73678  0.24792  1.0000
  H   H11       1.0  0.37085  0.29589  0.57983  1.0000
  H   H12       1.0  0.62914  0.70411  0.42017  1.0000
  H   H13       1.0  0.43162  0.68392  0.83211  1.0000
  H   H14       1.0  0.56838  0.31608  0.16789  1.0000
  H   H15       1.0  0.59256  0.66601  0.74878  1.0000
  H   H16       1.0  0.40744  0.33399  0.25122  1.0000
  H   H17       1.0  0.87336  0.39717  0.10811  1.0000
  H   H18       1.0  0.12664  0.60283  0.89189  1.0000
  H   H19       1.0  0.02558  0.41611  0.25054  1.0000
  H   H20       1.0  0.97441  0.58389  0.74946  1.0000
  H   H21       1.0  0.98023  0.67568  0.25874  1.0000
  H   H22       1.0  0.01977  0.32432  0.74126  1.0000
  H   H23       1.0  0.63798  0.88872  0.00415  1.0000
  H   H24       1.0  0.36202  0.11128  0.99585  1.0000
  H   H25       1.0  0.39384  0.08749  0.45288  1.0000
  H   H26       1.0  0.60616  0.91251  0.54712  1.0000
  H   H27       1.0  0.94128  0.12457  0.38190  1.0000
  H   H28       1.0  0.05872  0.87543  0.61810  1.0000
  H   H29       1.0  0.29482  0.99370  0.16960  1.0000
  H   H30       1.0  0.70518  0.00630  0.83040  1.0000
  H   H31       1.0  0.70545  0.24814  0.95322  1.0000
  H   H32       1.0  0.29455  0.75186  0.04678  1.0000
  H   H33       1.0  0.80602  0.10362  0.92010  1.0000
  H   H34       1.0  0.19398  0.89638  0.07990  1.0000
  C   C1        1.0  0.29047  0.54512  0.51956  1.0000
  C   C2        1.0  0.70952  0.45488  0.48044  1.0000
  C   C3        1.0  0.28783  0.67483  0.53795  1.0000
  C   C4        1.0  0.71216  0.32517  0.46205  1.0000
  C   C5        1.0  0.36470  0.65637  0.63435  1.0000
  C   C6        1.0  0.63530  0.34363  0.36565  1.0000
  C   C7        1.0  0.44343  0.50732  0.71089  1.0000
  C   C8        1.0  0.55657  0.49268  0.28911  1.0000
  C   C9        1.0  0.44488  0.37766  0.69171  1.0000
  C   C10       1.0  0.55512  0.62234  0.30829  1.0000
  C   C11       1.0  0.36862  0.39624  0.59590  1.0000
  C   C12       1.0  0.63137  0.60377  0.40410  1.0000
  C   C13       1.0  0.54102  0.60245  0.82240  1.0000
  C   C14       1.0  0.45899  0.39756  0.17760  1.0000
  C   C15       1.0  0.64618  0.54066  0.92727  1.0000
  C   C16       1.0  0.35382  0.45935  0.07272  1.0000
  C   C17       1.0  0.74628  0.64327  0.04246  1.0000
  C   C18       1.0  0.25371  0.35673  0.95754  1.0000
  C   C19       1.0  0.85646  0.50771  0.11387  1.0000
  C   C20       1.0  0.14354  0.49229  0.88613  1.0000
  C   C21       1.0  0.94077  0.51921  0.19271  1.0000
  C   C22       1.0  0.05922  0.48078  0.80729  1.0000
  C   C23       1.0  0.91599  0.66190  0.19898  1.0000
  C   C24       1.0  0.08401  0.33810  0.80102  1.0000
  C   C25       1.0  0.72528  0.78204  0.05596  1.0000
  C   C26       1.0  0.27472  0.21796  0.94404  1.0000
  C   C27       1.0  0.52092  0.01133  0.27807  1.0000
  C   C28       1.0  0.47909  0.98867  0.72194  1.0000
  C   C29       1.0  0.35909  0.04320  0.30566  1.0000
  C   C30       1.0  0.64092  0.95680  0.69434  1.0000
  C   C31       1.0  0.31286  0.08188  0.40006  1.0000
  C   C32       1.0  0.68714  0.91812  0.59994  1.0000
  C   C33       1.0  0.16186  0.11193  0.42810  1.0000
  C   C34       1.0  0.83814  0.88807  0.57191  1.0000
  C   C35       1.0  0.05817  0.10292  0.36039  1.0000
  C   C36       1.0  0.94183  0.89708  0.63961  1.0000
  C   C37       1.0  0.10650  0.05866  0.26837  1.0000
  C   C38       1.0  0.89350  0.94134  0.73163  1.0000
  C   C39       1.0  0.25687  0.03038  0.23990  1.0000
  C   C40       1.0  0.74313  0.96962  0.76010  1.0000
  C   C41       1.0  0.99969  0.03257  0.20440  1.0000
  C   C42       1.0  0.00031  0.96743  0.79560  1.0000
  N   N1        1.0  0.65467  0.65474  0.95693  1.0000
  N   N2        1.0  0.34533  0.34526  0.04306  1.0000
  N   N3        1.0  0.80911  0.79120  0.13103  1.0000
  N   N4        1.0  0.19089  0.20880  0.86897  1.0000
  Cl  Cl1       1.0  0.19891  0.56657  0.39861  1.0000
  Cl  Cl2       1.0  0.80108  0.43343  0.60139  1.0000
  O   O1        1.0  0.52326  0.47554  0.80802  1.0000
  O   O2        1.0  0.47674  0.52446  0.19198  1.0000
  O   O3        1.0  0.71758  0.40087  0.97819  1.0000
  O   O4        1.0  0.28243  0.59913  0.02180  1.0000
  O   O5        1.0  0.54490  0.05325  0.17059  1.0000
  O   O6        1.0  0.45510  0.94674  0.82941  1.0000
  O   O7        1.0  0.62287  0.94920  0.35555  1.0000
  O   O8        1.0  0.37713  0.05081  0.64446  1.0000
  O   O9        1.0  0.11235  0.14728  0.51984  1.0000
  O   O10       1.0  0.88766  0.85272  0.48017  1.0000
  O   O11       1.0  0.85781  0.08122  0.22111  1.0000
  O   O12       1.0  0.14220  0.91878  0.77889  1.0000
  O   O13       1.0  0.04606  0.96177  0.13752  1.0000
  O   O14       1.0  0.95394  0.03824  0.86248  1.0000
  O   O15       1.0  0.71863  0.13912  0.96554  1.0000
  O   O16       1.0  0.28138  0.86088  0.03447  1.0000
