data_image0
_chemical_formula_structural       Dy2H42C66S8N2O16
_chemical_formula_sum              "Dy2 H42 C66 S8 N2 O16"
_cell_length_a       9.34905
_cell_length_b       10.4674
_cell_length_c       15.8896
_cell_angle_alpha    82.9286
_cell_angle_beta     82.3232
_cell_angle_gamma    78.3516

_space_group_name_H-M_alt    "P 1"
_space_group_IT_number       1

loop_
  _space_group_symop_operation_xyz
  'x, y, z'

loop_
  _atom_site_type_symbol
  _atom_site_label
  _atom_site_symmetry_multiplicity
  _atom_site_fract_x
  _atom_site_fract_y
  _atom_site_fract_z
  _atom_site_occupancy
  Dy  Dy1       1.0  0.83603  0.92140  0.04678  1.0000
  Dy  Dy2       1.0  0.16397  0.07860  0.95322  1.0000
  H   H1        1.0  0.29094  0.82475  0.76136  1.0000
  H   H2        1.0  0.70907  0.17525  0.23864  1.0000
  H   H3        1.0  0.24853  0.35732  0.86262  1.0000
  H   H4        1.0  0.75147  0.64268  0.13738  1.0000
  H   H5        1.0  0.42528  0.13307  0.07051  1.0000
  H   H6        1.0  0.57472  0.86694  0.92949  1.0000
  H   H7        1.0  0.39833  0.86464  0.19353  1.0000
  H   H8        1.0  0.60167  0.13535  0.80648  1.0000
  H   H9        1.0  0.07519  0.42850  0.76295  1.0000
  H   H10       1.0  0.92480  0.57150  0.23705  1.0000
  H   H11       1.0  0.39710  0.66326  0.65554  1.0000
  H   H12       1.0  0.60291  0.33673  0.34445  1.0000
  H   H13       1.0  0.36376  0.54152  0.88009  1.0000
  H   H14       1.0  0.63624  0.45848  0.11991  1.0000
  H   H15       1.0  0.54977  0.30677  0.09785  1.0000
  H   H16       1.0  0.45022  0.69323  0.90215  1.0000
  H   H17       1.0  0.19284  0.45705  0.23522  1.0000
  H   H18       1.0  0.80715  0.54295  0.76479  1.0000
  H   H19       1.0  0.46030  0.69776  0.31720  1.0000
  H   H20       1.0  0.53970  0.30224  0.68280  1.0000
  H   H21       1.0  0.28397  0.46656  0.65614  1.0000
  H   H22       1.0  0.71603  0.53344  0.34386  1.0000
  H   H23       1.0  0.20090  0.27366  0.66779  1.0000
  H   H24       1.0  0.79910  0.72634  0.33221  1.0000
  H   H25       1.0  0.35311  0.49379  0.33663  1.0000
  H   H26       1.0  0.64689  0.50621  0.66337  1.0000
  H   H27       1.0  0.66480  0.98752  0.56454  1.0000
  H   H28       1.0  0.33520  0.01248  0.43546  1.0000
  H   H29       1.0  0.31280  0.31296  0.51589  1.0000
  H   H30       1.0  0.68720  0.68704  0.48411  1.0000
  H   H31       1.0  0.54879  0.16895  0.46721  1.0000
  H   H32       1.0  0.45121  0.83105  0.53279  1.0000
  H   H33       1.0  0.80962  0.99909  0.71947  1.0000
  H   H34       1.0  0.19039  0.00091  0.28053  1.0000
  H   H35       1.0  0.20741  0.80879  0.50621  1.0000
  H   H36       1.0  0.79259  0.19121  0.49379  1.0000
  H   H37       1.0  0.02672  0.10225  0.67911  1.0000
  H   H38       1.0  0.97329  0.89775  0.32090  1.0000
  H   H39       1.0  0.10242  0.53863  0.46578  1.0000
  H   H40       1.0  0.89758  0.46137  0.53422  1.0000
  H   H41       1.0  0.22591  0.01137  0.56954  1.0000
  H   H42       1.0  0.77409  0.98863  0.43046  1.0000
  C   C1        1.0  0.06715  0.82177  0.87989  1.0000
  C   C2        1.0  0.93286  0.17823  0.12011  1.0000
  C   C3        1.0  0.21269  0.86876  0.08373  1.0000
  C   C4        1.0  0.78731  0.13124  0.91627  1.0000
  C   C5        1.0  0.12266  0.72047  0.81926  1.0000
  C   C6        1.0  0.87734  0.27953  0.18074  1.0000
  C   C7        1.0  0.25201  0.76036  0.15056  1.0000
  C   C8        1.0  0.74799  0.23964  0.84945  1.0000
  C   C9        1.0  0.06117  0.60694  0.82133  1.0000
  C   C10       1.0  0.93884  0.39306  0.17866  1.0000
  C   C11       1.0  0.24393  0.73818  0.75967  1.0000
  C   C12       1.0  0.75608  0.26182  0.24033  1.0000
  C   C13       1.0  0.30678  0.10515  0.79081  1.0000
  C   C14       1.0  0.69322  0.89485  0.20919  1.0000
  C   C15       1.0  0.31548  0.35046  0.91451  1.0000
  C   C16       1.0  0.68452  0.64954  0.08549  1.0000
  C   C17       1.0  0.41322  0.22575  0.03011  1.0000
  C   C18       1.0  0.58678  0.77425  0.96989  1.0000
  C   C19       1.0  0.19360  0.64397  0.16095  1.0000
  C   C20       1.0  0.80639  0.35603  0.83905  1.0000
  C   C21       1.0  0.35088  0.77632  0.20573  1.0000
  C   C22       1.0  0.64911  0.22369  0.79427  1.0000
  C   C23       1.0  0.12020  0.51724  0.76114  1.0000
  C   C24       1.0  0.87980  0.48277  0.23885  1.0000
  C   C25       1.0  0.30285  0.64792  0.70129  1.0000
  C   C26       1.0  0.69715  0.35208  0.29870  1.0000
  C   C27       1.0  0.37145  0.11390  0.70051  1.0000
  C   C28       1.0  0.62855  0.88610  0.29949  1.0000
  C   C29       1.0  0.38111  0.45415  0.92497  1.0000
  C   C30       1.0  0.61888  0.54585  0.07503  1.0000
  C   C31       1.0  0.48318  0.32510  0.04488  1.0000
  C   C32       1.0  0.51682  0.67491  0.95512  1.0000
  C   C33       1.0  0.23392  0.54850  0.22762  1.0000
  C   C34       1.0  0.76608  0.45150  0.77238  1.0000
  C   C35       1.0  0.38660  0.68250  0.27341  1.0000
  C   C36       1.0  0.61339  0.31750  0.72660  1.0000
  C   C37       1.0  0.23937  0.53787  0.70186  1.0000
  C   C38       1.0  0.76063  0.46212  0.29813  1.0000
  C   C39       1.0  0.50212  0.02899  0.67195  1.0000
  C   C40       1.0  0.49787  0.97101  0.32805  1.0000
  C   C41       1.0  0.30382  0.21362  0.64343  1.0000
  C   C42       1.0  0.69618  0.78638  0.35657  1.0000
  C   C43       1.0  0.46622  0.44464  0.99264  1.0000
  C   C44       1.0  0.53378  0.55536  0.00736  1.0000
  C   C45       1.0  0.32722  0.56870  0.28404  1.0000
  C   C46       1.0  0.67277  0.43131  0.71596  1.0000
  C   C47       1.0  0.56441  0.05183  0.58757  1.0000
  C   C48       1.0  0.43558  0.94817  0.41243  1.0000
  C   C49       1.0  0.36627  0.23534  0.55976  1.0000
  C   C50       1.0  0.63372  0.76466  0.44024  1.0000
  C   C51       1.0  0.49814  0.15422  0.53265  1.0000
  C   C52       1.0  0.50185  0.84578  0.46735  1.0000
  C   C53       1.0  0.88470  0.84398  0.63757  1.0000
  C   C54       1.0  0.11530  0.15602  0.36243  1.0000
  C   C55       1.0  0.00067  0.78844  0.57786  1.0000
  C   C56       1.0  0.99932  0.21156  0.42214  1.0000
  C   C57       1.0  0.89721  0.95708  0.67278  1.0000
  C   C58       1.0  0.10279  0.04292  0.32722  1.0000
  C   C59       1.0  0.99915  0.66513  0.54272  1.0000
  C   C60       1.0  0.00085  0.33488  0.45728  1.0000
  C   C61       1.0  0.12131  0.85156  0.55333  1.0000
  C   C62       1.0  0.87869  0.14844  0.44667  1.0000
  C   C63       1.0  0.01938  0.01571  0.64924  1.0000
  C   C64       1.0  0.98062  0.98429  0.35076  1.0000
  C   C65       1.0  0.13134  0.96405  0.58831  1.0000
  C   C66       1.0  0.86866  0.03595  0.41169  1.0000
  S   S1        1.0  0.91556  0.58002  0.90160  1.0000
  S   S2        1.0  0.08445  0.41998  0.09840  1.0000
  S   S3        1.0  0.07807  0.61833  0.08692  1.0000
  S   S4        1.0  0.92193  0.38167  0.91308  1.0000
  S   S5        1.0  0.58360  0.89765  0.74361  1.0000
  S   S6        1.0  0.41640  0.10235  0.25639  1.0000
  S   S7        1.0  0.72352  0.77465  0.66357  1.0000
  S   S8        1.0  0.27648  0.22535  0.33644  1.0000
  N   N1        1.0  0.32777  0.23803  0.96663  1.0000
  N   N2        1.0  0.67223  0.76197  0.03337  1.0000
  O   O1        1.0  0.94257  0.81964  0.92428  1.0000
  O   O2        1.0  0.05744  0.18036  0.07572  1.0000
  O   O3        1.0  0.91659  0.10938  0.94148  1.0000
  O   O4        1.0  0.08341  0.89062  0.05852  1.0000
  O   O5        1.0  0.14818  0.90409  0.88363  1.0000
  O   O6        1.0  0.85184  0.09591  0.11637  1.0000
  O   O7        1.0  0.30427  0.94096  0.05161  1.0000
  O   O8        1.0  0.69573  0.05904  0.94840  1.0000
  O   O9        1.0  0.38051  0.03228  0.84666  1.0000
  O   O10       1.0  0.61949  0.96772  0.15334  1.0000
  O   O11       1.0  0.17904  0.17302  0.81176  1.0000
  O   O12       1.0  0.82096  0.82698  0.18824  1.0000
  O   O13       1.0  0.89873  0.60085  0.56621  1.0000
  O   O14       1.0  0.10126  0.39915  0.43379  1.0000
  O   O15       1.0  0.11131  0.62599  0.48528  1.0000
  O   O16       1.0  0.88869  0.37401  0.51472  1.0000
