data_image0
_chemical_formula_structural       Dy2H46C60S8O18
_chemical_formula_sum              "Dy2 H46 C60 S8 O18"
_cell_length_a       9.04533
_cell_length_b       11.4291
_cell_length_c       15.6218
_cell_angle_alpha    90.631
_cell_angle_beta     100.363
_cell_angle_gamma    109.042

_space_group_name_H-M_alt    "P 1"
_space_group_IT_number       1

loop_
  _space_group_symop_operation_xyz
  'x, y, z'

loop_
  _atom_site_type_symbol
  _atom_site_label
  _atom_site_symmetry_multiplicity
  _atom_site_fract_x
  _atom_site_fract_y
  _atom_site_fract_z
  _atom_site_occupancy
  Dy  Dy1       1.0  0.20185  0.47828  0.50623  1.0000
  Dy  Dy2       1.0  0.79815  0.52173  0.49377  1.0000
  H   H1        1.0  0.50652  0.64619  0.47518  1.0000
  H   H2        1.0  0.49348  0.35381  0.52482  1.0000
  H   H3        1.0  0.12356  0.99270  0.99216  1.0000
  H   H4        1.0  0.87644  0.00730  0.00784  1.0000
  H   H5        1.0  0.51989  0.78273  0.61041  1.0000
  H   H6        1.0  0.48011  0.21728  0.38959  1.0000
  H   H7        1.0  0.36916  0.81603  0.53529  1.0000
  H   H8        1.0  0.63084  0.18398  0.46471  1.0000
  H   H9        1.0  0.55598  0.88355  0.42983  1.0000
  H   H10       1.0  0.44402  0.11645  0.57017  1.0000
  H   H11       1.0  0.70669  0.84756  0.50394  1.0000
  H   H12       1.0  0.29331  0.15244  0.49606  1.0000
  H   H13       1.0  0.64068  0.96961  0.53293  1.0000
  H   H14       1.0  0.35933  0.03039  0.46707  1.0000
  H   H15       1.0  0.21668  0.27970  0.28447  1.0000
  H   H16       1.0  0.78332  0.72030  0.71552  1.0000
  H   H17       1.0  0.16814  0.19173  0.13012  1.0000
  H   H18       1.0  0.83186  0.80827  0.86987  1.0000
  H   H19       1.0  0.34292  0.30658  0.03004  1.0000
  H   H20       1.0  0.65708  0.69343  0.96996  1.0000
  H   H21       1.0  0.55916  0.50481  0.08252  1.0000
  H   H22       1.0  0.44085  0.49520  0.91748  1.0000
  H   H23       1.0  0.82621  0.50987  0.20800  1.0000
  H   H24       1.0  0.17378  0.49013  0.79200  1.0000
  H   H25       1.0  0.03025  0.42285  0.17935  1.0000
  H   H26       1.0  0.96973  0.57714  0.82065  1.0000
  H   H27       1.0  0.22816  0.53248  0.08935  1.0000
  H   H28       1.0  0.77183  0.46751  0.91066  1.0000
  H   H29       1.0  0.21855  0.73240  0.02963  1.0000
  H   H30       1.0  0.78146  0.26759  0.97038  1.0000
  H   H31       1.0  0.73279  0.32340  0.66193  1.0000
  H   H32       1.0  0.26721  0.67660  0.33806  1.0000
  H   H33       1.0  0.57753  0.17563  0.75591  1.0000
  H   H34       1.0  0.42247  0.82436  0.24408  1.0000
  H   H35       1.0  0.64151  0.98204  0.78976  1.0000
  H   H36       1.0  0.35849  0.01796  0.21023  1.0000
  H   H37       1.0  0.85349  0.93730  0.72936  1.0000
  H   H38       1.0  0.14651  0.06270  0.27064  1.0000
  H   H39       1.0  0.17598  0.04275  0.78080  1.0000
  H   H40       1.0  0.82402  0.95725  0.21919  1.0000
  H   H41       1.0  0.37476  0.02565  0.90584  1.0000
  H   H42       1.0  0.62524  0.97436  0.09416  1.0000
  H   H43       1.0  0.47477  0.84485  0.90915  1.0000
  H   H44       1.0  0.52523  0.15516  0.09085  1.0000
  H   H45       1.0  0.36742  0.68209  0.78507  1.0000
  H   H46       1.0  0.63257  0.31791  0.21493  1.0000
  C   C1        1.0  0.47521  0.78768  0.54063  1.0000
  C   C2        1.0  0.52479  0.21232  0.45937  1.0000
  C   C3        1.0  0.60147  0.87689  0.49898  1.0000
  C   C4        1.0  0.39853  0.12311  0.50102  1.0000
  C   C5        1.0  0.44242  0.47852  0.36398  1.0000
  C   C6        1.0  0.55758  0.52149  0.63602  1.0000
  C   C7        1.0  0.41701  0.43645  0.27063  1.0000
  C   C8        1.0  0.58298  0.56355  0.72937  1.0000
  C   C9        1.0  0.29138  0.32634  0.23903  1.0000
  C   C10       1.0  0.70862  0.67366  0.76097  1.0000
  C   C11       1.0  0.26417  0.27856  0.15331  1.0000
  C   C12       1.0  0.73583  0.72145  0.84669  1.0000
  C   C13       1.0  0.36204  0.34317  0.09738  1.0000
  C   C14       1.0  0.63796  0.65683  0.90262  1.0000
  C   C15       1.0  0.48467  0.45439  0.12688  1.0000
  C   C16       1.0  0.51533  0.54561  0.87312  1.0000
  C   C17       1.0  0.51462  0.50272  0.21365  1.0000
  C   C18       1.0  0.48538  0.49728  0.78635  1.0000
  C   C19       1.0  0.89898  0.66676  0.13125  1.0000
  C   C20       1.0  0.10101  0.33324  0.86875  1.0000
  C   C21       1.0  0.90953  0.55711  0.16695  1.0000
  C   C22       1.0  0.09046  0.44288  0.83305  1.0000
  C   C23       1.0  0.02659  0.50942  0.15180  1.0000
  C   C24       1.0  0.97340  0.49058  0.84821  1.0000
  C   C25       1.0  0.13794  0.57101  0.10162  1.0000
  C   C26       1.0  0.86205  0.42898  0.89839  1.0000
  C   C27       1.0  0.13200  0.68158  0.06791  1.0000
  C   C28       1.0  0.86800  0.31842  0.93209  1.0000
  C   C29       1.0  0.01346  0.73060  0.08157  1.0000
  C   C30       1.0  0.98654  0.26938  0.91844  1.0000
  C   C31       1.0  0.01113  0.84827  0.04576  1.0000
  C   C32       1.0  0.98889  0.15171  0.95425  1.0000
  C   C33       1.0  0.96913  0.30495  0.58862  1.0000
  C   C34       1.0  0.03087  0.69505  0.41138  1.0000
  C   C35       1.0  0.87869  0.21440  0.64272  1.0000
  C   C36       1.0  0.12131  0.78560  0.35728  1.0000
  C   C37       1.0  0.75757  0.23826  0.67745  1.0000
  C   C38       1.0  0.24243  0.76174  0.32255  1.0000
  C   C39       1.0  0.67145  0.15584  0.72979  1.0000
  C   C40       1.0  0.32855  0.84416  0.27021  1.0000
  C   C41       1.0  0.70756  0.04761  0.74859  1.0000
  C   C42       1.0  0.29244  0.95239  0.25140  1.0000
  C   C43       1.0  0.82771  0.02256  0.71528  1.0000
  C   C44       1.0  0.17230  0.97745  0.28471  1.0000
  C   C45       1.0  0.91485  0.10429  0.66172  1.0000
  C   C46       1.0  0.08516  0.89571  0.33828  1.0000
  C   C47       1.0  0.15138  0.86911  0.71402  1.0000
  C   C48       1.0  0.84862  0.13089  0.28598  1.0000
  C   C49       1.0  0.21485  0.96190  0.78269  1.0000
  C   C50       1.0  0.78515  0.03810  0.21731  1.0000
  C   C51       1.0  0.32885  0.95270  0.85276  1.0000
  C   C52       1.0  0.67115  0.04731  0.14724  1.0000
  C   C53       1.0  0.38445  0.85183  0.85484  1.0000
  C   C54       1.0  0.61554  0.14817  0.14516  1.0000
  C   C55       1.0  0.32388  0.76023  0.78615  1.0000
  C   C56       1.0  0.67612  0.23977  0.21385  1.0000
  C   C57       1.0  0.20537  0.76571  0.71652  1.0000
  C   C58       1.0  0.79463  0.23429  0.28348  1.0000
  C   C59       1.0  0.13762  0.66343  0.64586  1.0000
  C   C60       1.0  0.86237  0.33657  0.35414  1.0000
  S   S1        1.0  0.66934  0.64351  0.25485  1.0000
  S   S2        1.0  0.33066  0.35649  0.74516  1.0000
  S   S3        1.0  0.74543  0.72554  0.14715  1.0000
  S   S4        1.0  0.25457  0.27446  0.85286  1.0000
  S   S5        1.0  0.06346  0.07092  0.61537  1.0000
  S   S6        1.0  0.93655  0.92908  0.38463  1.0000
  S   S7        1.0  0.01306  0.88218  0.62122  1.0000
  S   S8        1.0  0.98694  0.11782  0.37877  1.0000
  O   O1        1.0  0.41980  0.66406  0.49740  1.0000
  O   O2        1.0  0.58020  0.33594  0.50260  1.0000
  O   O3        1.0  0.32841  0.43404  0.40408  1.0000
  O   O4        1.0  0.67158  0.56596  0.59592  1.0000
  O   O5        1.0  0.57717  0.55810  0.40027  1.0000
  O   O6        1.0  0.42283  0.44190  0.59973  1.0000
  O   O7        1.0  0.89296  0.88374  0.04337  1.0000
  O   O8        1.0  0.10702  0.11626  0.95662  1.0000
  O   O9        1.0  0.13993  0.91387  0.01675  1.0000
  O   O10       1.0  0.86006  0.08612  0.98326  1.0000
  O   O11       1.0  0.09613  0.29392  0.57087  1.0000
  O   O12       1.0  0.90387  0.70608  0.42912  1.0000
  O   O13       1.0  0.92478  0.39649  0.56097  1.0000
  O   O14       1.0  0.07524  0.60351  0.43903  1.0000
  O   O15       1.0  0.22171  0.59788  0.63038  1.0000
  O   O16       1.0  0.77829  0.40212  0.36962  1.0000
  O   O17       1.0  0.99750  0.64915  0.60436  1.0000
  O   O18       1.0  0.00250  0.35086  0.39564  1.0000
