data_image0
_chemical_formula_structural       P4H48Au2C52Br2
_chemical_formula_sum              "P4 H48 Au2 C52 Br2"
_cell_length_a       8.93244
_cell_length_b       11.9083
_cell_length_c       13.5065
_cell_angle_alpha    66.7592
_cell_angle_beta     70.3346
_cell_angle_gamma    85.1229

_space_group_name_H-M_alt    "P 1"
_space_group_IT_number       1

loop_
  _space_group_symop_operation_xyz
  'x, y, z'

loop_
  _atom_site_type_symbol
  _atom_site_label
  _atom_site_symmetry_multiplicity
  _atom_site_fract_x
  _atom_site_fract_y
  _atom_site_fract_z
  _atom_site_occupancy
  P   P1        1.0  0.69444  0.60289  0.83610  1.0000
  P   P2        1.0  0.30557  0.39710  0.16390  1.0000
  P   P3        1.0  0.51705  0.65875  0.54310  1.0000
  P   P4        1.0  0.48294  0.34126  0.45690  1.0000
  H   H1        1.0  0.63462  0.69875  0.02183  1.0000
  H   H2        1.0  0.36540  0.30125  0.97817  1.0000
  H   H3        1.0  0.61412  0.90712  0.01549  1.0000
  H   H4        1.0  0.38588  0.09287  0.98450  1.0000
  H   H5        1.0  0.64471  0.08665  0.83093  1.0000
  H   H6        1.0  0.35526  0.91334  0.16907  1.0000
  H   H7        1.0  0.68933  0.05047  0.65379  1.0000
  H   H8        1.0  0.31063  0.94952  0.34621  1.0000
  H   H9        1.0  0.70221  0.83826  0.66097  1.0000
  H   H10       1.0  0.29775  0.16172  0.33905  1.0000
  H   H11       1.0  0.95708  0.71358  0.86295  1.0000
  H   H12       1.0  0.04293  0.28642  0.13703  1.0000
  H   H13       1.0  0.22940  0.64847  0.85783  1.0000
  H   H14       1.0  0.77060  0.35152  0.14219  1.0000
  H   H15       1.0  0.32545  0.46122  0.81840  1.0000
  H   H16       1.0  0.67455  0.53877  0.18161  1.0000
  H   H17       1.0  0.15167  0.34637  0.77790  1.0000
  H   H18       1.0  0.84834  0.65363  0.22208  1.0000
  H   H19       1.0  0.87996  0.41423  0.77776  1.0000
  H   H20       1.0  0.12005  0.58576  0.22223  1.0000
  H   H21       1.0  0.61921  0.40300  0.97846  1.0000
  H   H22       1.0  0.38079  0.59698  0.02154  1.0000
  H   H23       1.0  0.64203  0.50514  0.03965  1.0000
  H   H24       1.0  0.35796  0.49485  0.96035  1.0000
  H   H25       1.0  0.48987  0.87505  0.59441  1.0000
  H   H26       1.0  0.51014  0.12496  0.40557  1.0000
  H   H27       1.0  0.27228  0.01420  0.62324  1.0000
  H   H28       1.0  0.72774  0.98581  0.37677  1.0000
  H   H29       1.0  0.01166  0.97743  0.60860  1.0000
  H   H30       1.0  0.98833  0.02257  0.39145  1.0000
  H   H31       1.0  0.97384  0.80459  0.55809  1.0000
  H   H32       1.0  0.02614  0.19544  0.44192  1.0000
  H   H33       1.0  0.19151  0.66851  0.52449  1.0000
  H   H34       1.0  0.80848  0.33154  0.47547  1.0000
  H   H35       1.0  0.53167  0.82624  0.30736  1.0000
  H   H36       1.0  0.46834  0.17377  0.69265  1.0000
  H   H37       1.0  0.75677  0.94541  0.13792  1.0000
  H   H38       1.0  0.24323  0.05459  0.86209  1.0000
  H   H39       1.0  0.03399  0.92707  0.14561  1.0000
  H   H40       1.0  0.96601  0.07293  0.85439  1.0000
  H   H41       1.0  0.08450  0.78574  0.32264  1.0000
  H   H42       1.0  0.91550  0.21427  0.67736  1.0000
  H   H43       1.0  0.85617  0.67188  0.49574  1.0000
  H   H44       1.0  0.14384  0.32811  0.50426  1.0000
  H   H45       1.0  0.33319  0.49898  0.58537  1.0000
  H   H46       1.0  0.66679  0.50104  0.41463  1.0000
  H   H47       1.0  0.39938  0.59340  0.43573  1.0000
  H   H48       1.0  0.60060  0.40662  0.56427  1.0000
  Au  Au1       1.0  0.60842  0.58792  0.69753  1.0000
  Au  Au2       1.0  0.39156  0.41208  0.30247  1.0000
  C   C1        1.0  0.67376  0.75412  0.84033  1.0000
  C   C2        1.0  0.32622  0.24586  0.15968  1.0000
  C   C3        1.0  0.64880  0.77432  0.94009  1.0000
  C   C4        1.0  0.35121  0.22567  0.05991  1.0000
  C   C5        1.0  0.63735  0.89343  0.93659  1.0000
  C   C6        1.0  0.36264  0.10656  0.06341  1.0000
  C   C7        1.0  0.65305  0.99319  0.83399  1.0000
  C   C8        1.0  0.34693  0.00680  0.16601  1.0000
  C   C9        1.0  0.67756  0.97338  0.73437  1.0000
  C   C10       1.0  0.32242  0.02661  0.26564  1.0000
  C   C11       1.0  0.68633  0.85462  0.73783  1.0000
  C   C12       1.0  0.31364  0.14536  0.26218  1.0000
  C   C13       1.0  0.90038  0.56651  0.82308  1.0000
  C   C14       1.0  0.09962  0.43349  0.17691  1.0000
  C   C15       1.0  0.99907  0.63274  0.84500  1.0000
  C   C16       1.0  0.00093  0.36726  0.15498  1.0000
  C   C17       1.0  0.15200  0.59543  0.84275  1.0000
  C   C18       1.0  0.84800  0.40456  0.15725  1.0000
  C   C19       1.0  0.20583  0.49155  0.82027  1.0000
  C   C20       1.0  0.79417  0.50844  0.17972  1.0000
  C   C21       1.0  0.10859  0.42670  0.79652  1.0000
  C   C22       1.0  0.89141  0.57330  0.20347  1.0000
  C   C23       1.0  0.95631  0.46434  0.79682  1.0000
  C   C24       1.0  0.04371  0.53565  0.20316  1.0000
  C   C25       1.0  0.58956  0.49355  0.98131  1.0000
  C   C26       1.0  0.41044  0.50643  0.01869  1.0000
  C   C27       1.0  0.35691  0.76291  0.55616  1.0000
  C   C28       1.0  0.64309  0.23711  0.44384  1.0000
  C   C29       1.0  0.37779  0.86088  0.58421  1.0000
  C   C30       1.0  0.62222  0.13914  0.41577  1.0000
  C   C31       1.0  0.25496  0.93871  0.60124  1.0000
  C   C32       1.0  0.74505  0.06130  0.39877  1.0000
  C   C33       1.0  0.10892  0.91833  0.59252  1.0000
  C   C34       1.0  0.89108  0.08168  0.40750  1.0000
  C   C35       1.0  0.08759  0.82124  0.56461  1.0000
  C   C36       1.0  0.91242  0.17878  0.43539  1.0000
  C   C37       1.0  0.21091  0.74401  0.54575  1.0000
  C   C38       1.0  0.78909  0.25602  0.45423  1.0000
  C   C39       1.0  0.67921  0.74338  0.41369  1.0000
  C   C40       1.0  0.32080  0.25661  0.58631  1.0000
  C   C41       1.0  0.65171  0.81930  0.31208  1.0000
  C   C42       1.0  0.34831  0.18070  0.68792  1.0000
  C   C43       1.0  0.77923  0.88543  0.21616  1.0000
  C   C44       1.0  0.22078  0.11457  0.78385  1.0000
  C   C45       1.0  0.93445  0.87498  0.22026  1.0000
  C   C46       1.0  0.06556  0.12502  0.77975  1.0000
  C   C47       1.0  0.96312  0.79706  0.32021  1.0000
  C   C48       1.0  0.03689  0.20294  0.67979  1.0000
  C   C49       1.0  0.83563  0.73210  0.41659  1.0000
  C   C50       1.0  0.16438  0.26790  0.58341  1.0000
  C   C51       1.0  0.43797  0.54546  0.51082  1.0000
  C   C52       1.0  0.56202  0.45455  0.48918  1.0000
  Br  Br1       1.0  0.61973  0.32903  0.76660  1.0000
  Br  Br2       1.0  0.38036  0.67096  0.23338  1.0000
