data_image0
_chemical_formula_structural       Na2H34C36N20O20
_chemical_formula_sum              "Na2 H34 C36 N20 O20"
_cell_length_a       9.17086
_cell_length_b       11.0966
_cell_length_c       11.8031
_cell_angle_alpha    73.7655
_cell_angle_beta     80.2239
_cell_angle_gamma    90.0072

_space_group_name_H-M_alt    "P 1"
_space_group_IT_number       1

loop_
  _space_group_symop_operation_xyz
  'x, y, z'

loop_
  _atom_site_type_symbol
  _atom_site_label
  _atom_site_symmetry_multiplicity
  _atom_site_fract_x
  _atom_site_fract_y
  _atom_site_fract_z
  _atom_site_occupancy
  Na  Na1       1.0  0.90793  0.60852  0.91433  1.0000
  Na  Na2       1.0  0.09207  0.39147  0.08567  1.0000
  H   H1        1.0  0.09793  0.67327  0.05395  1.0000
  H   H2        1.0  0.90207  0.32673  0.94605  1.0000
  H   H3        1.0  0.01030  0.79297  0.05653  1.0000
  H   H4        1.0  0.98970  0.20702  0.94348  1.0000
  H   H5        1.0  0.78876  0.42824  0.78131  1.0000
  H   H6        1.0  0.21125  0.57176  0.21869  1.0000
  H   H7        1.0  0.69891  0.39840  0.91555  1.0000
  H   H8        1.0  0.30109  0.60160  0.08445  1.0000
  H   H9        1.0  0.57398  0.40142  0.12354  1.0000
  H   H10       1.0  0.42601  0.59858  0.87645  1.0000
  H   H11       1.0  0.89015  0.87210  0.45969  1.0000
  H   H12       1.0  0.10985  0.12790  0.54031  1.0000
  H   H13       1.0  0.04627  0.91014  0.51977  1.0000
  H   H14       1.0  0.95373  0.08986  0.48023  1.0000
  H   H15       1.0  0.72546  0.76435  0.75925  1.0000
  H   H16       1.0  0.27453  0.23564  0.24075  1.0000
  H   H17       1.0  0.54489  0.68352  0.48140  1.0000
  H   H18       1.0  0.45511  0.31648  0.51859  1.0000
  H   H19       1.0  0.50022  0.57065  0.33466  1.0000
  H   H20       1.0  0.49978  0.42935  0.66534  1.0000
  H   H21       1.0  0.97300  0.54590  0.24630  1.0000
  H   H22       1.0  0.02700  0.45410  0.75370  1.0000
  H   H23       1.0  0.44997  0.09614  0.45284  1.0000
  H   H24       1.0  0.55003  0.90386  0.54716  1.0000
  H   H25       1.0  0.70224  0.18637  0.18211  1.0000
  H   H26       1.0  0.29776  0.81363  0.81789  1.0000
  H   H27       1.0  0.82541  0.20902  0.27683  1.0000
  H   H28       1.0  0.17460  0.79098  0.72317  1.0000
  H   H29       1.0  0.33865  0.95886  0.21881  1.0000
  H   H30       1.0  0.66134  0.04114  0.78119  1.0000
  H   H31       1.0  0.31773  0.81712  0.09097  1.0000
  H   H32       1.0  0.68227  0.18288  0.90902  1.0000
  H   H33       1.0  0.79398  0.81768  0.02070  1.0000
  H   H34       1.0  0.20603  0.18232  0.97930  1.0000
  C   C1        1.0  0.71972  0.48564  0.18503  1.0000
  C   C2        1.0  0.28028  0.51436  0.81497  1.0000
  C   C3        1.0  0.97353  0.83404  0.51439  1.0000
  C   C4        1.0  0.02647  0.16596  0.48561  1.0000
  C   C5        1.0  0.89910  0.76522  0.64145  1.0000
  C   C6        1.0  0.10090  0.23478  0.35855  1.0000
  C   C7        1.0  0.88998  0.63980  0.38099  1.0000
  C   C8        1.0  0.11002  0.36020  0.61900  1.0000
  C   C9        1.0  0.63791  0.65167  0.42813  1.0000
  C   C10       1.0  0.36209  0.34833  0.57187  1.0000
  C   C11       1.0  0.61277  0.58794  0.34600  1.0000
  C   C12       1.0  0.38723  0.41205  0.65400  1.0000
  C   C13       1.0  0.73502  0.54974  0.27869  1.0000
  C   C14       1.0  0.26498  0.45025  0.72132  1.0000
  C   C15       1.0  0.87661  0.57536  0.29688  1.0000
  C   C16       1.0  0.12338  0.42463  0.70312  1.0000
  C   C17       1.0  0.03676  0.67098  0.40080  1.0000
  C   C18       1.0  0.96324  0.32903  0.59919  1.0000
  C   C19       1.0  0.55628  0.72555  0.96245  1.0000
  C   C20       1.0  0.44373  0.27445  0.03756  1.0000
  C   C21       1.0  0.75727  0.13869  0.25667  1.0000
  C   C22       1.0  0.24273  0.86131  0.74333  1.0000
  C   C23       1.0  0.64379  0.07552  0.36691  1.0000
  C   C24       1.0  0.35621  0.92448  0.63308  1.0000
  C   C25       1.0  0.69210  0.92257  0.14096  1.0000
  C   C26       1.0  0.30790  0.07742  0.85905  1.0000
  C   C27       1.0  0.43820  0.92470  0.17537  1.0000
  C   C28       1.0  0.56179  0.07530  0.82463  1.0000
  C   C29       1.0  0.42626  0.84513  0.10366  1.0000
  C   C30       1.0  0.57374  0.15488  0.89634  1.0000
  C   C31       1.0  0.55606  0.80569  0.04669  1.0000
  C   C32       1.0  0.44394  0.19431  0.95333  1.0000
  C   C33       1.0  0.69171  0.84590  0.06530  1.0000
  C   C34       1.0  0.30829  0.15409  0.93470  1.0000
  C   C35       1.0  0.83274  0.95964  0.16716  1.0000
  C   C36       1.0  0.16726  0.04036  0.83285  1.0000
  N   N1        1.0  0.77317  0.67757  0.44610  1.0000
  N   N2        1.0  0.22683  0.32244  0.55389  1.0000
  N   N3        1.0  0.06829  0.75355  0.46001  1.0000
  N   N4        1.0  0.93171  0.24646  0.53998  1.0000
  N   N5        1.0  0.21577  0.75529  0.46124  1.0000
  N   N6        1.0  0.78424  0.24471  0.53875  1.0000
  N   N7        1.0  0.27151  0.67718  0.40332  1.0000
  N   N8        1.0  0.72849  0.32282  0.59667  1.0000
  N   N9        1.0  0.16449  0.62379  0.36396  1.0000
  N   N10       1.0  0.83551  0.37621  0.63604  1.0000
  N   N11       1.0  0.56781  0.96325  0.19443  1.0000
  N   N12       1.0  0.43219  0.03674  0.80558  1.0000
  N   N13       1.0  0.85644  0.04923  0.22068  1.0000
  N   N14       1.0  0.14356  0.95077  0.77932  1.0000
  N   N15       1.0  0.99995  0.04978  0.23410  1.0000
  N   N16       1.0  0.00005  0.95023  0.76590  1.0000
  N   N17       1.0  0.06172  0.96381  0.18888  1.0000
  N   N18       1.0  0.93829  0.03620  0.81112  1.0000
  N   N19       1.0  0.96161  0.90648  0.14636  1.0000
  N   N20       1.0  0.03839  0.09352  0.85364  1.0000
  O   O1        1.0  0.03601  0.73450  0.00718  1.0000
  O   O2        1.0  0.96397  0.26550  0.99283  1.0000
  O   O3        1.0  0.79230  0.43695  0.86197  1.0000
  O   O4        1.0  0.20771  0.56304  0.13803  1.0000
  O   O5        1.0  0.58176  0.45306  0.18504  1.0000
  O   O6        1.0  0.41824  0.54694  0.81495  1.0000
  O   O7        1.0  0.82905  0.46785  0.11441  1.0000
  O   O8        1.0  0.17096  0.53216  0.88559  1.0000
  O   O9        1.0  0.76778  0.80643  0.67112  1.0000
  O   O10       1.0  0.23221  0.19356  0.32889  1.0000
  O   O11       1.0  0.96324  0.68444  0.70720  1.0000
  O   O12       1.0  0.03676  0.31556  0.29281  1.0000
  O   O13       1.0  0.43158  0.67673  0.95869  1.0000
  O   O14       1.0  0.56842  0.32328  0.04132  1.0000
  O   O15       1.0  0.67908  0.71301  0.90044  1.0000
  O   O16       1.0  0.32092  0.28698  0.09957  1.0000
  O   O17       1.0  0.52775  0.14232  0.37909  1.0000
  O   O18       1.0  0.47225  0.85768  0.62091  1.0000
  O   O19       1.0  0.66709  0.97390  0.43731  1.0000
  O   O20       1.0  0.33290  0.02610  0.56268  1.0000
