data_image0
_chemical_formula_structural       Cu2H12C28N14
_chemical_formula_sum              "Cu2 H12 C28 N14"
_cell_length_a       4.78881
_cell_length_b       10.3756
_cell_length_c       15.9036
_cell_angle_alpha    90.0002
_cell_angle_beta     89.9999
_cell_angle_gamma    103.325

_space_group_name_H-M_alt    "P 1"
_space_group_IT_number       1

loop_
  _space_group_symop_operation_xyz
  'x, y, z'

loop_
  _atom_site_type_symbol
  _atom_site_label
  _atom_site_symmetry_multiplicity
  _atom_site_fract_x
  _atom_site_fract_y
  _atom_site_fract_z
  _atom_site_occupancy
  Cu  Cu1       1.0  0.27952  0.00008  0.49997  1.0000
  Cu  Cu2       1.0  0.72048  0.99992  0.99997  1.0000
  H   H1        1.0  0.75770  0.61493  0.47315  1.0000
  H   H2        1.0  0.24231  0.38507  0.97315  1.0000
  H   H3        1.0  0.14251  0.38505  0.52690  1.0000
  H   H4        1.0  0.85748  0.61495  0.02690  1.0000
  H   H5        1.0  0.86253  0.70594  0.37821  1.0000
  H   H6        1.0  0.13748  0.29406  0.87821  1.0000
  H   H7        1.0  0.15652  0.29406  0.62184  1.0000
  H   H8        1.0  0.84348  0.70594  0.12184  1.0000
  H   H9        1.0  0.52271  0.58886  0.38367  1.0000
  H   H10       1.0  0.47730  0.41114  0.88367  1.0000
  H   H11       1.0  0.93363  0.41113  0.61638  1.0000
  H   H12       1.0  0.06637  0.58887  0.11638  1.0000
  C   C1        1.0  0.72986  0.25363  0.28196  1.0000
  C   C2        1.0  0.27014  0.74637  0.78196  1.0000
  C   C3        1.0  0.47649  0.74623  0.71802  1.0000
  C   C4        1.0  0.52352  0.25377  0.21802  1.0000
  C   C5        1.0  0.72755  0.11897  0.30117  1.0000
  C   C6        1.0  0.27245  0.88104  0.80117  1.0000
  C   C7        1.0  0.60860  0.88084  0.69863  1.0000
  C   C8        1.0  0.39141  0.11916  0.19863  1.0000
  C   C9        1.0  0.51802  0.03602  0.24984  1.0000
  C   C10       1.0  0.48198  0.96398  0.74984  1.0000
  C   C11       1.0  0.90581  0.36280  0.32292  1.0000
  C   C12       1.0  0.09419  0.63720  0.82292  1.0000
  C   C13       1.0  0.54282  0.63690  0.67708  1.0000
  C   C14       1.0  0.45719  0.36310  0.17708  1.0000
  C   C15       1.0  0.90792  0.07772  0.35916  1.0000
  C   C16       1.0  0.09208  0.92228  0.85916  1.0000
  C   C17       1.0  0.83026  0.92202  0.64068  1.0000
  C   C18       1.0  0.16974  0.07798  0.14068  1.0000
  C   C19       1.0  0.44802  0.89679  0.25000  1.0000
  C   C20       1.0  0.55199  0.10321  0.75000  1.0000
  C   C21       1.0  0.68016  0.66280  0.41916  1.0000
  C   C22       1.0  0.31985  0.33720  0.91916  1.0000
  C   C23       1.0  0.01718  0.33717  0.58090  1.0000
  C   C24       1.0  0.98282  0.66283  0.08090  1.0000
  C   C25       1.0  0.54374  0.76464  0.44819  1.0000
  C   C26       1.0  0.45626  0.23536  0.94819  1.0000
  C   C27       1.0  0.77897  0.23535  0.55188  1.0000
  C   C28       1.0  0.22103  0.76465  0.05188  1.0000
  N   N1        1.0  0.05482  0.44926  0.36015  1.0000
  N   N2        1.0  0.94518  0.55074  0.86015  1.0000
  N   N3        1.0  0.60458  0.55030  0.63976  1.0000
  N   N4        1.0  0.39542  0.44970  0.13976  1.0000
  N   N5        1.0  0.06453  0.04548  0.40685  1.0000
  N   N6        1.0  0.93547  0.95453  0.90685  1.0000
  N   N7        1.0  0.01933  0.95451  0.59310  1.0000
  N   N8        1.0  0.98066  0.04549  0.09310  1.0000
  N   N9        1.0  0.38959  0.78085  0.25035  1.0000
  N   N10       1.0  0.61042  0.21915  0.75034  1.0000
  N   N11       1.0  0.43460  0.84750  0.47112  1.0000
  N   N12       1.0  0.56541  0.15250  0.97112  1.0000
  N   N13       1.0  0.58698  0.15254  0.52896  1.0000
  N   N14       1.0  0.41302  0.84746  0.02896  1.0000
