data_image0
_chemical_formula_structural       K2Zn2H16C11N2Cl4O8
_chemical_formula_sum              "K2 Zn2 H16 C11 N2 Cl4 O8"
_cell_length_a       7.31375
_cell_length_b       7.31377
_cell_length_c       10.3159
_cell_angle_alpha    100.425
_cell_angle_beta     100.425
_cell_angle_gamma    92.8013

_space_group_name_H-M_alt    "P 1"
_space_group_IT_number       1

loop_
  _space_group_symop_operation_xyz
  'x, y, z'

loop_
  _atom_site_type_symbol
  _atom_site_label
  _atom_site_symmetry_multiplicity
  _atom_site_fract_x
  _atom_site_fract_y
  _atom_site_fract_z
  _atom_site_occupancy
  K   K1        1.0  0.13566  0.86434  0.50000  1.0000
  K   K2        1.0  0.57464  0.42536  0.50000  1.0000
  Zn  Zn1       1.0  0.07726  0.42520  0.71237  1.0000
  Zn  Zn2       1.0  0.57480  0.92274  0.28763  1.0000
  H   H1        1.0  0.47810  0.95814  0.92316  1.0000
  H   H2        1.0  0.04186  0.52189  0.07684  1.0000
  H   H3        1.0  0.58854  0.75744  0.95989  1.0000
  H   H4        1.0  0.24256  0.41146  0.04011  1.0000
  H   H5        1.0  0.72680  0.13925  0.75341  1.0000
  H   H6        1.0  0.86074  0.27320  0.24659  1.0000
  H   H7        1.0  0.49419  0.04237  0.71481  1.0000
  H   H8        1.0  0.95763  0.50581  0.28519  1.0000
  H   H9        1.0  0.97680  0.92867  0.83967  1.0000
  H   H10       1.0  0.07133  0.02320  0.16033  1.0000
  H   H11       1.0  0.89547  0.81302  0.95847  1.0000
  H   H12       1.0  0.18698  0.10453  0.04153  1.0000
  H   H13       1.0  0.77030  0.11982  0.05485  1.0000
  H   H14       1.0  0.88018  0.22970  0.94515  1.0000
  H   H15       1.0  0.70892  0.75071  0.74902  1.0000
  H   H16       1.0  0.24928  0.29109  0.25098  1.0000
  C   C1        1.0  0.53213  0.82912  0.87858  1.0000
  C   C2        1.0  0.17088  0.46787  0.12142  1.0000
  C   C3        1.0  0.37743  0.70225  0.77818  1.0000
  C   C4        1.0  0.29775  0.62257  0.22182  1.0000
  C   C5        1.0  0.63838  0.00783  0.71599  1.0000
  C   C6        1.0  0.99217  0.36162  0.28401  1.0000
  C   C7        1.0  0.66810  0.92611  0.57542  1.0000
  C   C8        1.0  0.07388  0.33190  0.42459  1.0000
  C   C9        1.0  0.87266  0.92803  0.90400  1.0000
  C   C10       1.0  0.07198  0.12734  0.09600  1.0000
  C   C11       1.0  0.88605  0.11395  0.00000  1.0000
  N   N1        1.0  0.68763  0.87550  0.80989  1.0000
  N   N2        1.0  0.12450  0.31237  0.19011  1.0000
  Cl  Cl1       1.0  0.80548  0.46752  0.79206  1.0000
  Cl  Cl2       1.0  0.53248  0.19452  0.20794  1.0000
  Cl  Cl3       1.0  0.19808  0.16469  0.76961  1.0000
  Cl  Cl4       1.0  0.83531  0.80193  0.23039  1.0000
  O   O1        1.0  0.24605  0.63896  0.82901  1.0000
  O   O2        1.0  0.36104  0.75395  0.17099  1.0000
  O   O3        1.0  0.38839  0.66796  0.65614  1.0000
  O   O4        1.0  0.33204  0.61160  0.34386  1.0000
  O   O5        1.0  0.58652  0.01122  0.48431  1.0000
  O   O6        1.0  0.98878  0.41348  0.51569  1.0000
  O   O7        1.0  0.76702  0.79245  0.55925  1.0000
  O   O8        1.0  0.20755  0.23298  0.44075  1.0000
