data_image0
_chemical_formula_structural       Zn2H40C22I4N4O18
_chemical_formula_sum              "Zn2 H40 C22 I4 N4 O18"
_cell_length_a       7.88671
_cell_length_b       8.04671
_cell_length_c       14.5012
_cell_angle_alpha    89.9993
_cell_angle_beta     90.0004
_cell_angle_gamma    90.0005

_space_group_name_H-M_alt    "P 1"
_space_group_IT_number       1

loop_
  _space_group_symop_operation_xyz
  'x, y, z'

loop_
  _atom_site_type_symbol
  _atom_site_label
  _atom_site_symmetry_multiplicity
  _atom_site_fract_x
  _atom_site_fract_y
  _atom_site_fract_z
  _atom_site_occupancy
  Zn  Zn1       1.0  0.43124  0.72809  0.50000  1.0000
  Zn  Zn2       1.0  0.93123  0.27191  0.00000  1.0000
  H   H1        1.0  0.67373  0.65389  0.83457  1.0000
  H   H2        1.0  0.17373  0.34610  0.66544  1.0000
  H   H3        1.0  0.17373  0.34610  0.33457  1.0000
  H   H4        1.0  0.67374  0.65389  0.16543  1.0000
  H   H5        1.0  0.59704  0.86199  0.84059  1.0000
  H   H6        1.0  0.09704  0.13801  0.65942  1.0000
  H   H7        1.0  0.09703  0.13801  0.34059  1.0000
  H   H8        1.0  0.59705  0.86199  0.15940  1.0000
  H   H9        1.0  0.32467  0.91061  0.77943  1.0000
  H   H10       1.0  0.82466  0.08939  0.72057  1.0000
  H   H11       1.0  0.82465  0.08940  0.27944  1.0000
  H   H12       1.0  0.32468  0.91060  0.22056  1.0000
  H   H13       1.0  0.24435  0.85793  0.88997  1.0000
  H   H14       1.0  0.74434  0.14207  0.61002  1.0000
  H   H15       1.0  0.74435  0.14207  0.38998  1.0000
  H   H16       1.0  0.24435  0.85793  0.11003  1.0000
  H   H17       1.0  0.47891  0.46808  0.90566  1.0000
  H   H18       1.0  0.97892  0.53191  0.59434  1.0000
  H   H19       1.0  0.97893  0.53191  0.40566  1.0000
  H   H20       1.0  0.47891  0.46808  0.09434  1.0000
  H   H21       1.0  0.26372  0.53289  0.91969  1.0000
  H   H22       1.0  0.76373  0.46711  0.58031  1.0000
  H   H23       1.0  0.76373  0.46711  0.41969  1.0000
  H   H24       1.0  0.26372  0.53289  0.08031  1.0000
  H   H25       1.0  0.37608  0.79576  1.00000  1.0000
  H   H26       1.0  0.87608  0.20423  0.50000  1.0000
  H   H27       1.0  0.58024  0.70398  1.00000  1.0000
  H   H28       1.0  0.08025  0.29601  0.50000  1.0000
  H   H29       1.0  0.37691  0.59415  0.77426  1.0000
  H   H30       1.0  0.87691  0.40585  0.72573  1.0000
  H   H31       1.0  0.87692  0.40585  0.27427  1.0000
  H   H32       1.0  0.37693  0.59415  0.22574  1.0000
  H   H33       1.0  0.71753  0.83462  0.55692  1.0000
  H   H34       1.0  0.21752  0.16538  0.94309  1.0000
  H   H35       1.0  0.21753  0.16537  0.05692  1.0000
  H   H36       1.0  0.71754  0.83462  0.44308  1.0000
  H   H37       1.0  0.89321  0.81709  0.72951  1.0000
  H   H38       1.0  0.39321  0.18292  0.77049  1.0000
  H   H39       1.0  0.39320  0.18293  0.22952  1.0000
  H   H40       1.0  0.89322  0.81708  0.27048  1.0000
  C   C1        1.0  0.57979  0.74086  0.80667  1.0000
  C   C2        1.0  0.07978  0.25914  0.69333  1.0000
  C   C3        1.0  0.07978  0.25914  0.30667  1.0000
  C   C4        1.0  0.57980  0.74085  0.19333  1.0000
  C   C5        1.0  0.59803  0.75554  0.70224  1.0000
  C   C6        1.0  0.09801  0.24446  0.79777  1.0000
  C   C7        1.0  0.09802  0.24446  0.20224  1.0000
  C   C8        1.0  0.59806  0.75554  0.29776  1.0000
  C   C9        1.0  0.27434  0.80915  0.82136  1.0000
  C   C10       1.0  0.77434  0.19085  0.67863  1.0000
  C   C11       1.0  0.77434  0.19085  0.32137  1.0000
  C   C12       1.0  0.27435  0.80915  0.17863  1.0000
  C   C13       1.0  0.11598  0.74297  0.77536  1.0000
  C   C14       1.0  0.61597  0.25705  0.72464  1.0000
  C   C15       1.0  0.61597  0.25706  0.27536  1.0000
  C   C16       1.0  0.11598  0.74295  0.22464  1.0000
  C   C17       1.0  0.39568  0.57601  0.91527  1.0000
  C   C18       1.0  0.89569  0.42399  0.58473  1.0000
  C   C19       1.0  0.89569  0.42399  0.41527  1.0000
  C   C20       1.0  0.39568  0.57601  0.08473  1.0000
  C   C21       1.0  0.44372  0.67626  1.00000  1.0000
  C   C22       1.0  0.94373  0.32373  0.50000  1.0000
  I   I1        1.0  0.42639  0.40166  0.50000  1.0000
  I   I2        1.0  0.92640  0.59834  0.00000  1.0000
  I   I3        1.0  0.14054  0.87821  0.50000  1.0000
  I   I4        1.0  0.64052  0.12179  0.00000  1.0000
  N   N1        1.0  0.40591  0.67572  0.82772  1.0000
  N   N2        1.0  0.90591  0.32428  0.67228  1.0000
  N   N3        1.0  0.90591  0.32428  0.32772  1.0000
  N   N4        1.0  0.40592  0.67572  0.17228  1.0000
  O   O1        1.0  0.65323  0.86539  0.50000  1.0000
  O   O2        1.0  0.15322  0.13460  0.00000  1.0000
  O   O3        1.0  0.46747  0.73249  0.65433  1.0000
  O   O4        1.0  0.96747  0.26750  0.84567  1.0000
  O   O5        1.0  0.96747  0.26750  0.15433  1.0000
  O   O6        1.0  0.46747  0.73249  0.34567  1.0000
  O   O7        1.0  0.74599  0.78959  0.67086  1.0000
  O   O8        1.0  0.24600  0.21042  0.82914  1.0000
  O   O9        1.0  0.24599  0.21042  0.17086  1.0000
  O   O10       1.0  0.74599  0.78958  0.32913  1.0000
  O   O11       1.0  0.10543  0.59835  0.74822  1.0000
  O   O12       1.0  0.60543  0.40165  0.75177  1.0000
  O   O13       1.0  0.60543  0.40166  0.24823  1.0000
  O   O14       1.0  0.10544  0.59835  0.25178  1.0000
  O   O15       1.0  0.99942  0.85864  0.76740  1.0000
  O   O16       1.0  0.49940  0.14136  0.73260  1.0000
  O   O17       1.0  0.49941  0.14136  0.26741  1.0000
  O   O18       1.0  0.99942  0.85863  0.23260  1.0000
