data_image0
_chemical_formula_structural       Cu2Ni2H16C24N16O8
_chemical_formula_sum              "Cu2 Ni2 H16 C24 N16 O8"
_cell_length_a       9.19253
_cell_length_b       9.19252
_cell_length_c       10.4566
_cell_angle_alpha    100.529
_cell_angle_beta     100.529
_cell_angle_gamma    92.2666

_space_group_name_H-M_alt    "P 1"
_space_group_IT_number       1

loop_
  _space_group_symop_operation_xyz
  'x, y, z'

loop_
  _atom_site_type_symbol
  _atom_site_label
  _atom_site_symmetry_multiplicity
  _atom_site_fract_x
  _atom_site_fract_y
  _atom_site_fract_z
  _atom_site_occupancy
  Cu  Cu1       1.0  1.00000  1.00000  1.00000  1.0000
  Cu  Cu2       1.0  0.00000  0.00001  0.50000  1.0000
  Ni  Ni1       1.0  0.85122  0.14878  0.25000  1.0000
  Ni  Ni2       1.0  0.14878  0.85122  0.75000  1.0000
  H   H1        1.0  0.06385  0.59106  0.10220  1.0000
  H   H2        1.0  0.40894  0.93616  0.39781  1.0000
  H   H3        1.0  0.93616  0.40894  0.89781  1.0000
  H   H4        1.0  0.59106  0.06384  0.60219  1.0000
  H   H5        1.0  0.03001  0.32941  0.13231  1.0000
  H   H6        1.0  0.67059  0.96999  0.36769  1.0000
  H   H7        1.0  0.97000  0.67059  0.86769  1.0000
  H   H8        1.0  0.32941  0.03000  0.63231  1.0000
  H   H9        1.0  0.71436  0.43765  0.36438  1.0000
  H   H10       1.0  0.56236  0.28565  0.13563  1.0000
  H   H11       1.0  0.28564  0.56235  0.63562  1.0000
  H   H12       1.0  0.43764  0.71435  0.86436  1.0000
  H   H13       1.0  0.73042  0.70193  0.33711  1.0000
  H   H14       1.0  0.29808  0.26959  0.16290  1.0000
  H   H15       1.0  0.26959  0.29807  0.66289  1.0000
  H   H16       1.0  0.70192  0.73040  0.83710  1.0000
  C   C1        1.0  0.98288  0.55998  0.15818  1.0000
  C   C2        1.0  0.44002  0.01712  0.34182  1.0000
  C   C3        1.0  0.01712  0.44002  0.84182  1.0000
  C   C4        1.0  0.55998  0.98288  0.65817  1.0000
  C   C5        1.0  0.96627  0.41518  0.17652  1.0000
  C   C6        1.0  0.58482  0.03373  0.32349  1.0000
  C   C7        1.0  0.03374  0.58482  0.82348  1.0000
  C   C8        1.0  0.41518  0.96626  0.67651  1.0000
  C   C9        1.0  0.78891  0.47495  0.30493  1.0000
  C   C10       1.0  0.52505  0.21109  0.19508  1.0000
  C   C11       1.0  0.21109  0.52505  0.69507  1.0000
  C   C12       1.0  0.47495  0.78890  0.80492  1.0000
  C   C13       1.0  0.89431  0.66527  0.21192  1.0000
  C   C14       1.0  0.33473  0.10569  0.28808  1.0000
  C   C15       1.0  0.10569  0.33473  0.78808  1.0000
  C   C16       1.0  0.66527  0.89431  0.71192  1.0000
  C   C17       1.0  0.90321  0.81904  0.18236  1.0000
  C   C18       1.0  0.18096  0.09680  0.31764  1.0000
  C   C19       1.0  0.09679  0.18096  0.81764  1.0000
  C   C20       1.0  0.81903  0.90320  0.68236  1.0000
  C   C21       1.0  0.79816  0.62225  0.28985  1.0000
  C   C22       1.0  0.37775  0.20184  0.21016  1.0000
  C   C23       1.0  0.20184  0.37774  0.71016  1.0000
  C   C24       1.0  0.62225  0.79815  0.78983  1.0000
  N   N1        1.0  0.86907  0.37160  0.24688  1.0000
  N   N2        1.0  0.62841  0.13093  0.25313  1.0000
  N   N3        1.0  0.13093  0.62840  0.75312  1.0000
  N   N4        1.0  0.37159  0.86907  0.74687  1.0000
  N   N5        1.0  0.81415  0.08910  0.04206  1.0000
  N   N6        1.0  0.91090  0.18586  0.45795  1.0000
  N   N7        1.0  0.18585  0.91090  0.95794  1.0000
  N   N8        1.0  0.08910  0.81415  0.54205  1.0000
  N   N9        1.0  0.75156  0.17359  0.97722  1.0000
  N   N10       1.0  0.82640  0.24845  0.52279  1.0000
  N   N11       1.0  0.24844  0.82641  0.02278  1.0000
  N   N12       1.0  0.17359  0.75156  0.47721  1.0000
  N   N13       1.0  0.68834  0.25435  0.91733  1.0000
  N   N14       1.0  0.74565  0.31166  0.58268  1.0000
  N   N15       1.0  0.31166  0.74567  0.08267  1.0000
  N   N16       1.0  0.25434  0.68834  0.41732  1.0000
  O   O1        1.0  0.95776  0.82889  0.08024  1.0000
  O   O2        1.0  0.17111  0.04226  0.41977  1.0000
  O   O3        1.0  0.04224  0.17111  0.91976  1.0000
  O   O4        1.0  0.82889  0.95776  0.58024  1.0000
  O   O5        1.0  0.85746  0.92219  0.25975  1.0000
  O   O6        1.0  0.07781  0.14254  0.24025  1.0000
  O   O7        1.0  0.14255  0.07781  0.74025  1.0000
  O   O8        1.0  0.92219  0.85746  0.75975  1.0000
