data_image0
_chemical_formula_structural       Cu4H56C52N8Cl4
_chemical_formula_sum              "Cu4 H56 C52 N8 Cl4"
_cell_length_a       6.9691
_cell_length_b       12.4305
_cell_length_c       13.924
_cell_angle_alpha    90
_cell_angle_beta     90
_cell_angle_gamma    90

_space_group_name_H-M_alt    "P 1"
_space_group_IT_number       1

loop_
  _space_group_symop_operation_xyz
  'x, y, z'

loop_
  _atom_site_type_symbol
  _atom_site_label
  _atom_site_symmetry_multiplicity
  _atom_site_fract_x
  _atom_site_fract_y
  _atom_site_fract_z
  _atom_site_occupancy
  Cu  Cu1       1.0  0.10409  0.16596  0.75000  1.0000
  Cu  Cu2       1.0  0.39591  0.66597  0.75000  1.0000
  Cu  Cu3       1.0  0.60409  0.33404  0.25000  1.0000
  Cu  Cu4       1.0  0.89591  0.83403  0.25000  1.0000
  H   H1        1.0  0.15375  0.38226  0.67209  1.0000
  H   H2        1.0  0.34625  0.88226  0.67210  1.0000
  H   H3        1.0  0.15375  0.38226  0.82790  1.0000
  H   H4        1.0  0.65375  0.11774  0.17210  1.0000
  H   H5        1.0  0.84625  0.61773  0.32791  1.0000
  H   H6        1.0  0.65375  0.11774  0.32790  1.0000
  H   H7        1.0  0.84625  0.61774  0.17209  1.0000
  H   H8        1.0  0.34625  0.88226  0.82791  1.0000
  H   H9        1.0  0.14956  0.46729  0.51232  1.0000
  H   H10       1.0  0.35044  0.96729  0.51232  1.0000
  H   H11       1.0  0.14956  0.46729  0.98768  1.0000
  H   H12       1.0  0.64956  0.03271  0.01232  1.0000
  H   H13       1.0  0.85044  0.53271  0.48768  1.0000
  H   H14       1.0  0.64956  0.03271  0.48768  1.0000
  H   H15       1.0  0.85044  0.53271  0.01232  1.0000
  H   H16       1.0  0.35044  0.96729  0.98768  1.0000
  H   H17       1.0  0.08155  0.15127  0.38795  1.0000
  H   H18       1.0  0.41846  0.65128  0.38795  1.0000
  H   H19       1.0  0.08154  0.15128  0.11205  1.0000
  H   H20       1.0  0.58154  0.34872  0.88795  1.0000
  H   H21       1.0  0.91846  0.84873  0.61205  1.0000
  H   H22       1.0  0.58155  0.34873  0.61205  1.0000
  H   H23       1.0  0.91845  0.84872  0.88795  1.0000
  H   H24       1.0  0.41845  0.65128  0.11205  1.0000
  H   H25       1.0  0.08513  0.07821  0.55474  1.0000
  H   H26       1.0  0.41487  0.57821  0.55474  1.0000
  H   H27       1.0  0.08513  0.07821  0.94526  1.0000
  H   H28       1.0  0.58513  0.42179  0.05474  1.0000
  H   H29       1.0  0.91487  0.92179  0.44526  1.0000
  H   H30       1.0  0.58513  0.42179  0.44526  1.0000
  H   H31       1.0  0.91487  0.92179  0.05474  1.0000
  H   H32       1.0  0.41487  0.57821  0.94526  1.0000
  H   H33       1.0  0.22065  0.43166  0.33553  1.0000
  H   H34       1.0  0.27936  0.93167  0.33553  1.0000
  H   H35       1.0  0.22065  0.43166  0.16447  1.0000
  H   H36       1.0  0.72064  0.06833  0.83553  1.0000
  H   H37       1.0  0.77936  0.56833  0.66447  1.0000
  H   H38       1.0  0.72065  0.06833  0.66447  1.0000
  H   H39       1.0  0.77935  0.56833  0.83553  1.0000
  H   H40       1.0  0.27936  0.93167  0.16447  1.0000
  H   H41       1.0  0.96937  0.42005  0.33677  1.0000
  H   H42       1.0  0.53064  0.92005  0.33677  1.0000
  H   H43       1.0  0.96937  0.42005  0.16323  1.0000
  H   H44       1.0  0.46936  0.07995  0.83677  1.0000
  H   H45       1.0  0.03064  0.57995  0.66323  1.0000
  H   H46       1.0  0.46937  0.07995  0.66323  1.0000
  H   H47       1.0  0.03063  0.57995  0.83677  1.0000
  H   H48       1.0  0.53064  0.92005  0.16323  1.0000
  H   H49       1.0  0.24326  0.25279  0.25000  1.0000
  H   H50       1.0  0.25674  0.75279  0.25000  1.0000
  H   H51       1.0  0.74326  0.24721  0.75000  1.0000
  H   H52       1.0  0.75674  0.74721  0.75000  1.0000
  H   H53       1.0  0.99015  0.24362  0.25000  1.0000
  H   H54       1.0  0.50986  0.74362  0.25000  1.0000
  H   H55       1.0  0.49014  0.25638  0.75000  1.0000
  H   H56       1.0  0.00985  0.75638  0.75000  1.0000
  C   C1        1.0  0.13288  0.33339  0.60806  1.0000
  C   C2        1.0  0.36712  0.83339  0.60806  1.0000
  C   C3        1.0  0.13288  0.33339  0.89194  1.0000
  C   C4        1.0  0.63288  0.16661  0.10806  1.0000
  C   C5        1.0  0.86712  0.66661  0.39194  1.0000
  C   C6        1.0  0.63287  0.16661  0.39194  1.0000
  C   C7        1.0  0.86712  0.66661  0.10806  1.0000
  C   C8        1.0  0.36712  0.83339  0.89194  1.0000
  C   C9        1.0  0.13189  0.38045  0.51808  1.0000
  C   C10       1.0  0.36811  0.88045  0.51808  1.0000
  C   C11       1.0  0.13189  0.38045  0.98192  1.0000
  C   C12       1.0  0.63189  0.11955  0.01808  1.0000
  C   C13       1.0  0.86811  0.61955  0.48192  1.0000
  C   C14       1.0  0.63189  0.11955  0.48192  1.0000
  C   C15       1.0  0.86811  0.61955  0.01808  1.0000
  C   C16       1.0  0.36810  0.88045  0.98192  1.0000
  C   C17       1.0  0.11124  0.31757  0.43509  1.0000
  C   C18       1.0  0.38876  0.81757  0.43509  1.0000
  C   C19       1.0  0.11124  0.31757  0.06491  1.0000
  C   C20       1.0  0.61124  0.18243  0.93509  1.0000
  C   C21       1.0  0.88876  0.68243  0.56491  1.0000
  C   C22       1.0  0.61124  0.18243  0.56491  1.0000
  C   C23       1.0  0.88876  0.68243  0.93509  1.0000
  C   C24       1.0  0.38876  0.81757  0.06491  1.0000
  C   C25       1.0  0.09774  0.20616  0.44865  1.0000
  C   C26       1.0  0.40226  0.70616  0.44865  1.0000
  C   C27       1.0  0.09774  0.20616  0.05135  1.0000
  C   C28       1.0  0.59773  0.29384  0.94865  1.0000
  C   C29       1.0  0.90227  0.79384  0.55135  1.0000
  C   C30       1.0  0.59774  0.29384  0.55135  1.0000
  C   C31       1.0  0.90226  0.79384  0.94865  1.0000
  C   C32       1.0  0.40226  0.70616  0.05135  1.0000
  C   C33       1.0  0.09969  0.16438  0.54141  1.0000
  C   C34       1.0  0.40031  0.66439  0.54141  1.0000
  C   C35       1.0  0.09969  0.16439  0.95859  1.0000
  C   C36       1.0  0.59969  0.33562  0.04141  1.0000
  C   C37       1.0  0.90031  0.83562  0.45859  1.0000
  C   C38       1.0  0.59969  0.33562  0.45859  1.0000
  C   C39       1.0  0.90031  0.83561  0.04141  1.0000
  C   C40       1.0  0.40031  0.66439  0.95859  1.0000
  C   C41       1.0  0.10315  0.37221  0.33910  1.0000
  C   C42       1.0  0.39685  0.87221  0.33910  1.0000
  C   C43       1.0  0.10315  0.37221  0.16090  1.0000
  C   C44       1.0  0.60315  0.12779  0.83910  1.0000
  C   C45       1.0  0.89685  0.62779  0.66090  1.0000
  C   C46       1.0  0.60315  0.12779  0.66090  1.0000
  C   C47       1.0  0.89685  0.62779  0.83910  1.0000
  C   C48       1.0  0.39685  0.87221  0.16090  1.0000
  C   C49       1.0  0.11035  0.30110  0.25000  1.0000
  C   C50       1.0  0.38965  0.80110  0.25000  1.0000
  C   C51       1.0  0.61035  0.19890  0.75000  1.0000
  C   C52       1.0  0.88965  0.69890  0.75000  1.0000
  N   N1        1.0  0.11573  0.22585  0.62104  1.0000
  N   N2        1.0  0.38427  0.72585  0.62104  1.0000
  N   N3        1.0  0.11573  0.22585  0.87896  1.0000
  N   N4        1.0  0.61573  0.27414  0.12104  1.0000
  N   N5        1.0  0.88427  0.77415  0.37896  1.0000
  N   N6        1.0  0.61572  0.27415  0.37896  1.0000
  N   N7        1.0  0.88427  0.77414  0.12104  1.0000
  N   N8        1.0  0.38427  0.72585  0.87896  1.0000
  Cl  Cl1       1.0  0.04875  0.98536  0.75000  1.0000
  Cl  Cl2       1.0  0.45125  0.48536  0.75000  1.0000
  Cl  Cl3       1.0  0.54875  0.51464  0.25000  1.0000
  Cl  Cl4       1.0  0.95125  0.01463  0.25000  1.0000
