data_image0
_chemical_formula_structural       Ag4H48C56N12O28
_chemical_formula_sum              "Ag4 H48 C56 N12 O28"
_cell_length_a       7.88977
_cell_length_b       12.8192
_cell_length_c       14.901
_cell_angle_alpha    98.6646
_cell_angle_beta     90
_cell_angle_gamma    90

_space_group_name_H-M_alt    "P 1"
_space_group_IT_number       1

loop_
  _space_group_symop_operation_xyz
  'x, y, z'

loop_
  _atom_site_type_symbol
  _atom_site_label
  _atom_site_symmetry_multiplicity
  _atom_site_fract_x
  _atom_site_fract_y
  _atom_site_fract_z
  _atom_site_occupancy
  Ag  Ag1       1.0  0.33338  0.33352  0.75033  1.0000
  Ag  Ag2       1.0  0.83338  0.16648  0.74967  1.0000
  Ag  Ag3       1.0  0.66662  0.66648  0.24967  1.0000
  Ag  Ag4       1.0  0.16662  0.83352  0.25033  1.0000
  H   H1        1.0  0.79882  0.21789  0.25385  1.0000
  H   H2        1.0  0.29882  0.28211  0.24615  1.0000
  H   H3        1.0  0.20118  0.78211  0.74615  1.0000
  H   H4        1.0  0.70118  0.71789  0.75385  1.0000
  H   H5        1.0  0.92409  0.30752  0.33041  1.0000
  H   H6        1.0  0.42409  0.19248  0.16959  1.0000
  H   H7        1.0  0.07591  0.69248  0.66959  1.0000
  H   H8        1.0  0.57591  0.80752  0.83041  1.0000
  H   H9        1.0  0.84212  0.45660  0.24914  1.0000
  H   H10       1.0  0.34212  0.04340  0.25086  1.0000
  H   H11       1.0  0.15788  0.54340  0.75086  1.0000
  H   H12       1.0  0.65788  0.95660  0.74914  1.0000
  H   H13       1.0  0.93130  0.35097  0.17192  1.0000
  H   H14       1.0  0.43130  0.14903  0.32809  1.0000
  H   H15       1.0  0.06870  0.64903  0.82809  1.0000
  H   H16       1.0  0.56870  0.85097  0.67191  1.0000
  H   H17       1.0  0.60177  0.33176  0.60625  1.0000
  H   H18       1.0  0.10177  0.16824  0.89375  1.0000
  H   H19       1.0  0.39823  0.66824  0.39375  1.0000
  H   H20       1.0  0.89823  0.83176  0.10625  1.0000
  H   H21       1.0  0.08801  0.40059  0.60545  1.0000
  H   H22       1.0  0.58801  0.09941  0.89455  1.0000
  H   H23       1.0  0.91199  0.59941  0.39455  1.0000
  H   H24       1.0  0.41199  0.90059  0.10545  1.0000
  H   H25       1.0  0.09932  0.43091  0.44336  1.0000
  H   H26       1.0  0.59932  0.06909  0.05664  1.0000
  H   H27       1.0  0.90068  0.56909  0.55664  1.0000
  H   H28       1.0  0.40068  0.93091  0.94336  1.0000
  H   H29       1.0  0.37504  0.40822  0.36028  1.0000
  H   H30       1.0  0.87504  0.09177  0.13972  1.0000
  H   H31       1.0  0.62496  0.59178  0.63972  1.0000
  H   H32       1.0  0.12496  0.90823  0.86028  1.0000
  H   H33       1.0  0.60304  0.32946  0.89769  1.0000
  H   H34       1.0  0.10304  0.17054  0.60231  1.0000
  H   H35       1.0  0.39696  0.67054  0.10231  1.0000
  H   H36       1.0  0.89696  0.82946  0.39769  1.0000
  H   H37       1.0  0.08629  0.39108  0.91115  1.0000
  H   H38       1.0  0.58629  0.10892  0.58885  1.0000
  H   H39       1.0  0.91371  0.60892  0.08885  1.0000
  H   H40       1.0  0.41371  0.89108  0.41115  1.0000
  H   H41       1.0  0.09630  0.43983  0.07941  1.0000
  H   H42       1.0  0.59630  0.06017  0.42059  1.0000
  H   H43       1.0  0.90370  0.56017  0.92059  1.0000
  H   H44       1.0  0.40369  0.93983  0.57941  1.0000
  H   H45       1.0  0.37526  0.43206  0.15980  1.0000
  H   H46       1.0  0.87526  0.06794  0.34020  1.0000
  H   H47       1.0  0.62474  0.56794  0.84020  1.0000
  H   H48       1.0  0.12474  0.93206  0.65980  1.0000
  C   C1        1.0  0.67683  0.34429  0.43244  1.0000
  C   C2        1.0  0.17683  0.15571  0.06756  1.0000
  C   C3        1.0  0.32317  0.65571  0.56756  1.0000
  C   C4        1.0  0.82317  0.84429  0.93244  1.0000
  C   C5        1.0  0.81174  0.30011  0.28656  1.0000
  C   C6        1.0  0.31174  0.19989  0.21344  1.0000
  C   C7        1.0  0.18827  0.69989  0.71344  1.0000
  C   C8        1.0  0.68826  0.80011  0.78656  1.0000
  C   C9        1.0  0.82442  0.37425  0.21757  1.0000
  C   C10       1.0  0.32442  0.12575  0.28243  1.0000
  C   C11       1.0  0.17558  0.62575  0.78243  1.0000
  C   C12       1.0  0.67558  0.87425  0.71757  1.0000
  C   C13       1.0  0.67911  0.36777  0.07535  1.0000
  C   C14       1.0  0.17911  0.13223  0.42465  1.0000
  C   C15       1.0  0.32089  0.63223  0.92465  1.0000
  C   C16       1.0  0.82089  0.86777  0.57535  1.0000
  C   C17       1.0  0.50829  0.36341  0.47621  1.0000
  C   C18       1.0  0.00830  0.13659  0.02379  1.0000
  C   C19       1.0  0.49171  0.63659  0.52379  1.0000
  C   C20       1.0  0.99171  0.86341  0.97621  1.0000
  C   C21       1.0  0.49256  0.35167  0.56746  1.0000
  C   C22       1.0  0.99256  0.14833  0.93254  1.0000
  C   C23       1.0  0.50744  0.64833  0.43254  1.0000
  C   C24       1.0  0.00744  0.85167  0.06746  1.0000
  C   C25       1.0  0.20581  0.39124  0.56674  1.0000
  C   C26       1.0  0.70581  0.10876  0.93326  1.0000
  C   C27       1.0  0.79419  0.60876  0.43326  1.0000
  C   C28       1.0  0.29419  0.89124  0.06674  1.0000
  C   C29       1.0  0.21270  0.40716  0.47643  1.0000
  C   C30       1.0  0.71270  0.09284  0.02357  1.0000
  C   C31       1.0  0.78730  0.59284  0.52357  1.0000
  C   C32       1.0  0.28730  0.90716  0.97643  1.0000
  C   C33       1.0  0.36601  0.39318  0.43010  1.0000
  C   C34       1.0  0.86601  0.10682  0.06990  1.0000
  C   C35       1.0  0.63399  0.60682  0.56990  1.0000
  C   C36       1.0  0.13399  0.89318  0.93010  1.0000
  C   C37       1.0  0.50880  0.37548  0.03453  1.0000
  C   C38       1.0  0.00880  0.12452  0.46546  1.0000
  C   C39       1.0  0.49120  0.62452  0.96547  1.0000
  C   C40       1.0  0.99120  0.87548  0.53453  1.0000
  C   C41       1.0  0.49292  0.35224  0.94033  1.0000
  C   C42       1.0  0.99292  0.14776  0.55967  1.0000
  C   C43       1.0  0.50708  0.64776  0.05967  1.0000
  C   C44       1.0  0.00708  0.85224  0.44033  1.0000
  C   C45       1.0  0.20481  0.38811  0.94836  1.0000
  C   C46       1.0  0.70481  0.11189  0.55164  1.0000
  C   C47       1.0  0.79519  0.61188  0.05164  1.0000
  C   C48       1.0  0.29519  0.88811  0.44836  1.0000
  C   C49       1.0  0.21161  0.41478  0.04237  1.0000
  C   C50       1.0  0.71161  0.08522  0.45763  1.0000
  C   C51       1.0  0.78839  0.58522  0.95763  1.0000
  C   C52       1.0  0.28839  0.91478  0.54237  1.0000
  C   C53       1.0  0.36575  0.40919  0.08656  1.0000
  C   C54       1.0  0.86574  0.09081  0.41344  1.0000
  C   C55       1.0  0.63425  0.59081  0.91344  1.0000
  C   C56       1.0  0.13425  0.90919  0.58656  1.0000
  N   N1        1.0  0.34406  0.36486  0.61196  1.0000
  N   N2        1.0  0.84406  0.13514  0.88804  1.0000
  N   N3        1.0  0.65594  0.63514  0.38804  1.0000
  N   N4        1.0  0.15594  0.86486  0.11196  1.0000
  N   N5        1.0  0.34370  0.35883  0.89780  1.0000
  N   N6        1.0  0.84370  0.14117  0.60220  1.0000
  N   N7        1.0  0.65630  0.64117  0.10220  1.0000
  N   N8        1.0  0.15630  0.85883  0.39780  1.0000
  N   N9        1.0  0.33801  0.08850  0.75603  1.0000
  N   N10       1.0  0.83801  0.41150  0.74397  1.0000
  N   N11       1.0  0.66199  0.91150  0.24397  1.0000
  N   N12       1.0  0.16199  0.58850  0.25603  1.0000
  O   O1        1.0  0.81157  0.34573  0.47327  1.0000
  O   O2        1.0  0.31157  0.15427  0.02673  1.0000
  O   O3        1.0  0.18843  0.65427  0.52673  1.0000
  O   O4        1.0  0.68843  0.84573  0.97327  1.0000
  O   O5        1.0  0.66013  0.32354  0.34089  1.0000
  O   O6        1.0  0.16013  0.17646  0.15911  1.0000
  O   O7        1.0  0.33987  0.67646  0.65911  1.0000
  O   O8        1.0  0.83987  0.82354  0.84089  1.0000
  O   O9        1.0  0.66768  0.36914  0.16617  1.0000
  O   O10       1.0  0.16768  0.13086  0.33383  1.0000
  O   O11       1.0  0.33232  0.63086  0.83383  1.0000
  O   O12       1.0  0.83232  0.86914  0.66617  1.0000
  O   O13       1.0  0.81226  0.36169  0.03258  1.0000
  O   O14       1.0  0.31226  0.13831  0.46742  1.0000
  O   O15       1.0  0.18774  0.63831  0.96743  1.0000
  O   O16       1.0  0.68774  0.86169  0.53258  1.0000
  O   O17       1.0  0.20157  0.13814  0.74484  1.0000
  O   O18       1.0  0.70157  0.36186  0.75516  1.0000
  O   O19       1.0  0.79843  0.86186  0.25516  1.0000
  O   O20       1.0  0.29843  0.63814  0.24484  1.0000
  O   O21       1.0  0.33292  0.99699  0.77768  1.0000
  O   O22       1.0  0.83292  0.50301  0.72232  1.0000
  O   O23       1.0  0.66707  0.00301  0.22232  1.0000
  O   O24       1.0  0.16708  0.49699  0.27768  1.0000
  O   O25       1.0  0.47969  0.13291  0.74542  1.0000
  O   O26       1.0  0.97969  0.36709  0.75458  1.0000
  O   O27       1.0  0.52031  0.86709  0.25458  1.0000
  O   O28       1.0  0.02031  0.63291  0.24542  1.0000
