data_image0
_chemical_formula_structural       Ag4H16C24N4O8
_chemical_formula_sum              "Ag4 H16 C24 N4 O8"
_cell_length_a       7.70953
_cell_length_b       8.46043
_cell_length_c       9.14825
_cell_angle_alpha    90.0002
_cell_angle_beta     89.9998
_cell_angle_gamma    97.0246

_space_group_name_H-M_alt    "P 1"
_space_group_IT_number       1

loop_
  _space_group_symop_operation_xyz
  'x, y, z'

loop_
  _atom_site_type_symbol
  _atom_site_label
  _atom_site_symmetry_multiplicity
  _atom_site_fract_x
  _atom_site_fract_y
  _atom_site_fract_z
  _atom_site_occupancy
  Ag  Ag1       1.0  0.44070  0.21839  0.15947  1.0000
  Ag  Ag2       1.0  0.05930  0.78161  0.65947  1.0000
  Ag  Ag3       1.0  0.55930  0.78161  0.84053  1.0000
  Ag  Ag4       1.0  0.94070  0.21839  0.34053  1.0000
  H   H1        1.0  0.67890  0.47018  0.67393  1.0000
  H   H2        1.0  0.82110  0.52982  0.17393  1.0000
  H   H3        1.0  0.32110  0.52982  0.32606  1.0000
  H   H4        1.0  0.17891  0.47018  0.82607  1.0000
  H   H5        1.0  0.65258  0.43548  0.94144  1.0000
  H   H6        1.0  0.84742  0.56453  0.44144  1.0000
  H   H7        1.0  0.34742  0.56452  0.05856  1.0000
  H   H8        1.0  0.15258  0.43548  0.55856  1.0000
  H   H9        1.0  0.30692  0.01811  0.89286  1.0000
  H   H10       1.0  0.19308  0.98189  0.39287  1.0000
  H   H11       1.0  0.69308  0.98189  0.10714  1.0000
  H   H12       1.0  0.80693  0.01811  0.60714  1.0000
  H   H13       1.0  0.32418  0.03843  0.62269  1.0000
  H   H14       1.0  0.17583  0.96157  0.12269  1.0000
  H   H15       1.0  0.67582  0.96157  0.37731  1.0000
  H   H16       1.0  0.82417  0.03843  0.87731  1.0000
  C   C1        1.0  0.51586  0.27372  0.46238  1.0000
  C   C2        1.0  0.98414  0.72628  0.96238  1.0000
  C   C3        1.0  0.48412  0.72628  0.53761  1.0000
  C   C4        1.0  0.01587  0.27372  0.03762  1.0000
  C   C5        1.0  0.50147  0.25728  0.62581  1.0000
  C   C6        1.0  0.99853  0.74272  0.12581  1.0000
  C   C7        1.0  0.49853  0.74271  0.37419  1.0000
  C   C8        1.0  0.00148  0.25728  0.87419  1.0000
  C   C9        1.0  0.59422  0.36913  0.71808  1.0000
  C   C10       1.0  0.90578  0.63087  0.21809  1.0000
  C   C11       1.0  0.40577  0.63087  0.28191  1.0000
  C   C12       1.0  0.09423  0.36913  0.78191  1.0000
  C   C13       1.0  0.57938  0.34998  0.86854  1.0000
  C   C14       1.0  0.92062  0.65002  0.36855  1.0000
  C   C15       1.0  0.42062  0.65002  0.13145  1.0000
  C   C16       1.0  0.07938  0.34998  0.63145  1.0000
  C   C17       1.0  0.38998  0.11623  0.84156  1.0000
  C   C18       1.0  0.11003  0.88377  0.34156  1.0000
  C   C19       1.0  0.61002  0.88377  0.15844  1.0000
  C   C20       1.0  0.88998  0.11622  0.65845  1.0000
  C   C21       1.0  0.39856  0.12870  0.69014  1.0000
  C   C22       1.0  0.10144  0.87129  0.19014  1.0000
  C   C23       1.0  0.60144  0.87129  0.30986  1.0000
  C   C24       1.0  0.89857  0.12870  0.80986  1.0000
  N   N1        1.0  0.47817  0.22597  0.93019  1.0000
  N   N2        1.0  0.02183  0.77403  0.43020  1.0000
  N   N3        1.0  0.52183  0.77403  0.06980  1.0000
  N   N4        1.0  0.97817  0.22597  0.56981  1.0000
  O   O1        1.0  0.39529  0.18960  0.38804  1.0000
  O   O2        1.0  0.10471  0.81040  0.88804  1.0000
  O   O3        1.0  0.60469  0.81039  0.61196  1.0000
  O   O4        1.0  0.89529  0.18961  0.11196  1.0000
  O   O5        1.0  0.64108  0.36352  0.40867  1.0000
  O   O6        1.0  0.85892  0.63648  0.90867  1.0000
  O   O7        1.0  0.35891  0.63648  0.59132  1.0000
  O   O8        1.0  0.14108  0.36352  0.09133  1.0000
