data_image0
_chemical_formula_structural       H12Pd2C8O8
_chemical_formula_sum              "H12 Pd2 C8 O8"
_cell_length_a       5.90267
_cell_length_b       7.29146
_cell_length_c       7.8435
_cell_angle_alpha    98.2699
_cell_angle_beta     90.0009
_cell_angle_gamma    90.0006

_space_group_name_H-M_alt    "P 1"
_space_group_IT_number       1

loop_
  _space_group_symop_operation_xyz
  'x, y, z'

loop_
  _atom_site_type_symbol
  _atom_site_label
  _atom_site_symmetry_multiplicity
  _atom_site_fract_x
  _atom_site_fract_y
  _atom_site_fract_z
  _atom_site_occupancy
  H   H1        1.0  0.25004  0.45128  0.13816  1.0000
  H   H2        1.0  0.74998  0.54871  0.86184  1.0000
  H   H3        1.0  0.09909  0.38898  0.31753  1.0000
  H   H4        1.0  0.40087  0.38894  0.31758  1.0000
  H   H5        1.0  0.90091  0.61103  0.68248  1.0000
  H   H6        1.0  0.59915  0.61105  0.68244  1.0000
  H   H7        1.0  0.25002  0.65687  0.92452  1.0000
  H   H8        1.0  0.74994  0.34313  0.07549  1.0000
  H   H9        1.0  0.09849  0.84846  0.03786  1.0000
  H   H10       1.0  0.40148  0.84848  0.03789  1.0000
  H   H11       1.0  0.90147  0.15155  0.96213  1.0000
  H   H12       1.0  0.59848  0.15153  0.96211  1.0000
  Pd  Pd1       1.0  0.50001  0.99998  0.50001  1.0000
  Pd  Pd2       1.0  0.00002  0.00001  0.50000  1.0000
  C   C1        1.0  0.25006  0.65985  0.35937  1.0000
  C   C2        1.0  0.74997  0.34017  0.64063  1.0000
  C   C3        1.0  0.25000  0.45979  0.27933  1.0000
  C   C4        1.0  0.75001  0.54021  0.72068  1.0000
  C   C5        1.0  0.25001  0.89314  0.79736  1.0000
  C   C6        1.0  0.74995  0.10685  0.20264  1.0000
  C   C7        1.0  0.25000  0.80834  0.96127  1.0000
  C   C8        1.0  0.74996  0.19166  0.03873  1.0000
  O   O1        1.0  0.44426  0.73542  0.38923  1.0000
  O   O2        1.0  0.05577  0.73547  0.38918  1.0000
  O   O3        1.0  0.55577  0.26456  0.61078  1.0000
  O   O4        1.0  0.94427  0.26454  0.61080  1.0000
  O   O5        1.0  0.44401  0.92266  0.73423  1.0000
  O   O6        1.0  0.05605  0.92266  0.73421  1.0000
  O   O7        1.0  0.55602  0.07731  0.26576  1.0000
  O   O8        1.0  0.94397  0.07737  0.26577  1.0000
