data_image0
_chemical_formula_structural       Nd2H44C48N30O16
_chemical_formula_sum              "Nd2 H44 C48 N30 O16"
_cell_length_a       10.682
_cell_length_b       11.9697
_cell_length_c       13.4996
_cell_angle_alpha    94.3639
_cell_angle_beta     101.181
_cell_angle_gamma    113.399

_space_group_name_H-M_alt    "P 1"
_space_group_IT_number       1

loop_
  _space_group_symop_operation_xyz
  'x, y, z'

loop_
  _atom_site_type_symbol
  _atom_site_label
  _atom_site_symmetry_multiplicity
  _atom_site_fract_x
  _atom_site_fract_y
  _atom_site_fract_z
  _atom_site_occupancy
  Nd  Nd1       1.0  0.94779  0.11463  0.41020  1.0000
  Nd  Nd2       1.0  0.05221  0.88537  0.58980  1.0000
  H   H1        1.0  0.04581  0.12857  0.18212  1.0000
  H   H2        1.0  0.95419  0.87143  0.81788  1.0000
  H   H3        1.0  0.63895  0.95716  0.21533  1.0000
  H   H4        1.0  0.36105  0.04283  0.78467  1.0000
  H   H5        1.0  0.00596  0.36418  0.51565  1.0000
  H   H6        1.0  0.99404  0.63582  0.48435  1.0000
  H   H7        1.0  0.98644  0.28707  0.60999  1.0000
  H   H8        1.0  0.01355  0.71293  0.39001  1.0000
  H   H9        1.0  0.23626  0.57047  0.32085  1.0000
  H   H10       1.0  0.76374  0.42953  0.67915  1.0000
  H   H11       1.0  0.32961  0.48829  0.37894  1.0000
  H   H12       1.0  0.67039  0.51171  0.62106  1.0000
  H   H13       1.0  0.00807  0.44116  0.95597  1.0000
  H   H14       1.0  0.99193  0.55884  0.04403  1.0000
  H   H15       1.0  0.93715  0.40524  0.76740  1.0000
  H   H16       1.0  0.06285  0.59476  0.23260  1.0000
  H   H17       1.0  0.14767  0.18276  0.74354  1.0000
  H   H18       1.0  0.85232  0.81723  0.25646  1.0000
  H   H19       1.0  0.23821  0.21808  0.93252  1.0000
  H   H20       1.0  0.76179  0.78192  0.06748  1.0000
  H   H21       1.0  0.61291  0.60444  0.34265  1.0000
  H   H22       1.0  0.38709  0.39556  0.65735  1.0000
  H   H23       1.0  0.53869  0.66924  0.42566  1.0000
  H   H24       1.0  0.46132  0.33075  0.57434  1.0000
  H   H25       1.0  0.20181  0.74375  0.00937  1.0000
  H   H26       1.0  0.79819  0.25625  0.99063  1.0000
  H   H27       1.0  0.13158  0.70515  0.81733  1.0000
  H   H28       1.0  0.86842  0.29485  0.18267  1.0000
  H   H29       1.0  0.42577  0.56591  0.79930  1.0000
  H   H30       1.0  0.57423  0.43410  0.20070  1.0000
  H   H31       1.0  0.50966  0.59991  0.98879  1.0000
  H   H32       1.0  0.49034  0.40009  0.01121  1.0000
  H   H33       1.0  0.77904  0.13443  0.64263  1.0000
  H   H34       1.0  0.22095  0.86556  0.35737  1.0000
  H   H35       1.0  0.64418  0.99114  0.57294  1.0000
  H   H36       1.0  0.35582  0.00886  0.42706  1.0000
  H   H37       1.0  0.53785  0.91832  0.02605  1.0000
  H   H38       1.0  0.46215  0.08168  0.97395  1.0000
  H   H39       1.0  0.96220  0.09498  0.99141  1.0000
  H   H40       1.0  0.03780  0.90501  0.00859  1.0000
  H   H41       1.0  0.75252  0.21250  0.44259  1.0000
  H   H42       1.0  0.24748  0.78750  0.55742  1.0000
  H   H43       1.0  0.62458  0.11210  0.35411  1.0000
  H   H44       1.0  0.37543  0.88790  0.64589  1.0000
  C   C1        1.0  0.93417  0.08285  0.14457  1.0000
  C   C2        1.0  0.06583  0.91715  0.85544  1.0000
  C   C3        1.0  0.70712  0.98693  0.16312  1.0000
  C   C4        1.0  0.29287  0.01307  0.83688  1.0000
  C   C5        1.0  0.11184  0.40698  0.37697  1.0000
  C   C6        1.0  0.88816  0.59302  0.62304  1.0000
  C   C7        1.0  0.23181  0.47841  0.32709  1.0000
  C   C8        1.0  0.76819  0.52159  0.67291  1.0000
  C   C9        1.0  0.18249  0.35534  0.07226  1.0000
  C   C10       1.0  0.81750  0.64466  0.92774  1.0000
  C   C11       1.0  0.13084  0.33318  0.96094  1.0000
  C   C12       1.0  0.86916  0.66682  0.03906  1.0000
  C   C13       1.0  0.04315  0.38428  0.91239  1.0000
  C   C14       1.0  0.95686  0.61573  0.08761  1.0000
  C   C15       1.0  0.00209  0.36307  0.80604  1.0000
  C   C16       1.0  0.99791  0.63693  0.19396  1.0000
  C   C17       1.0  0.12064  0.24149  0.79291  1.0000
  C   C18       1.0  0.87936  0.75852  0.20709  1.0000
  C   C19       1.0  0.16996  0.25983  0.89866  1.0000
  C   C20       1.0  0.83004  0.74017  0.10134  1.0000
  C   C21       1.0  0.73649  0.79830  0.40622  1.0000
  C   C22       1.0  0.26351  0.20170  0.59378  1.0000
  C   C23       1.0  0.59417  0.68553  0.36409  1.0000
  C   C24       1.0  0.40583  0.31447  0.63591  1.0000
  C   C25       1.0  0.40669  0.69708  0.12626  1.0000
  C   C26       1.0  0.59331  0.30293  0.87374  1.0000
  C   C27       1.0  0.36124  0.67418  0.01458  1.0000
  C   C28       1.0  0.63876  0.32582  0.98542  1.0000
  C   C29       1.0  0.25395  0.70451  0.96499  1.0000
  C   C30       1.0  0.74605  0.29549  0.03501  1.0000
  C   C31       1.0  0.21502  0.68271  0.85820  1.0000
  C   C32       1.0  0.78498  0.31730  0.14180  1.0000
  C   C33       1.0  0.37691  0.60457  0.84773  1.0000
  C   C34       1.0  0.62309  0.39544  0.15227  1.0000
  C   C35       1.0  0.42421  0.62303  0.95397  1.0000
  C   C36       1.0  0.57579  0.37698  0.04603  1.0000
  C   C37       1.0  0.84679  0.98714  0.62810  1.0000
  C   C38       1.0  0.15321  0.01285  0.37190  1.0000
  C   C39       1.0  0.73512  0.03399  0.63916  1.0000
  C   C40       1.0  0.26488  0.96601  0.36084  1.0000
  C   C41       1.0  0.69148  0.98920  0.88338  1.0000
  C   C42       1.0  0.30852  0.01079  0.11662  1.0000
  C   C43       1.0  0.74275  0.00436  0.99376  1.0000
  C   C44       1.0  0.25725  0.99564  0.00624  1.0000
  C   C45       1.0  0.65098  0.96459  0.05783  1.0000
  C   C46       1.0  0.34901  0.03541  0.94217  1.0000
  C   C47       1.0  0.88755  0.06357  0.03883  1.0000
  C   C48       1.0  0.11244  0.93643  0.96117  1.0000
  N   N1        1.0  0.84596  0.04564  0.20680  1.0000
  N   N2        1.0  0.15404  0.95435  0.79320  1.0000
  N   N3        1.0  0.15228  0.42412  0.13932  1.0000
  N   N4        1.0  0.84772  0.57588  0.86068  1.0000
  N   N5        1.0  0.22762  0.41889  0.22823  1.0000
  N   N6        1.0  0.77238  0.58111  0.77177  1.0000
  N   N7        1.0  0.30057  0.35135  0.21931  1.0000
  N   N8        1.0  0.69943  0.64865  0.78069  1.0000
  N   N9        1.0  0.27235  0.31025  0.12087  1.0000
  N   N10       1.0  0.72765  0.68975  0.87913  1.0000
  N   N11       1.0  0.03908  0.29293  0.74603  1.0000
  N   N12       1.0  0.96092  0.70707  0.25397  1.0000
  N   N13       1.0  0.49823  0.65961  0.18009  1.0000
  N   N14       1.0  0.50177  0.34039  0.81991  1.0000
  N   N15       1.0  0.50428  0.70024  0.27610  1.0000
  N   N16       1.0  0.49573  0.29976  0.72390  1.0000
  N   N17       1.0  0.42387  0.76074  0.28402  1.0000
  N   N18       1.0  0.57613  0.23926  0.71598  1.0000
  N   N19       1.0  0.36113  0.75921  0.18943  1.0000
  N   N20       1.0  0.63887  0.24079  0.81057  1.0000
  N   N21       1.0  0.27423  0.63310  0.79938  1.0000
  N   N22       1.0  0.72577  0.36691  0.20062  1.0000
  N   N23       1.0  0.77658  0.03729  0.82178  1.0000
  N   N24       1.0  0.22342  0.96271  0.17822  1.0000
  N   N25       1.0  0.68760  0.00378  0.73107  1.0000
  N   N26       1.0  0.31240  0.99622  0.26893  1.0000
  N   N27       1.0  0.55336  0.93780  0.73369  1.0000
  N   N28       1.0  0.44664  0.06220  0.26631  1.0000
  N   N29       1.0  0.55454  0.92848  0.83007  1.0000
  N   N30       1.0  0.44545  0.07152  0.16993  1.0000
  O   O1        1.0  0.81772  0.77740  0.47569  1.0000
  O   O2        1.0  0.18228  0.22260  0.52431  1.0000
  O   O3        1.0  0.85655  0.90251  0.67326  1.0000
  O   O4        1.0  0.14345  0.09749  0.32674  1.0000
  O   O5        1.0  0.11241  0.46578  0.45763  1.0000
  O   O6        1.0  0.88759  0.53422  0.54237  1.0000
  O   O7        1.0  0.02884  0.29605  0.33411  1.0000
  O   O8        1.0  0.97116  0.70395  0.66589  1.0000
  O   O9        1.0  0.75702  0.89674  0.37004  1.0000
  O   O10       1.0  0.24298  0.10327  0.62996  1.0000
  O   O11       1.0  0.92787  0.03830  0.57032  1.0000
  O   O12       1.0  0.07213  0.96170  0.42968  1.0000
  O   O13       1.0  0.94730  0.28339  0.53514  1.0000
  O   O14       1.0  0.05270  0.71661  0.46486  1.0000
  O   O15       1.0  0.71674  0.13054  0.40078  1.0000
  O   O16       1.0  0.28326  0.86946  0.59922  1.0000
