data_image0
_chemical_formula_structural       Zn4H56C32N8O28
_chemical_formula_sum              "Zn4 H56 C32 N8 O28"
_cell_length_a       6.59509
_cell_length_b       11.1844
_cell_length_c       16.2543
_cell_angle_alpha    106.916
_cell_angle_beta     90.002
_cell_angle_gamma    89.9991

_space_group_name_H-M_alt    "P 1"
_space_group_IT_number       1

loop_
  _space_group_symop_operation_xyz
  'x, y, z'

loop_
  _atom_site_type_symbol
  _atom_site_label
  _atom_site_symmetry_multiplicity
  _atom_site_fract_x
  _atom_site_fract_y
  _atom_site_fract_z
  _atom_site_occupancy
  Zn  Zn1       1.0  0.24366  0.70334  0.89830  1.0000
  Zn  Zn2       1.0  0.74365  0.29668  0.60170  1.0000
  Zn  Zn3       1.0  0.75636  0.29667  0.10170  1.0000
  Zn  Zn4       1.0  0.25633  0.70332  0.39830  1.0000
  H   H1        1.0  0.49559  0.36769  0.95337  1.0000
  H   H2        1.0  0.99559  0.63234  0.54662  1.0000
  H   H3        1.0  0.50440  0.63230  0.04663  1.0000
  H   H4        1.0  0.00443  0.36764  0.45337  1.0000
  H   H5        1.0  0.28906  0.28987  0.88931  1.0000
  H   H6        1.0  0.78904  0.71014  0.61069  1.0000
  H   H7        1.0  0.71092  0.71014  0.11069  1.0000
  H   H8        1.0  0.21098  0.28985  0.38931  1.0000
  H   H9        1.0  0.54937  0.07469  0.63497  1.0000
  H   H10       1.0  0.04937  0.92530  0.86505  1.0000
  H   H11       1.0  0.45062  0.92530  0.36503  1.0000
  H   H12       1.0  0.95063  0.07470  0.13495  1.0000
  H   H13       1.0  0.69131  0.02201  0.71082  1.0000
  H   H14       1.0  0.19132  0.97800  0.78918  1.0000
  H   H15       1.0  0.30869  0.97799  0.28917  1.0000
  H   H16       1.0  0.80870  0.02200  0.21082  1.0000
  H   H17       1.0  0.82210  0.36752  0.88549  1.0000
  H   H18       1.0  0.32212  0.63252  0.61449  1.0000
  H   H19       1.0  0.17786  0.63248  0.11451  1.0000
  H   H20       1.0  0.67790  0.36747  0.38551  1.0000
  H   H21       1.0  0.74187  0.41675  0.79634  1.0000
  H   H22       1.0  0.24189  0.58327  0.70366  1.0000
  H   H23       1.0  0.25810  0.58324  0.20367  1.0000
  H   H24       1.0  0.75812  0.41674  0.29634  1.0000
  H   H25       1.0  0.04393  0.29315  0.75343  1.0000
  H   H26       1.0  0.54395  0.70690  0.74655  1.0000
  H   H27       1.0  0.95605  0.70686  0.24657  1.0000
  H   H28       1.0  0.45606  0.29310  0.25345  1.0000
  H   H29       1.0  0.95482  0.17270  0.79546  1.0000
  H   H30       1.0  0.45479  0.82735  0.70454  1.0000
  H   H31       1.0  0.04515  0.82731  0.20454  1.0000
  H   H32       1.0  0.54521  0.17263  0.29547  1.0000
  H   H33       1.0  0.88320  0.01377  0.57918  1.0000
  H   H34       1.0  0.38321  0.98623  0.92082  1.0000
  H   H35       1.0  0.11678  0.98622  0.42081  1.0000
  H   H36       1.0  0.61679  0.01377  0.07918  1.0000
  H   H37       1.0  0.05253  0.04193  0.66793  1.0000
  H   H38       1.0  0.55254  0.95808  0.83208  1.0000
  H   H39       1.0  0.94745  0.95807  0.33207  1.0000
  H   H40       1.0  0.44748  0.04191  0.16792  1.0000
  H   H41       1.0  0.92532  0.59790  0.78966  1.0000
  H   H42       1.0  0.42531  0.40213  0.71033  1.0000
  H   H43       1.0  0.07469  0.40211  0.21034  1.0000
  H   H44       1.0  0.57468  0.59789  0.28967  1.0000
  H   H45       1.0  0.82701  0.66981  0.88236  1.0000
  H   H46       1.0  0.32700  0.33020  0.61764  1.0000
  H   H47       1.0  0.17300  0.33020  0.11763  1.0000
  H   H48       1.0  0.67299  0.66981  0.38237  1.0000
  H   H49       1.0  0.18474  0.92098  0.02585  1.0000
  H   H50       1.0  0.68472  0.07903  0.47415  1.0000
  H   H51       1.0  0.81529  0.07903  0.97415  1.0000
  H   H52       1.0  0.31526  0.92097  0.52585  1.0000
  H   H53       1.0  0.97941  0.85663  0.98952  1.0000
  H   H54       1.0  0.47941  0.14338  0.51049  1.0000
  H   H55       1.0  0.02060  0.14337  0.01049  1.0000
  H   H56       1.0  0.52058  0.85662  0.48951  1.0000
  C   C1        1.0  0.35689  0.47145  0.87692  1.0000
  C   C2        1.0  0.85692  0.52856  0.62308  1.0000
  C   C3        1.0  0.64309  0.52855  0.12309  1.0000
  C   C4        1.0  0.14312  0.47145  0.37693  1.0000
  C   C5        1.0  0.42361  0.34804  0.89000  1.0000
  C   C6        1.0  0.92360  0.65197  0.60999  1.0000
  C   C7        1.0  0.57638  0.65196  0.11000  1.0000
  C   C8        1.0  0.07643  0.34802  0.39001  1.0000
  C   C9        1.0  0.49650  0.17465  0.76413  1.0000
  C   C10       1.0  0.99648  0.82538  0.73587  1.0000
  C   C11       1.0  0.50349  0.82536  0.23587  1.0000
  C   C12       1.0  0.00353  0.17462  0.26412  1.0000
  C   C13       1.0  0.63937  0.10578  0.69398  1.0000
  C   C14       1.0  0.13937  0.89423  0.80603  1.0000
  C   C15       1.0  0.36060  0.89422  0.30602  1.0000
  C   C16       1.0  0.86062  0.10577  0.19397  1.0000
  C   C17       1.0  0.76052  0.33485  0.81985  1.0000
  C   C18       1.0  0.26052  0.66517  0.68014  1.0000
  C   C19       1.0  0.23946  0.66514  0.18015  1.0000
  C   C20       1.0  0.73950  0.33483  0.31986  1.0000
  C   C21       1.0  0.90800  0.24316  0.76396  1.0000
  C   C22       1.0  0.40799  0.75687  0.73603  1.0000
  C   C23       1.0  0.09198  0.75684  0.23603  1.0000
  C   C24       1.0  0.59201  0.24311  0.26397  1.0000
  C   C25       1.0  0.96670  0.08677  0.62708  1.0000
  C   C26       1.0  0.46670  0.91324  0.87292  1.0000
  C   C27       1.0  0.03329  0.91324  0.37292  1.0000
  C   C28       1.0  0.53331  0.08675  0.12708  1.0000
  C   C29       1.0  0.11718  0.14612  0.58005  1.0000
  C   C30       1.0  0.61718  0.85390  0.91994  1.0000
  C   C31       1.0  0.88282  0.85389  0.41995  1.0000
  C   C32       1.0  0.38285  0.14610  0.08006  1.0000
  N   N1        1.0  0.56192  0.27844  0.82392  1.0000
  N   N2        1.0  0.06193  0.72159  0.67608  1.0000
  N   N3        1.0  0.43806  0.72156  0.17608  1.0000
  N   N4        1.0  0.93809  0.27841  0.32393  1.0000
  N   N5        1.0  0.81807  0.17723  0.67894  1.0000
  N   N6        1.0  0.31809  0.82278  0.82106  1.0000
  N   N7        1.0  0.18190  0.82278  0.32107  1.0000
  N   N8        1.0  0.68191  0.17721  0.17894  1.0000
  O   O1        1.0  0.28863  0.55399  0.94321  1.0000
  O   O2        1.0  0.78865  0.44602  0.55678  1.0000
  O   O3        1.0  0.71138  0.44601  0.05679  1.0000
  O   O4        1.0  0.21137  0.55398  0.44323  1.0000
  O   O5        1.0  0.37043  0.49174  0.80430  1.0000
  O   O6        1.0  0.87047  0.50827  0.69568  1.0000
  O   O7        1.0  0.62958  0.50827  0.19570  1.0000
  O   O8        1.0  0.12954  0.49173  0.30432  1.0000
  O   O9        1.0  0.08313  0.25653  0.57685  1.0000
  O   O10       1.0  0.58316  0.74349  0.92317  1.0000
  O   O11       1.0  0.91688  0.74347  0.42315  1.0000
  O   O12       1.0  0.41685  0.25651  0.07684  1.0000
  O   O13       1.0  0.26915  0.08018  0.54543  1.0000
  O   O14       1.0  0.76916  0.91983  0.95457  1.0000
  O   O15       1.0  0.73086  0.91982  0.45457  1.0000
  O   O16       1.0  0.23087  0.08018  0.04543  1.0000
  O   O17       1.0  0.32447  0.12899  0.76630  1.0000
  O   O18       1.0  0.82448  0.87100  0.73370  1.0000
  O   O19       1.0  0.67551  0.87099  0.23370  1.0000
  O   O20       1.0  0.17553  0.12900  0.26629  1.0000
  O   O21       1.0  0.95594  0.64739  0.85085  1.0000
  O   O22       1.0  0.45593  0.35265  0.64914  1.0000
  O   O23       1.0  0.04407  0.35263  0.14915  1.0000
  O   O24       1.0  0.54406  0.64737  0.35086  1.0000
  O   O25       1.0  0.12049  0.83669  0.00462  1.0000
  O   O26       1.0  0.62047  0.16332  0.49538  1.0000
  O   O27       1.0  0.87953  0.16332  0.99538  1.0000
  O   O28       1.0  0.37951  0.83668  0.50463  1.0000
