data_image0
_chemical_formula_structural       Cd6H44C64O32
_chemical_formula_sum              "Cd6 H44 C64 O32"
_cell_length_a       6.7859
_cell_length_b       14.3513
_cell_length_c       17.9199
_cell_angle_alpha    89.9997
_cell_angle_beta     90.0004
_cell_angle_gamma    89.2778

_space_group_name_H-M_alt    "P 1"
_space_group_IT_number       1

loop_
  _space_group_symop_operation_xyz
  'x, y, z'

loop_
  _atom_site_type_symbol
  _atom_site_label
  _atom_site_symmetry_multiplicity
  _atom_site_fract_x
  _atom_site_fract_y
  _atom_site_fract_z
  _atom_site_occupancy
  Cd  Cd1       1.0  1.00000  0.00000  0.50000  1.0000
  Cd  Cd2       1.0  0.50000  1.00000  1.00000  1.0000
  Cd  Cd3       1.0  0.43469  0.14161  0.53231  1.0000
  Cd  Cd4       1.0  0.06531  0.85839  0.03231  1.0000
  Cd  Cd5       1.0  0.56531  0.85839  0.46769  1.0000
  Cd  Cd6       1.0  0.93469  0.14161  0.96769  1.0000
  H   H1        1.0  0.87640  0.98730  0.73962  1.0000
  H   H2        1.0  0.62359  0.01270  0.23961  1.0000
  H   H3        1.0  0.12359  0.01270  0.26039  1.0000
  H   H4        1.0  0.37640  0.98730  0.76039  1.0000
  H   H5        1.0  0.73216  0.79557  0.91481  1.0000
  H   H6        1.0  0.76783  0.20443  0.41482  1.0000
  H   H7        1.0  0.26784  0.20443  0.08518  1.0000
  H   H8        1.0  0.23217  0.79557  0.58519  1.0000
  H   H9        1.0  0.66509  0.71394  0.68431  1.0000
  H   H10       1.0  0.83492  0.28607  0.18431  1.0000
  H   H11       1.0  0.33491  0.28607  0.31569  1.0000
  H   H12       1.0  0.16508  0.71393  0.81569  1.0000
  H   H13       1.0  0.49410  0.69681  0.92058  1.0000
  H   H14       1.0  0.00590  0.30318  0.42058  1.0000
  H   H15       1.0  0.50591  0.30318  0.07942  1.0000
  H   H16       1.0  0.99409  0.69682  0.57942  1.0000
  H   H17       1.0  0.72174  0.63250  0.92545  1.0000
  H   H18       1.0  0.77826  0.36750  0.42545  1.0000
  H   H19       1.0  0.27827  0.36750  0.07455  1.0000
  H   H20       1.0  0.22173  0.63250  0.57455  1.0000
  H   H21       1.0  0.19139  0.62012  0.92776  1.0000
  H   H22       1.0  0.30862  0.37988  0.42776  1.0000
  H   H23       1.0  0.80862  0.37988  0.07224  1.0000
  H   H24       1.0  0.69138  0.62012  0.57224  1.0000
  H   H25       1.0  0.00354  0.47183  0.93789  1.0000
  H   H26       1.0  0.49647  0.52817  0.43789  1.0000
  H   H27       1.0  0.99647  0.52817  0.06211  1.0000
  H   H28       1.0  0.50353  0.47183  0.56211  1.0000
  H   H29       1.0  0.53589  0.31523  0.89250  1.0000
  H   H30       1.0  0.96411  0.68476  0.39251  1.0000
  H   H31       1.0  0.46412  0.68476  0.10749  1.0000
  H   H32       1.0  0.03589  0.31524  0.60749  1.0000
  H   H33       1.0  0.71767  0.46099  0.87702  1.0000
  H   H34       1.0  0.78233  0.53901  0.37703  1.0000
  H   H35       1.0  0.28234  0.53901  0.12297  1.0000
  H   H36       1.0  0.21767  0.46099  0.62297  1.0000
  H   H37       1.0  0.06933  0.11252  0.62577  1.0000
  H   H38       1.0  0.43067  0.88748  0.12577  1.0000
  H   H39       1.0  0.93068  0.88748  0.37423  1.0000
  H   H40       1.0  0.56933  0.11252  0.87423  1.0000
  H   H41       1.0  0.94404  0.17724  0.57035  1.0000
  H   H42       1.0  0.55596  0.82276  0.07036  1.0000
  H   H43       1.0  0.05596  0.82276  0.42965  1.0000
  H   H44       1.0  0.44404  0.17724  0.92965  1.0000
  C   C1        1.0  0.77627  0.85234  0.70347  1.0000
  C   C2        1.0  0.72373  0.14766  0.20347  1.0000
  C   C3        1.0  0.22372  0.14766  0.29653  1.0000
  C   C4        1.0  0.27627  0.85234  0.79653  1.0000
  C   C5        1.0  0.82689  0.91898  0.75690  1.0000
  C   C6        1.0  0.67311  0.08102  0.25690  1.0000
  C   C7        1.0  0.17311  0.08102  0.24310  1.0000
  C   C8        1.0  0.32689  0.91898  0.74310  1.0000
  C   C9        1.0  0.81010  0.89759  0.83245  1.0000
  C   C10       1.0  0.68989  0.10241  0.33245  1.0000
  C   C11       1.0  0.18989  0.10241  0.16755  1.0000
  C   C12       1.0  0.31011  0.89759  0.66756  1.0000
  C   C13       1.0  0.74473  0.80971  0.85538  1.0000
  C   C14       1.0  0.75526  0.19029  0.35538  1.0000
  C   C15       1.0  0.25527  0.19029  0.14462  1.0000
  C   C16       1.0  0.24474  0.80971  0.64462  1.0000
  C   C17       1.0  0.69272  0.74371  0.80167  1.0000
  C   C18       1.0  0.80728  0.25630  0.30168  1.0000
  C   C19       1.0  0.30728  0.25630  0.19833  1.0000
  C   C20       1.0  0.19272  0.74370  0.69833  1.0000
  C   C21       1.0  0.70913  0.76515  0.72559  1.0000
  C   C22       1.0  0.79087  0.23485  0.22559  1.0000
  C   C23       1.0  0.29087  0.23485  0.27441  1.0000
  C   C24       1.0  0.20912  0.76515  0.77441  1.0000
  C   C25       1.0  0.78675  0.87747  0.62253  1.0000
  C   C26       1.0  0.71326  0.12253  0.12253  1.0000
  C   C27       1.0  0.21324  0.12253  0.37747  1.0000
  C   C28       1.0  0.28674  0.87747  0.87747  1.0000
  C   C29       1.0  0.85524  0.97005  0.88874  1.0000
  C   C30       1.0  0.64475  0.02995  0.38874  1.0000
  C   C31       1.0  0.14476  0.02995  0.11126  1.0000
  C   C32       1.0  0.35524  0.97004  0.61126  1.0000
  C   C33       1.0  0.14326  0.29773  0.92980  1.0000
  C   C34       1.0  0.35675  0.70227  0.42980  1.0000
  C   C35       1.0  0.85675  0.70227  0.07020  1.0000
  C   C36       1.0  0.64325  0.29773  0.57020  1.0000
  C   C37       1.0  0.25590  0.38432  0.91572  1.0000
  C   C38       1.0  0.24411  0.61567  0.41572  1.0000
  C   C39       1.0  0.74411  0.61568  0.08428  1.0000
  C   C40       1.0  0.75589  0.38432  0.58428  1.0000
  C   C41       1.0  0.57988  0.63902  0.89577  1.0000
  C   C42       1.0  0.92012  0.36098  0.39577  1.0000
  C   C43       1.0  0.42013  0.36098  0.10423  1.0000
  C   C44       1.0  0.07987  0.63902  0.60423  1.0000
  C   C45       1.0  0.46630  0.55031  0.90075  1.0000
  C   C46       1.0  0.03370  0.44968  0.40075  1.0000
  C   C47       1.0  0.53371  0.44969  0.09925  1.0000
  C   C48       1.0  0.96629  0.55031  0.59925  1.0000
  C   C49       1.0  0.26474  0.55313  0.91770  1.0000
  C   C50       1.0  0.23526  0.44686  0.41770  1.0000
  C   C51       1.0  0.73527  0.44687  0.08230  1.0000
  C   C52       1.0  0.76473  0.55313  0.58230  1.0000
  C   C53       1.0  0.15982  0.47083  0.92414  1.0000
  C   C54       1.0  0.34018  0.52916  0.42415  1.0000
  C   C55       1.0  0.84019  0.52916  0.07585  1.0000
  C   C56       1.0  0.65982  0.47083  0.57585  1.0000
  C   C57       1.0  0.45764  0.38151  0.89850  1.0000
  C   C58       1.0  0.04236  0.61849  0.39850  1.0000
  C   C59       1.0  0.54236  0.61849  0.10150  1.0000
  C   C60       1.0  0.95764  0.38151  0.60150  1.0000
  C   C61       1.0  0.56093  0.46402  0.89030  1.0000
  C   C62       1.0  0.93908  0.53597  0.39031  1.0000
  C   C63       1.0  0.43908  0.53597  0.10969  1.0000
  C   C64       1.0  0.06092  0.46403  0.60969  1.0000
  O   O1        1.0  0.87209  0.95360  0.60641  1.0000
  O   O2        1.0  0.62791  0.04641  0.10641  1.0000
  O   O3        1.0  0.12790  0.04641  0.39359  1.0000
  O   O4        1.0  0.37209  0.95360  0.89359  1.0000
  O   O5        1.0  0.06755  0.13572  0.57462  1.0000
  O   O6        1.0  0.43245  0.86428  0.07462  1.0000
  O   O7        1.0  0.93245  0.86428  0.42538  1.0000
  O   O8        1.0  0.56755  0.13572  0.92538  1.0000
  O   O9        1.0  0.70779  0.82203  0.57591  1.0000
  O   O10       1.0  0.79223  0.17798  0.07591  1.0000
  O   O11       1.0  0.29222  0.17797  0.42409  1.0000
  O   O12       1.0  0.20778  0.82202  0.92409  1.0000
  O   O13       1.0  0.82429  0.95339  0.95898  1.0000
  O   O14       1.0  0.67571  0.04661  0.45898  1.0000
  O   O15       1.0  0.17571  0.04661  0.04102  1.0000
  O   O16       1.0  0.32429  0.95339  0.54102  1.0000
  O   O17       1.0  0.91772  0.04857  0.86661  1.0000
  O   O18       1.0  0.58227  0.95144  0.36661  1.0000
  O   O19       1.0  0.08228  0.95143  0.13339  1.0000
  O   O20       1.0  0.41773  0.04856  0.63339  1.0000
  O   O21       1.0  0.61783  0.65837  0.81791  1.0000
  O   O22       1.0  0.88216  0.34164  0.31791  1.0000
  O   O23       1.0  0.38217  0.34163  0.18209  1.0000
  O   O24       1.0  0.11783  0.65837  0.68209  1.0000
  O   O25       1.0  0.23607  0.21911  0.93867  1.0000
  O   O26       1.0  0.26394  0.78089  0.43867  1.0000
  O   O27       1.0  0.76394  0.78089  0.06133  1.0000
  O   O28       1.0  0.73606  0.21911  0.56133  1.0000
  O   O29       1.0  0.95702  0.30111  0.93615  1.0000
  O   O30       1.0  0.54299  0.69889  0.43615  1.0000
  O   O31       1.0  0.04299  0.69889  0.06385  1.0000
  O   O32       1.0  0.45701  0.30111  0.56385  1.0000
