data_image0
_chemical_formula_structural       H12Pb2C12N16O8
_chemical_formula_sum              "H12 Pb2 C12 N16 O8"
_cell_length_a       8.38413
_cell_length_b       9.28257
_cell_length_c       9.28239
_cell_angle_alpha    68.1757
_cell_angle_beta     66.154
_cell_angle_gamma    66.154

_space_group_name_H-M_alt    "P 1"
_space_group_IT_number       1

loop_
  _space_group_symop_operation_xyz
  'x, y, z'

loop_
  _atom_site_type_symbol
  _atom_site_label
  _atom_site_symmetry_multiplicity
  _atom_site_fract_x
  _atom_site_fract_y
  _atom_site_fract_z
  _atom_site_occupancy
  H   H1        1.0  0.79668  0.89035  0.50456  1.0000
  H   H2        1.0  0.70339  0.49545  0.10963  1.0000
  H   H3        1.0  0.20332  0.10957  0.49549  1.0000
  H   H4        1.0  0.29674  0.50455  0.89027  1.0000
  H   H5        1.0  0.81088  0.08051  0.68290  1.0000
  H   H6        1.0  0.68915  0.31706  0.91949  1.0000
  H   H7        1.0  0.18909  0.91949  0.31714  1.0000
  H   H8        1.0  0.31091  0.68291  0.08051  1.0000
  H   H9        1.0  0.64098  0.06821  0.87715  1.0000
  H   H10       1.0  0.85905  0.12285  0.93183  1.0000
  H   H11       1.0  0.35894  0.93185  0.12285  1.0000
  H   H12       1.0  0.14101  0.87710  0.06818  1.0000
  Pb  Pb1       1.0  0.24996  0.47291  0.52685  1.0000
  Pb  Pb2       1.0  0.74976  0.52708  0.47311  1.0000
  C   C1        1.0  0.73388  0.83790  0.63098  1.0000
  C   C2        1.0  0.76614  0.36906  0.16212  1.0000
  C   C3        1.0  0.26608  0.16206  0.36908  1.0000
  C   C4        1.0  0.23393  0.63095  0.83784  1.0000
  C   C5        1.0  0.67460  0.06525  0.75106  1.0000
  C   C6        1.0  0.82542  0.24894  0.93477  1.0000
  C   C7        1.0  0.32535  0.93478  0.24895  1.0000
  C   C8        1.0  0.17463  0.75102  0.06524  1.0000
  C   C9        1.0  0.53272  0.20564  0.67581  1.0000
  C   C10       1.0  0.96732  0.32415  0.79437  1.0000
  C   C11       1.0  0.46731  0.79442  0.32411  1.0000
  C   C12       1.0  0.03271  0.67580  0.20564  1.0000
  N   N1        1.0  0.69939  0.69587  0.69223  1.0000
  N   N2        1.0  0.80058  0.30783  0.30419  1.0000
  N   N3        1.0  0.30054  0.30411  0.30786  1.0000
  N   N4        1.0  0.19945  0.69220  0.69578  1.0000
  N   N5        1.0  0.61899  0.68069  0.85508  1.0000
  N   N6        1.0  0.88096  0.14499  0.31938  1.0000
  N   N7        1.0  0.38093  0.31933  0.14500  1.0000
  N   N8        1.0  0.11904  0.85503  0.68063  1.0000
  N   N9        1.0  0.60428  0.80773  0.89366  1.0000
  N   N10       1.0  0.89569  0.10640  0.19233  1.0000
  N   N11       1.0  0.39566  0.19231  0.10639  1.0000
  N   N12       1.0  0.10433  0.89359  0.80770  1.0000
  N   N13       1.0  0.67739  0.90719  0.75399  1.0000
  N   N14       1.0  0.82261  0.24604  0.09284  1.0000
  N   N15       1.0  0.32256  0.09282  0.24604  1.0000
  N   N16       1.0  0.17745  0.75394  0.90715  1.0000
  O   O1        1.0  0.51648  0.34704  0.68018  1.0000
  O   O2        1.0  0.98360  0.31975  0.65294  1.0000
  O   O3        1.0  0.48355  0.65298  0.31982  1.0000
  O   O4        1.0  0.01642  0.68022  0.34707  1.0000
  O   O5        1.0  0.05690  0.38491  0.82448  1.0000
  O   O6        1.0  0.44311  0.17552  0.61508  1.0000
  O   O7        1.0  0.94312  0.61506  0.17552  1.0000
  O   O8        1.0  0.55701  0.82458  0.38471  1.0000
