data_image0
_chemical_formula_structural       Zn2H16C24N4O12
_chemical_formula_sum              "Zn2 H16 C24 N4 O12"
_cell_length_a       7.25157
_cell_length_b       7.2516
_cell_length_c       12.5021
_cell_angle_alpha    100.363
_cell_angle_beta     100.363
_cell_angle_gamma    90.3275

_space_group_name_H-M_alt    "P 1"
_space_group_IT_number       1

loop_
  _space_group_symop_operation_xyz
  'x, y, z'

loop_
  _atom_site_type_symbol
  _atom_site_label
  _atom_site_symmetry_multiplicity
  _atom_site_fract_x
  _atom_site_fract_y
  _atom_site_fract_z
  _atom_site_occupancy
  Zn  Zn1       1.0  0.83772  0.16228  0.74999  1.0000
  Zn  Zn2       1.0  0.16227  0.83772  0.25000  1.0000
  H   H1        1.0  0.18792  0.35196  0.43887  1.0000
  H   H2        1.0  0.64806  0.81209  0.06112  1.0000
  H   H3        1.0  0.81208  0.64805  0.56113  1.0000
  H   H4        1.0  0.35195  0.18790  0.93887  1.0000
  H   H5        1.0  0.76959  0.20776  0.51086  1.0000
  H   H6        1.0  0.79225  0.23043  0.98915  1.0000
  H   H7        1.0  0.23040  0.79223  0.48915  1.0000
  H   H8        1.0  0.20775  0.76958  0.01085  1.0000
  H   H9        1.0  0.43111  0.16138  0.74052  1.0000
  H   H10       1.0  0.83861  0.56887  0.75947  1.0000
  H   H11       1.0  0.56887  0.83863  0.25948  1.0000
  H   H12       1.0  0.16139  0.43111  0.24053  1.0000
  H   H13       1.0  0.63111  0.29988  0.35046  1.0000
  H   H14       1.0  0.70016  0.36893  0.14956  1.0000
  H   H15       1.0  0.36889  0.70011  0.64954  1.0000
  H   H16       1.0  0.29986  0.63107  0.85045  1.0000
  C   C1        1.0  0.10664  0.28472  0.63694  1.0000
  C   C2        1.0  0.71531  0.89335  0.86305  1.0000
  C   C3        1.0  0.89334  0.71532  0.36306  1.0000
  C   C4        1.0  0.28469  0.10664  0.13695  1.0000
  C   C5        1.0  0.28623  0.25641  0.59316  1.0000
  C   C6        1.0  0.74359  0.71378  0.90683  1.0000
  C   C7        1.0  0.71376  0.74360  0.40684  1.0000
  C   C8        1.0  0.25643  0.28620  0.09317  1.0000
  C   C9        1.0  0.30498  0.29831  0.49103  1.0000
  C   C10       1.0  0.70170  0.69504  0.00897  1.0000
  C   C11       1.0  0.69503  0.70170  0.50897  1.0000
  C   C12       1.0  0.29830  0.30496  0.99103  1.0000
  C   C13       1.0  0.47961  0.27422  0.45879  1.0000
  C   C14       1.0  0.72580  0.52042  0.04121  1.0000
  C   C15       1.0  0.52039  0.72579  0.54120  1.0000
  C   C16       1.0  0.27421  0.47959  0.95879  1.0000
  C   C17       1.0  0.62990  0.21924  0.53159  1.0000
  C   C18       1.0  0.78076  0.37010  0.96840  1.0000
  C   C19       1.0  0.37008  0.78076  0.46840  1.0000
  C   C20       1.0  0.21924  0.62989  0.03160  1.0000
  C   C21       1.0  0.44048  0.19642  0.66054  1.0000
  C   C22       1.0  0.80357  0.55952  0.83946  1.0000
  C   C23       1.0  0.55951  0.80358  0.33946  1.0000
  C   C24       1.0  0.19643  0.44045  0.16054  1.0000
  N   N1        1.0  0.60983  0.18383  0.63093  1.0000
  N   N2        1.0  0.81617  0.39017  0.86907  1.0000
  N   N3        1.0  0.39016  0.81617  0.36907  1.0000
  N   N4        1.0  0.18383  0.60982  0.13093  1.0000
  O   O1        1.0  0.05798  0.14533  0.67931  1.0000
  O   O2        1.0  0.85470  0.94200  0.82068  1.0000
  O   O3        1.0  0.94201  0.85470  0.32069  1.0000
  O   O4        1.0  0.14531  0.05798  0.17931  1.0000
  O   O5        1.0  0.02237  0.43317  0.63131  1.0000
  O   O6        1.0  0.56687  0.97764  0.86868  1.0000
  O   O7        1.0  0.97762  0.56685  0.36869  1.0000
  O   O8        1.0  0.43316  0.02235  0.13132  1.0000
  O   O9        1.0  0.49994  0.31096  0.35851  1.0000
  O   O10       1.0  0.68903  0.50009  0.14150  1.0000
  O   O11       1.0  0.50006  0.68903  0.64150  1.0000
  O   O12       1.0  0.31097  0.49992  0.85850  1.0000
