data_image0
_chemical_formula_structural       Cd4H36C16O28
_chemical_formula_sum              "Cd4 H36 C16 O28"
_cell_length_a       7.00336
_cell_length_b       8.41987
_cell_length_c       13.8762
_cell_angle_alpha    89.9994
_cell_angle_beta     90.0006
_cell_angle_gamma    100.014

_space_group_name_H-M_alt    "P 1"
_space_group_IT_number       1

loop_
  _space_group_symop_operation_xyz
  'x, y, z'

loop_
  _atom_site_type_symbol
  _atom_site_label
  _atom_site_symmetry_multiplicity
  _atom_site_fract_x
  _atom_site_fract_y
  _atom_site_fract_z
  _atom_site_occupancy
  Cd  Cd1       1.0  0.09990  0.45702  0.82190  1.0000
  Cd  Cd2       1.0  0.40009  0.04297  0.32190  1.0000
  Cd  Cd3       1.0  0.90009  0.54298  0.17810  1.0000
  Cd  Cd4       1.0  0.59990  0.95702  0.67809  1.0000
  H   H1        1.0  0.70253  0.33364  0.87747  1.0000
  H   H2        1.0  0.79745  0.16636  0.37747  1.0000
  H   H3        1.0  0.29747  0.66636  0.12253  1.0000
  H   H4        1.0  0.20253  0.83364  0.62253  1.0000
  H   H5        1.0  0.75384  0.50589  0.93642  1.0000
  H   H6        1.0  0.74615  0.99411  0.43642  1.0000
  H   H7        1.0  0.24615  0.49410  0.06358  1.0000
  H   H8        1.0  0.25384  0.00589  0.56358  1.0000
  H   H9        1.0  0.17609  0.67025  0.96933  1.0000
  H   H10       1.0  0.32390  0.82975  0.46933  1.0000
  H   H11       1.0  0.82390  0.32975  0.03067  1.0000
  H   H12       1.0  0.67608  0.17025  0.53067  1.0000
  H   H13       1.0  0.26726  0.77157  0.87516  1.0000
  H   H14       1.0  0.23274  0.72843  0.37516  1.0000
  H   H15       1.0  0.73274  0.22843  0.12484  1.0000
  H   H16       1.0  0.76725  0.27157  0.62484  1.0000
  H   H17       1.0  0.45573  0.34822  0.75618  1.0000
  H   H18       1.0  0.04427  0.15179  0.25619  1.0000
  H   H19       1.0  0.54427  0.65180  0.24381  1.0000
  H   H20       1.0  0.95572  0.84821  0.74381  1.0000
  H   H21       1.0  0.47676  0.52154  0.70383  1.0000
  H   H22       1.0  0.02323  0.97847  0.20383  1.0000
  H   H23       1.0  0.52323  0.47848  0.29617  1.0000
  H   H24       1.0  0.97677  0.02153  0.79617  1.0000
  H   H25       1.0  0.15768  0.95698  0.96957  1.0000
  H   H26       1.0  0.34232  0.54302  0.46957  1.0000
  H   H27       1.0  0.84235  0.04302  0.03043  1.0000
  H   H28       1.0  0.65766  0.45699  0.53042  1.0000
  H   H29       1.0  0.22601  0.08878  0.06994  1.0000
  H   H30       1.0  0.27400  0.41121  0.56993  1.0000
  H   H31       1.0  0.77402  0.91122  0.93007  1.0000
  H   H32       1.0  0.72600  0.58879  0.43006  1.0000
  H   H33       1.0  0.54425  0.18495  0.99651  1.0000
  H   H34       1.0  0.95575  0.31504  0.49652  1.0000
  H   H35       1.0  0.45578  0.81504  0.00349  1.0000
  H   H36       1.0  0.04424  0.68495  0.50348  1.0000
  C   C1        1.0  0.18963  0.21020  0.93755  1.0000
  C   C2        1.0  0.31036  0.28980  0.43754  1.0000
  C   C3        1.0  0.81040  0.78981  0.06246  1.0000
  C   C4        1.0  0.68963  0.71021  0.56245  1.0000
  C   C5        1.0  0.24654  0.07074  0.99247  1.0000
  C   C6        1.0  0.25347  0.42925  0.49246  1.0000
  C   C7        1.0  0.75349  0.92925  0.00754  1.0000
  C   C8        1.0  0.74653  0.57075  0.50753  1.0000
  C   C9        1.0  0.46326  0.06832  0.97279  1.0000
  C   C10       1.0  0.03674  0.43167  0.47279  1.0000
  C   C11       1.0  0.53676  0.93166  0.02721  1.0000
  C   C12       1.0  0.96325  0.56834  0.52721  1.0000
  C   C13       1.0  0.49576  0.05418  0.86489  1.0000
  C   C14       1.0  0.00424  0.44582  0.36489  1.0000
  C   C15       1.0  0.50425  0.94580  0.13511  1.0000
  C   C16       1.0  0.99575  0.55419  0.63511  1.0000
  O   O1        1.0  0.09239  0.18241  0.85900  1.0000
  O   O2        1.0  0.40760  0.31759  0.35899  1.0000
  O   O3        1.0  0.90763  0.81760  0.14100  1.0000
  O   O4        1.0  0.59237  0.68242  0.64099  1.0000
  O   O5        1.0  0.24979  0.35305  0.96656  1.0000
  O   O6        1.0  0.25022  0.14695  0.46656  1.0000
  O   O7        1.0  0.75023  0.64694  0.03344  1.0000
  O   O8        1.0  0.74981  0.85307  0.53344  1.0000
  O   O9        1.0  0.57806  0.17637  0.81748  1.0000
  O   O10       1.0  0.92191  0.32361  0.31748  1.0000
  O   O11       1.0  0.42194  0.82361  0.18252  1.0000
  O   O12       1.0  0.07805  0.67639  0.68251  1.0000
  O   O13       1.0  0.43932  0.91718  0.82457  1.0000
  O   O14       1.0  0.06069  0.58281  0.32457  1.0000
  O   O15       1.0  0.56071  0.08281  0.17543  1.0000
  O   O16       1.0  0.93931  0.41719  0.67543  1.0000
  O   O17       1.0  0.80379  0.40909  0.91411  1.0000
  O   O18       1.0  0.69619  0.09091  0.41412  1.0000
  O   O19       1.0  0.19620  0.59091  0.08588  1.0000
  O   O20       1.0  0.30379  0.90909  0.58588  1.0000
  O   O21       1.0  0.15267  0.69560  0.90060  1.0000
  O   O22       1.0  0.34732  0.80439  0.40060  1.0000
  O   O23       1.0  0.84732  0.30440  0.09940  1.0000
  O   O24       1.0  0.65267  0.19560  0.59940  1.0000
  O   O25       1.0  0.38772  0.43696  0.74016  1.0000
  O   O26       1.0  0.11228  0.06306  0.24015  1.0000
  O   O27       1.0  0.61229  0.56307  0.25986  1.0000
  O   O28       1.0  0.88771  0.93694  0.75986  1.0000
