data_image0
_chemical_formula_structural       Mn4H28C24N36O4
_chemical_formula_sum              "Mn4 H28 C24 N36 O4"
_cell_length_a       10.0089
_cell_length_b       9.97632
_cell_length_c       11.2099
_cell_angle_alpha    109.513
_cell_angle_beta     90.0785
_cell_angle_gamma    89.864

_space_group_name_H-M_alt    "P 1"
_space_group_IT_number       1

loop_
  _space_group_symop_operation_xyz
  'x, y, z'

loop_
  _atom_site_type_symbol
  _atom_site_label
  _atom_site_symmetry_multiplicity
  _atom_site_fract_x
  _atom_site_fract_y
  _atom_site_fract_z
  _atom_site_occupancy
  Mn  Mn1       1.0  0.11019  0.38406  0.52528  1.0000
  Mn  Mn2       1.0  0.38845  0.88276  0.52533  1.0000
  Mn  Mn3       1.0  0.89259  0.61501  0.47379  1.0000
  Mn  Mn4       1.0  0.60880  0.11632  0.47376  1.0000
  H   H1        1.0  0.88457  0.26603  0.62492  1.0000
  H   H2        1.0  0.61512  0.76530  0.62502  1.0000
  H   H3        1.0  0.11631  0.73532  0.37505  1.0000
  H   H4        1.0  0.38412  0.23605  0.37494  1.0000
  H   H5        1.0  0.78544  0.24188  0.92437  1.0000
  H   H6        1.0  0.71560  0.74184  0.92464  1.0000
  H   H7        1.0  0.21525  0.75799  0.07489  1.0000
  H   H8        1.0  0.28378  0.25789  0.07454  1.0000
  H   H9        1.0  0.81114  0.14985  0.75834  1.0000
  H   H10       1.0  0.68922  0.64980  0.75874  1.0000
  H   H11       1.0  0.18937  0.85111  0.24064  1.0000
  H   H12       1.0  0.31025  0.35112  0.24018  1.0000
  H   H13       1.0  0.75493  0.33120  0.81195  1.0000
  H   H14       1.0  0.74540  0.83089  0.81203  1.0000
  H   H15       1.0  0.24601  0.66985  0.18811  1.0000
  H   H16       1.0  0.25376  0.17007  0.18801  1.0000
  H   H17       1.0  0.14112  0.39211  0.99562  1.0000
  H   H18       1.0  0.35890  0.89131  0.99579  1.0000
  H   H19       1.0  0.85931  0.60798  0.00435  1.0000
  H   H20       1.0  0.64057  0.10873  0.00406  1.0000
  H   H21       1.0  0.50420  0.51869  0.88898  1.0000
  H   H22       1.0  0.99541  0.01910  0.88921  1.0000
  H   H23       1.0  0.49671  0.48137  0.11201  1.0000
  H   H24       1.0  0.00364  0.98094  0.11151  1.0000
  H   H25       1.0  0.41338  0.47083  0.66534  1.0000
  H   H26       1.0  0.08626  0.97199  0.66575  1.0000
  H   H27       1.0  0.58844  0.52883  0.33537  1.0000
  H   H28       1.0  0.91205  0.02765  0.33468  1.0000
  C   C1        1.0  0.81697  0.25249  0.83497  1.0000
  C   C2        1.0  0.68361  0.75249  0.83532  1.0000
  C   C3        1.0  0.18377  0.74806  0.16453  1.0000
  C   C4        1.0  0.31570  0.24798  0.16415  1.0000
  C   C5        1.0  0.01901  0.32441  0.76052  1.0000
  C   C6        1.0  0.48103  0.82428  0.76094  1.0000
  C   C7        1.0  0.98198  0.67595  0.23922  1.0000
  C   C8        1.0  0.51804  0.17604  0.23878  1.0000
  C   C9        1.0  0.15512  0.38039  0.79937  1.0000
  C   C10       1.0  0.34484  0.88052  0.79976  1.0000
  C   C11       1.0  0.84594  0.61961  0.20061  1.0000
  C   C12       1.0  0.65411  0.11941  0.20009  1.0000
  C   C13       1.0  0.20384  0.40954  0.92254  1.0000
  C   C14       1.0  0.29611  0.90920  0.92277  1.0000
  C   C15       1.0  0.79688  0.59045  0.07757  1.0000
  C   C16       1.0  0.70311  0.09074  0.07719  1.0000
  C   C17       1.0  0.40250  0.48048  0.86296  1.0000
  C   C18       1.0  0.09717  0.98072  0.86321  1.0000
  C   C19       1.0  0.59847  0.51950  0.13771  1.0000
  C   C20       1.0  0.90181  0.01917  0.13721  1.0000
  C   C21       1.0  0.35366  0.45340  0.74015  1.0000
  C   C22       1.0  0.14599  0.95405  0.74052  1.0000
  C   C23       1.0  0.64770  0.54647  0.26036  1.0000
  C   C24       1.0  0.85266  0.04569  0.25975  1.0000
  N   N1        1.0  0.97982  0.30499  0.64654  1.0000
  N   N2        1.0  0.51966  0.80396  0.64673  1.0000
  N   N3        1.0  0.02129  0.69581  0.35326  1.0000
  N   N4        1.0  0.47931  0.19677  0.35305  1.0000
  N   N5        1.0  0.22995  0.40332  0.70855  1.0000
  N   N6        1.0  0.26989  0.90413  0.70911  1.0000
  N   N7        1.0  0.77144  0.59660  0.29161  1.0000
  N   N8        1.0  0.72877  0.09574  0.29090  1.0000
  N   N9        1.0  0.32749  0.45950  0.95439  1.0000
  N   N10       1.0  0.17233  0.95926  0.95455  1.0000
  N   N11       1.0  0.67314  0.54056  0.04610  1.0000
  N   N12       1.0  0.82696  0.04073  0.04574  1.0000
  N   N13       1.0  0.02466  0.60015  0.62144  1.0000
  N   N14       1.0  0.47635  0.09896  0.62042  1.0000
  N   N15       1.0  0.97624  0.39958  0.37857  1.0000
  N   N16       1.0  0.52275  0.90070  0.37957  1.0000
  N   N17       1.0  0.00129  0.63653  0.73358  1.0000
  N   N18       1.0  0.49933  0.13595  0.73273  1.0000
  N   N19       1.0  0.99909  0.36294  0.26631  1.0000
  N   N20       1.0  0.50024  0.86354  0.26713  1.0000
  N   N21       1.0  0.98150  0.66897  0.84213  1.0000
  N   N22       1.0  0.51890  0.16886  0.84140  1.0000
  N   N23       1.0  0.01852  0.33021  0.15769  1.0000
  N   N24       1.0  0.48099  0.83049  0.15841  1.0000
  N   N25       1.0  0.17428  0.17524  0.41571  1.0000
  N   N26       1.0  0.32650  0.67444  0.41489  1.0000
  N   N27       1.0  0.82510  0.82503  0.58615  1.0000
  N   N28       1.0  0.67395  0.32588  0.58714  1.0000
  N   N29       1.0  0.19347  0.07360  0.44580  1.0000
  N   N30       1.0  0.30616  0.57322  0.44519  1.0000
  N   N31       1.0  0.80663  0.92584  0.55476  1.0000
  N   N32       1.0  0.69368  0.42623  0.55550  1.0000
  N   N33       1.0  0.21160  0.96977  0.47265  1.0000
  N   N34       1.0  0.28692  0.46980  0.47220  1.0000
  N   N35       1.0  0.78932  0.02873  0.52648  1.0000
  N   N36       1.0  0.71218  0.52866  0.52700  1.0000
  O   O1        1.0  0.95388  0.30023  0.85539  1.0000
  O   O2        1.0  0.54674  0.80082  0.85605  1.0000
  O   O3        1.0  0.04696  0.69996  0.14424  1.0000
  O   O4        1.0  0.45247  0.19935  0.14357  1.0000
