data_image0
_chemical_formula_structural       CoH36C40N8Cl2
_chemical_formula_sum              "Co1 H36 C40 N8 Cl2"
_cell_length_a       7.7427
_cell_length_b       9.09703
_cell_length_c       12.5543
_cell_angle_alpha    103.302
_cell_angle_beta     105.053
_cell_angle_gamma    91.4088

_space_group_name_H-M_alt    "P 1"
_space_group_IT_number       1

loop_
  _space_group_symop_operation_xyz
  'x, y, z'

loop_
  _atom_site_type_symbol
  _atom_site_label
  _atom_site_symmetry_multiplicity
  _atom_site_fract_x
  _atom_site_fract_y
  _atom_site_fract_z
  _atom_site_occupancy
  Co  Co1       1.0  0.00001  0.49999  0.50000  1.0000
  H   H1        1.0  0.69211  0.33611  0.77829  1.0000
  H   H2        1.0  0.30788  0.66392  0.22172  1.0000
  H   H3        1.0  0.98097  0.36548  0.92900  1.0000
  H   H4        1.0  0.01904  0.63454  0.07101  1.0000
  H   H5        1.0  0.78297  0.01099  0.05408  1.0000
  H   H6        1.0  0.21703  0.98904  0.94592  1.0000
  H   H7        1.0  0.49446  0.97951  0.90145  1.0000
  H   H8        1.0  0.50555  0.02048  0.09855  1.0000
  H   H9        1.0  0.38788  0.23309  0.69584  1.0000
  H   H10       1.0  0.61209  0.76691  0.30416  1.0000
  H   H11       1.0  0.10066  0.16680  0.62099  1.0000
  H   H12       1.0  0.89934  0.83319  0.37901  1.0000
  H   H13       1.0  0.02033  0.18184  0.74157  1.0000
  H   H14       1.0  0.97966  0.81815  0.25843  1.0000
  H   H15       1.0  0.16336  0.80977  0.61724  1.0000
  H   H16       1.0  0.83665  0.19023  0.38276  1.0000
  H   H17       1.0  0.72351  0.08861  0.61853  1.0000
  H   H18       1.0  0.27648  0.91136  0.38146  1.0000
  H   H19       1.0  0.51217  0.84676  0.52473  1.0000
  H   H20       1.0  0.48782  0.15322  0.47527  1.0000
  H   H21       1.0  0.64140  0.60361  0.48666  1.0000
  H   H22       1.0  0.35861  0.39637  0.51333  1.0000
  H   H23       1.0  0.06005  0.13804  0.15499  1.0000
  H   H24       1.0  0.93995  0.86197  0.84501  1.0000
  H   H25       1.0  0.33763  0.21533  0.24809  1.0000
  H   H26       1.0  0.66239  0.78465  0.75191  1.0000
  H   H27       1.0  0.29110  0.40653  0.28850  1.0000
  H   H28       1.0  0.70890  0.59345  0.71150  1.0000
  H   H29       1.0  0.62101  0.37489  0.40023  1.0000
  H   H30       1.0  0.37902  0.62511  0.59977  1.0000
  H   H31       1.0  0.46043  0.40027  0.05049  1.0000
  H   H32       1.0  0.53956  0.59972  0.94951  1.0000
  H   H33       1.0  0.77857  0.50542  0.07882  1.0000
  H   H34       1.0  0.22142  0.49458  0.92117  1.0000
  H   H35       1.0  0.99993  0.54275  0.26952  1.0000
  H   H36       1.0  0.00008  0.45727  0.73047  1.0000
  C   C1        1.0  0.57278  0.15816  0.83261  1.0000
  C   C2        1.0  0.42721  0.84186  0.16739  1.0000
  C   C3        1.0  0.71233  0.26462  0.83866  1.0000
  C   C4        1.0  0.28767  0.73540  0.16134  1.0000
  C   C5        1.0  0.87467  0.28002  0.92163  1.0000
  C   C6        1.0  0.12533  0.72000  0.07838  1.0000
  C   C7        1.0  0.90079  0.19053  0.00102  1.0000
  C   C8        1.0  0.09922  0.80950  0.99899  1.0000
  C   C9        1.0  0.76335  0.08045  0.99227  1.0000
  C   C10       1.0  0.23666  0.91956  0.00773  1.0000
  C   C11       1.0  0.60209  0.06345  0.90839  1.0000
  C   C12       1.0  0.39791  0.93657  0.09161  1.0000
  C   C13       1.0  0.39612  0.15673  0.75370  1.0000
  C   C14       1.0  0.60387  0.84327  0.24630  1.0000
  C   C15       1.0  0.08594  0.10567  0.68521  1.0000
  C   C16       1.0  0.91404  0.89431  0.31479  1.0000
  C   C17       1.0  0.02027  0.82258  0.59955  1.0000
  C   C18       1.0  0.97973  0.17741  0.40045  1.0000
  C   C19       1.0  0.95881  0.96522  0.62799  1.0000
  C   C20       1.0  0.04118  0.03477  0.37201  1.0000
  C   C21       1.0  0.77340  0.97730  0.59957  1.0000
  C   C22       1.0  0.22658  0.02268  0.40043  1.0000
  C   C23       1.0  0.65800  0.84646  0.54742  1.0000
  C   C24       1.0  0.34200  0.15352  0.45258  1.0000
  C   C25       1.0  0.72942  0.70771  0.52385  1.0000
  C   C26       1.0  0.27058  0.29227  0.47616  1.0000
  C   C27       1.0  0.06177  0.21203  0.09651  1.0000
  C   C28       1.0  0.93823  0.78798  0.90349  1.0000
  C   C29       1.0  0.33118  0.32328  0.22152  1.0000
  C   C30       1.0  0.66883  0.67672  0.77849  1.0000
  C   C31       1.0  0.64994  0.40397  0.32664  1.0000
  C   C32       1.0  0.35007  0.59603  0.67336  1.0000
  C   C33       1.0  0.51625  0.38069  0.22369  1.0000
  C   C34       1.0  0.48376  0.61930  0.77631  1.0000
  C   C35       1.0  0.56143  0.41727  0.13193  1.0000
  C   C36       1.0  0.43857  0.58272  0.86807  1.0000
  C   C37       1.0  0.73702  0.47580  0.14829  1.0000
  C   C38       1.0  0.26297  0.52421  0.85171  1.0000
  C   C39       1.0  0.86219  0.49640  0.25365  1.0000
  C   C40       1.0  0.13781  0.50361  0.74635  1.0000
  N   N1        1.0  0.25683  0.07902  0.75549  1.0000
  N   N2        1.0  0.74316  0.92097  0.24451  1.0000
  N   N3        1.0  0.19428  0.31088  0.11571  1.0000
  N   N4        1.0  0.80573  0.68912  0.88430  1.0000
  N   N5        1.0  0.90810  0.69485  0.54720  1.0000
  N   N6        1.0  0.09190  0.30515  0.45279  1.0000
  N   N7        1.0  0.82003  0.46204  0.34387  1.0000
  N   N8        1.0  0.17998  0.53796  0.65613  1.0000
  Cl  Cl1       1.0  0.76063  0.36390  0.57861  1.0000
  Cl  Cl2       1.0  0.23938  0.63609  0.42139  1.0000
