data_image0
_chemical_formula_structural       CoH36C42S2N10
_chemical_formula_sum              "Co1 H36 C42 S2 N10"
_cell_length_a       9.48113
_cell_length_b       9.98596
_cell_length_c       10.35
_cell_angle_alpha    92.3629
_cell_angle_beta     100.773
_cell_angle_gamma    109.783

_space_group_name_H-M_alt    "P 1"
_space_group_IT_number       1

loop_
  _space_group_symop_operation_xyz
  'x, y, z'

loop_
  _atom_site_type_symbol
  _atom_site_label
  _atom_site_symmetry_multiplicity
  _atom_site_fract_x
  _atom_site_fract_y
  _atom_site_fract_z
  _atom_site_occupancy
  Co  Co1       1.0  0.50000  0.00000  0.50000  1.0000
  H   H1        1.0  0.22717  0.38824  0.01752  1.0000
  H   H2        1.0  0.77283  0.61177  0.98249  1.0000
  H   H3        1.0  0.69873  0.62496  0.20117  1.0000
  H   H4        1.0  0.30127  0.37504  0.79884  1.0000
  H   H5        1.0  0.50920  0.58988  0.33138  1.0000
  H   H6        1.0  0.49080  0.41011  0.66863  1.0000
  H   H7        1.0  0.15858  0.47544  0.40059  1.0000
  H   H8        1.0  0.84142  0.52455  0.59942  1.0000
  H   H9        1.0  0.35771  0.53741  0.47288  1.0000
  H   H10       1.0  0.64229  0.46259  0.52713  1.0000
  H   H11       1.0  0.41065  0.25472  0.38949  1.0000
  H   H12       1.0  0.58935  0.74528  0.61051  1.0000
  H   H13       1.0  0.06422  0.33240  0.56518  1.0000
  H   H14       1.0  0.93578  0.66759  0.43483  1.0000
  H   H15       1.0  0.04094  0.10612  0.67677  1.0000
  H   H16       1.0  0.95906  0.89387  0.32323  1.0000
  H   H17       1.0  0.20653  0.96884  0.63524  1.0000
  H   H18       1.0  0.79348  0.03116  0.36477  1.0000
  H   H19       1.0  0.13802  0.18135  0.19530  1.0000
  H   H20       1.0  0.86198  0.81865  0.80471  1.0000
  H   H21       1.0  0.14726  0.92977  0.85079  1.0000
  H   H22       1.0  0.85273  0.07023  0.14921  1.0000
  H   H23       1.0  0.38004  0.19511  0.15274  1.0000
  H   H24       1.0  0.61996  0.80490  0.84726  1.0000
  H   H25       1.0  0.61973  0.12061  0.07748  1.0000
  H   H26       1.0  0.38027  0.87938  0.92251  1.0000
  H   H27       1.0  0.60719  0.29222  0.06791  1.0000
  H   H28       1.0  0.39281  0.70778  0.93209  1.0000
  H   H29       1.0  0.44601  0.05292  0.76231  1.0000
  H   H30       1.0  0.55399  0.94709  0.23768  1.0000
  H   H31       1.0  0.87038  0.34418  0.99786  1.0000
  H   H32       1.0  0.12962  0.65582  0.00214  1.0000
  H   H33       1.0  0.98661  0.34275  0.79789  1.0000
  H   H34       1.0  0.01340  0.65725  0.20211  1.0000
  H   H35       1.0  0.82390  0.19158  0.58967  1.0000
  H   H36       1.0  0.17611  0.80842  0.41033  1.0000
  C   C1        1.0  0.45836  0.50686  0.12261  1.0000
  C   C2        1.0  0.54164  0.49314  0.87739  1.0000
  C   C3        1.0  0.30180  0.76131  0.63179  1.0000
  C   C4        1.0  0.69819  0.23867  0.36820  1.0000
  C   C5        1.0  0.34612  0.43698  0.00854  1.0000
  C   C6        1.0  0.65388  0.56303  0.99147  1.0000
  C   C7        1.0  0.61230  0.57024  0.11245  1.0000
  C   C8        1.0  0.38770  0.42975  0.88756  1.0000
  C   C9        1.0  0.41942  0.51371  0.25244  1.0000
  C   C10       1.0  0.58058  0.48629  0.74756  1.0000
  C   C11       1.0  0.26332  0.44935  0.40664  1.0000
  C   C12       1.0  0.73668  0.55064  0.59336  1.0000
  C   C13       1.0  0.32685  0.22646  0.45227  1.0000
  C   C14       1.0  0.67315  0.77354  0.54773  1.0000
  C   C15       1.0  0.23960  0.31159  0.46937  1.0000
  C   C16       1.0  0.76040  0.68841  0.53064  1.0000
  C   C17       1.0  0.13394  0.26794  0.55095  1.0000
  C   C18       1.0  0.86606  0.73206  0.44906  1.0000
  C   C19       1.0  0.12143  0.14409  0.61223  1.0000
  C   C20       1.0  0.87857  0.85591  0.38778  1.0000
  C   C21       1.0  0.21424  0.06693  0.58976  1.0000
  C   C22       1.0  0.78576  0.93307  0.41024  1.0000
  C   C23       1.0  0.16070  0.06160  0.02663  1.0000
  C   C24       1.0  0.83930  0.93840  0.97337  1.0000
  C   C25       1.0  0.07688  0.09962  0.11133  1.0000
  C   C26       1.0  0.92311  0.90038  0.88867  1.0000
  C   C27       1.0  0.08200  0.96096  0.91505  1.0000
  C   C28       1.0  0.91799  0.03905  0.08495  1.0000
  C   C29       1.0  0.32775  0.12952  0.05588  1.0000
  C   C30       1.0  0.67225  0.87048  0.94412  1.0000
  C   C31       1.0  0.57262  0.18634  0.01085  1.0000
  C   C32       1.0  0.42737  0.81367  0.98914  1.0000
  C   C33       1.0  0.56595  0.11778  0.77289  1.0000
  C   C34       1.0  0.43405  0.88222  0.22710  1.0000
  C   C35       1.0  0.64794  0.19733  0.89401  1.0000
  C   C36       1.0  0.35206  0.80268  0.10598  1.0000
  C   C37       1.0  0.80237  0.28063  0.90448  1.0000
  C   C38       1.0  0.19762  0.71938  0.09552  1.0000
  C   C39       1.0  0.86686  0.27911  0.79434  1.0000
  C   C40       1.0  0.13315  0.72089  0.20566  1.0000
  C   C41       1.0  0.77740  0.19533  0.67733  1.0000
  C   C42       1.0  0.22260  0.80467  0.32266  1.0000
  S   S1        1.0  0.16789  0.63874  0.68150  1.0000
  S   S2        1.0  0.83210  0.36126  0.31848  1.0000
  N   N1        1.0  0.39819  0.85319  0.59460  1.0000
  N   N2        1.0  0.60181  0.14681  0.40540  1.0000
  N   N3        1.0  0.28997  0.43527  0.27436  1.0000
  N   N4        1.0  0.71003  0.56473  0.72564  1.0000
  N   N5        1.0  0.31594  0.10697  0.51140  1.0000
  N   N6        1.0  0.68406  0.89303  0.48861  1.0000
  N   N7        1.0  0.40783  0.11588  0.97289  1.0000
  N   N8        1.0  0.59216  0.88413  0.02711  1.0000
  N   N9        1.0  0.62786  0.11569  0.66583  1.0000
  N   N10       1.0  0.37215  0.88431  0.33417  1.0000
