data_image0
_chemical_formula_structural       Cd2H48C66N16O12
_chemical_formula_sum              "Cd2 H48 C66 N16 O12"
_cell_length_a       9.96194
_cell_length_b       9.96069
_cell_length_c       16.5322
_cell_angle_alpha    101.668
_cell_angle_beta     107.349
_cell_angle_gamma    93.172

_space_group_name_H-M_alt    "P 1"
_space_group_IT_number       1

loop_
  _space_group_symop_operation_xyz
  'x, y, z'

loop_
  _atom_site_type_symbol
  _atom_site_label
  _atom_site_symmetry_multiplicity
  _atom_site_fract_x
  _atom_site_fract_y
  _atom_site_fract_z
  _atom_site_occupancy
  Cd  Cd1       1.0  0.58421  0.36465  0.08046  1.0000
  Cd  Cd2       1.0  0.41579  0.63535  0.91954  1.0000
  H   H1        1.0  0.48520  0.07625  0.10496  1.0000
  H   H2        1.0  0.51480  0.92375  0.89505  1.0000
  H   H3        1.0  0.44965  0.95607  0.21611  1.0000
  H   H4        1.0  0.55035  0.04392  0.78390  1.0000
  H   H5        1.0  0.54101  0.08202  0.37449  1.0000
  H   H6        1.0  0.45900  0.91798  0.62551  1.0000
  H   H7        1.0  0.69023  0.43012  0.29438  1.0000
  H   H8        1.0  0.30977  0.56988  0.70562  1.0000
  H   H9        1.0  0.67100  0.28817  0.48661  1.0000
  H   H10       1.0  0.32900  0.71183  0.51339  1.0000
  H   H11       1.0  0.59040  0.44299  0.57341  1.0000
  H   H12       1.0  0.40960  0.55701  0.42659  1.0000
  H   H13       1.0  0.64723  0.58892  0.72218  1.0000
  H   H14       1.0  0.35277  0.41108  0.27781  1.0000
  H   H15       1.0  0.83305  0.79383  0.77307  1.0000
  H   H16       1.0  0.16694  0.20618  0.22692  1.0000
  H   H17       1.0  0.13749  0.99851  0.64354  1.0000
  H   H18       1.0  0.86252  0.00148  0.35646  1.0000
  H   H19       1.0  0.09383  0.84051  0.49874  1.0000
  H   H20       1.0  0.90617  0.15948  0.50126  1.0000
  H   H21       1.0  0.91846  0.62928  0.45164  1.0000
  H   H22       1.0  0.08154  0.37072  0.54835  1.0000
  H   H23       1.0  0.23111  0.00250  0.78753  1.0000
  H   H24       1.0  0.76888  0.99750  0.21247  1.0000
  H   H25       1.0  0.95892  0.07755  0.90919  1.0000
  H   H26       1.0  0.04108  0.92244  0.09081  1.0000
  H   H27       1.0  0.02803  0.23359  0.05651  1.0000
  H   H28       1.0  0.97197  0.76641  0.94349  1.0000
  H   H29       1.0  0.27975  0.35160  0.12338  1.0000
  H   H30       1.0  0.72025  0.64840  0.87662  1.0000
  H   H31       1.0  0.38525  0.17217  0.90577  1.0000
  H   H32       1.0  0.61474  0.82784  0.09422  1.0000
  H   H33       1.0  0.85982  0.47238  0.04715  1.0000
  H   H34       1.0  0.14018  0.52762  0.95286  1.0000
  H   H35       1.0  0.09692  0.61476  0.12145  1.0000
  H   H36       1.0  0.90308  0.38523  0.87855  1.0000
  H   H37       1.0  0.95752  0.75476  0.34375  1.0000
  H   H38       1.0  0.04249  0.24524  0.65625  1.0000
  H   H39       1.0  0.72051  0.61773  0.25703  1.0000
  H   H40       1.0  0.27949  0.38227  0.74298  1.0000
  H   H41       1.0  0.25830  0.76625  0.24255  1.0000
  H   H42       1.0  0.74170  0.23375  0.75745  1.0000
  H   H43       1.0  0.21334  0.02922  0.46888  1.0000
  H   H44       1.0  0.78666  0.97079  0.53112  1.0000
  H   H45       1.0  0.29352  0.22880  0.59635  1.0000
  H   H46       1.0  0.70648  0.77120  0.40365  1.0000
  H   H47       1.0  0.45117  0.70144  0.32443  1.0000
  H   H48       1.0  0.54883  0.29856  0.67558  1.0000
  C   C1        1.0  0.52333  0.12784  0.17377  1.0000
  C   C2        1.0  0.47667  0.87215  0.82623  1.0000
  C   C3        1.0  0.50470  0.06090  0.23663  1.0000
  C   C4        1.0  0.49530  0.93909  0.76338  1.0000
  C   C5        1.0  0.55518  0.13068  0.32379  1.0000
  C   C6        1.0  0.44483  0.86932  0.67621  1.0000
  C   C7        1.0  0.62330  0.26624  0.34621  1.0000
  C   C8        1.0  0.37670  0.73376  0.65379  1.0000
  C   C9        1.0  0.63801  0.32508  0.27876  1.0000
  C   C10       1.0  0.36199  0.67492  0.72124  1.0000
  C   C11       1.0  0.67394  0.34538  0.43647  1.0000
  C   C12       1.0  0.32606  0.65462  0.56352  1.0000
  C   C13       1.0  0.75210  0.55226  0.54122  1.0000
  C   C14       1.0  0.24790  0.44774  0.45878  1.0000
  C   C15       1.0  0.67725  0.52701  0.59668  1.0000
  C   C16       1.0  0.32275  0.47300  0.40332  1.0000
  C   C17       1.0  0.70787  0.61222  0.68054  1.0000
  C   C18       1.0  0.29212  0.38779  0.31946  1.0000
  C   C19       1.0  0.81069  0.72530  0.70905  1.0000
  C   C20       1.0  0.18931  0.27471  0.29094  1.0000
  C   C21       1.0  0.88689  0.75689  0.65387  1.0000
  C   C22       1.0  0.11310  0.24311  0.34613  1.0000
  C   C23       1.0  0.99169  0.87601  0.68104  1.0000
  C   C24       1.0  0.00830  0.12399  0.31896  1.0000
  C   C25       1.0  0.06190  0.90528  0.62409  1.0000
  C   C26       1.0  0.93810  0.09471  0.37591  1.0000
  C   C27       1.0  0.03565  0.81650  0.54156  1.0000
  C   C28       1.0  0.96436  0.18350  0.45844  1.0000
  C   C29       1.0  0.93813  0.69942  0.51488  1.0000
  C   C30       1.0  0.06187  0.30057  0.48512  1.0000
  C   C31       1.0  0.85988  0.66884  0.56918  1.0000
  C   C32       1.0  0.14012  0.33116  0.43081  1.0000
  C   C33       1.0  0.13788  0.02074  0.80953  1.0000
  C   C34       1.0  0.86211  0.97926  0.19046  1.0000
  C   C35       1.0  0.16656  0.11339  0.89492  1.0000
  C   C36       1.0  0.83344  0.88661  0.10508  1.0000
  C   C37       1.0  0.06576  0.13194  0.93874  1.0000
  C   C38       1.0  0.93423  0.86806  0.06126  1.0000
  C   C39       1.0  0.10501  0.21864  0.02139  1.0000
  C   C40       1.0  0.89499  0.78135  0.97861  1.0000
  C   C41       1.0  0.24366  0.28415  0.05819  1.0000
  C   C42       1.0  0.75634  0.71585  0.94181  1.0000
  C   C43       1.0  0.30288  0.18439  0.93678  1.0000
  C   C44       1.0  0.69712  0.81561  0.06322  1.0000
  C   C45       1.0  0.88494  0.53748  0.11240  1.0000
  C   C46       1.0  0.11506  0.46252  0.88760  1.0000
  C   C47       1.0  0.01688  0.61494  0.15428  1.0000
  C   C48       1.0  0.98312  0.38507  0.84572  1.0000
  C   C49       1.0  0.04757  0.69228  0.23991  1.0000
  C   C50       1.0  0.95243  0.30772  0.76009  1.0000
  C   C51       1.0  0.93909  0.69357  0.27806  1.0000
  C   C52       1.0  0.06091  0.30643  0.72195  1.0000
  C   C53       1.0  0.80883  0.61652  0.23073  1.0000
  C   C54       1.0  0.19117  0.38348  0.76928  1.0000
  C   C55       1.0  0.19053  0.76451  0.28419  1.0000
  C   C56       1.0  0.80948  0.23549  0.71581  1.0000
  C   C57       1.0  0.38197  0.86337  0.40486  1.0000
  C   C58       1.0  0.61803  0.13663  0.59514  1.0000
  C   C59       1.0  0.42554  0.98030  0.47766  1.0000
  C   C60       1.0  0.57446  0.01971  0.52234  1.0000
  C   C61       1.0  0.32550  0.05746  0.50526  1.0000
  C   C62       1.0  0.67450  0.94255  0.49475  1.0000
  C   C63       1.0  0.37076  0.16835  0.57630  1.0000
  C   C64       1.0  0.62924  0.83165  0.42371  1.0000
  C   C65       1.0  0.48407  0.79190  0.37870  1.0000
  C   C66       1.0  0.51593  0.20811  0.62130  1.0000
  N   N1        1.0  0.58925  0.25822  0.19496  1.0000
  N   N2        1.0  0.41076  0.74178  0.80504  1.0000
  N   N3        1.0  0.71813  0.47529  0.45572  1.0000
  N   N4        1.0  0.28187  0.52471  0.54428  1.0000
  N   N5        1.0  0.01308  0.96093  0.76328  1.0000
  N   N6        1.0  0.98692  0.03907  0.23672  1.0000
  N   N7        1.0  0.34116  0.26792  0.01648  1.0000
  N   N8        1.0  0.65884  0.73208  0.98352  1.0000
  N   N9        1.0  0.78230  0.53620  0.14988  1.0000
  N   N10       1.0  0.21770  0.46380  0.85012  1.0000
  N   N11       1.0  0.23715  0.81688  0.36676  1.0000
  N   N12       1.0  0.76285  0.18312  0.63323  1.0000
  N   N13       1.0  0.72223  0.14410  0.00074  1.0000
  N   N14       1.0  0.27777  0.85590  0.99926  1.0000
  N   N15       1.0  0.42282  0.61413  0.13235  1.0000
  N   N16       1.0  0.57718  0.38586  0.86765  1.0000
  O   O1        1.0  0.58961  0.13279  0.99238  1.0000
  O   O2        1.0  0.41039  0.86721  0.00762  1.0000
  O   O3        1.0  0.77061  0.05630  0.95587  1.0000
  O   O4        1.0  0.22939  0.94369  0.04413  1.0000
  O   O5        1.0  0.80117  0.24795  0.05665  1.0000
  O   O6        1.0  0.19884  0.75205  0.94335  1.0000
  O   O7        1.0  0.45672  0.57170  0.06263  1.0000
  O   O8        1.0  0.54329  0.42830  0.93737  1.0000
  O   O9        1.0  0.46940  0.55575  0.19476  1.0000
  O   O10       1.0  0.53059  0.44425  0.80524  1.0000
  O   O11       1.0  0.34621  0.70864  0.13604  1.0000
  O   O12       1.0  0.65379  0.29136  0.86395  1.0000
