data_image0
_chemical_formula_structural       Cu4H32C32N4O12
_chemical_formula_sum              "Cu4 H32 C32 N4 O12"
_cell_length_a       10.542
_cell_length_b       10.5447
_cell_length_c       10.5409
_cell_angle_alpha    67.8471
_cell_angle_beta     75.769
_cell_angle_gamma    112.175

_space_group_name_H-M_alt    "P 1"
_space_group_IT_number       1

loop_
  _space_group_symop_operation_xyz
  'x, y, z'

loop_
  _atom_site_type_symbol
  _atom_site_label
  _atom_site_symmetry_multiplicity
  _atom_site_fract_x
  _atom_site_fract_y
  _atom_site_fract_z
  _atom_site_occupancy
  Cu  Cu1       1.0  0.30046  0.72441  0.20624  1.0000
  Cu  Cu2       1.0  0.07089  0.27706  0.42502  1.0000
  Cu  Cu3       1.0  0.20600  0.50541  0.06958  1.0000
  Cu  Cu4       1.0  0.42383  0.49448  0.29907  1.0000
  H   H1        1.0  0.13632  0.89992  0.23692  1.0000
  H   H2        1.0  0.86322  0.10046  0.76409  1.0000
  H   H3        1.0  0.23710  0.37255  0.86358  1.0000
  H   H4        1.0  0.76399  0.62676  0.13618  1.0000
  H   H5        1.0  0.97729  0.90036  0.45756  1.0000
  H   H6        1.0  0.64172  0.09982  0.92325  1.0000
  H   H7        1.0  0.45785  0.43489  0.64196  1.0000
  H   H8        1.0  0.92326  0.56495  0.97725  1.0000
  H   H9        1.0  0.93757  0.72230  0.72286  1.0000
  H   H10       1.0  0.55482  0.27779  0.78443  1.0000
  H   H11       1.0  0.72298  0.66078  0.55471  1.0000
  H   H12       1.0  0.78460  0.33943  0.93771  1.0000
  H   H13       1.0  0.06639  0.56273  0.75307  1.0000
  H   H14       1.0  0.68441  0.43708  0.49590  1.0000
  H   H15       1.0  0.75291  0.81970  0.68423  1.0000
  H   H16       1.0  0.49602  0.18031  0.06689  1.0000
  H   H17       1.0  0.36052  0.62817  0.51187  1.0000
  H   H18       1.0  0.85883  0.37250  0.26763  1.0000
  H   H19       1.0  0.51396  0.87360  0.85859  1.0000
  H   H20       1.0  0.26747  0.12748  0.36062  1.0000
  H   H21       1.0  0.18418  0.44058  0.62255  1.0000
  H   H22       1.0  0.93906  0.56000  0.25627  1.0000
  H   H23       1.0  0.62145  0.80490  0.93863  1.0000
  H   H24       1.0  0.25636  0.19360  0.18423  1.0000
  H   H25       1.0  0.36611  0.09963  0.75043  1.0000
  H   H26       1.0  0.15055  0.90052  0.73386  1.0000
  H   H27       1.0  0.74995  0.11616  0.14986  1.0000
  H   H28       1.0  0.73348  0.88415  0.36552  1.0000
  H   H29       1.0  0.22846  0.08340  0.89842  1.0000
  H   H30       1.0  0.01865  0.91691  0.85494  1.0000
  H   H31       1.0  0.89789  0.12649  0.01796  1.0000
  H   H32       1.0  0.85437  0.87325  0.22797  1.0000
  C   C1        1.0  0.11551  0.82715  0.35420  1.0000
  C   C2        1.0  0.81871  0.17310  0.71194  1.0000
  C   C3        1.0  0.35430  0.46925  0.81893  1.0000
  C   C4        1.0  0.71187  0.53025  0.11551  1.0000
  C   C5        1.0  0.02693  0.82507  0.47752  1.0000
  C   C6        1.0  0.69733  0.17510  0.79823  1.0000
  C   C7        1.0  0.47764  0.50435  0.69747  1.0000
  C   C8        1.0  0.79827  0.49545  0.02695  1.0000
  C   C9        1.0  0.00746  0.72798  0.62340  1.0000
  C   C10       1.0  0.64867  0.27214  0.72033  1.0000
  C   C11       1.0  0.62345  0.63098  0.64859  1.0000
  C   C12       1.0  0.72047  0.36902  0.00760  1.0000
  C   C13       1.0  0.07801  0.63848  0.64099  1.0000
  C   C14       1.0  0.72075  0.36151  0.56020  1.0000
  C   C15       1.0  0.64091  0.71905  0.72059  1.0000
  C   C16       1.0  0.56034  0.28084  0.07834  1.0000
  C   C17       1.0  0.16626  0.64727  0.51165  1.0000
  C   C18       1.0  0.84141  0.35276  0.48088  1.0000
  C   C19       1.0  0.51153  0.67775  0.84131  1.0000
  C   C20       1.0  0.48098  0.32207  0.16650  1.0000
  C   C21       1.0  0.24993  0.55840  0.51393  1.0000
  C   C22       1.0  0.92791  0.44125  0.30837  1.0000
  C   C23       1.0  0.51369  0.76386  0.92768  1.0000
  C   C24       1.0  0.30837  0.23616  0.25014  1.0000
  C   C25       1.0  0.23817  0.86986  0.95668  1.0000
  C   C26       1.0  0.17463  0.13044  0.63156  1.0000
  C   C27       1.0  0.95622  0.19428  0.17343  1.0000
  C   C28       1.0  0.63079  0.80556  0.23822  1.0000
  C   C29       1.0  0.24718  0.01827  0.84242  1.0000
  C   C30       1.0  0.13991  0.98195  0.77126  1.0000
  C   C31       1.0  0.84187  0.08918  0.13915  1.0000
  C   C32       1.0  0.77069  0.91076  0.24669  1.0000
  N   N1        1.0  0.18315  0.74040  0.37139  1.0000
  N   N2        1.0  0.88851  0.25979  0.55745  1.0000
  N   N3        1.0  0.37131  0.55401  0.88862  1.0000
  N   N4        1.0  0.55738  0.44553  0.18319  1.0000
  O   O1        1.0  0.27137  0.53850  0.38763  1.0000
  O   O2        1.0  0.07294  0.45818  0.26706  1.0000
  O   O3        1.0  0.38564  0.66010  0.07271  1.0000
  O   O4        1.0  0.26704  0.34081  0.27186  1.0000
  O   O5        1.0  0.30048  0.89505  0.04360  1.0000
  O   O6        1.0  0.06242  0.10596  0.59462  1.0000
  O   O7        1.0  0.04318  0.34359  0.06131  1.0000
  O   O8        1.0  0.59391  0.65652  0.29960  1.0000
  O   O9        1.0  0.17718  0.74141  0.95811  1.0000
  O   O10       1.0  0.30215  0.25852  0.56343  1.0000
  O   O11       1.0  0.95781  0.13475  0.30032  1.0000
  O   O12       1.0  0.56245  0.86485  0.17859  1.0000
