data_image0
_chemical_formula_structural       V8P4H36C48N8O30
_chemical_formula_sum              "V8 P4 H36 C48 N8 O30"
_cell_length_a       9.82659
_cell_length_b       10.0468
_cell_length_c       14.9118
_cell_angle_alpha    103.015
_cell_angle_beta     89.9997
_cell_angle_gamma    90.0004

_space_group_name_H-M_alt    "P 1"
_space_group_IT_number       1

loop_
  _space_group_symop_operation_xyz
  'x, y, z'

loop_
  _atom_site_type_symbol
  _atom_site_label
  _atom_site_symmetry_multiplicity
  _atom_site_fract_x
  _atom_site_fract_y
  _atom_site_fract_z
  _atom_site_occupancy
  V   V1        1.0  0.41793  0.21860  0.95680  1.0000
  V   V2        1.0  0.58207  0.21860  0.45680  1.0000
  V   V3        1.0  0.58207  0.78140  0.04320  1.0000
  V   V4        1.0  0.41793  0.78140  0.54320  1.0000
  V   V5        1.0  0.32330  0.32462  0.75445  1.0000
  V   V6        1.0  0.67670  0.32462  0.25445  1.0000
  V   V7        1.0  0.67670  0.67537  0.24555  1.0000
  V   V8        1.0  0.32331  0.67537  0.74555  1.0000
  P   P1        1.0  0.52583  0.90487  0.86103  1.0000
  P   P2        1.0  0.47418  0.90487  0.36103  1.0000
  P   P3        1.0  0.47418  0.09513  0.13897  1.0000
  P   P4        1.0  0.52583  0.09513  0.63897  1.0000
  H   H1        1.0  0.58339  0.88333  0.71927  1.0000
  H   H2        1.0  0.41662  0.88333  0.21928  1.0000
  H   H3        1.0  0.41662  0.11667  0.28072  1.0000
  H   H4        1.0  0.58338  0.11667  0.78072  1.0000
  H   H5        1.0  0.45692  0.48967  0.09646  1.0000
  H   H6        1.0  0.54308  0.48968  0.59646  1.0000
  H   H7        1.0  0.54308  0.51033  0.90353  1.0000
  H   H8        1.0  0.45691  0.51033  0.40353  1.0000
  H   H9        1.0  0.31267  0.66257  0.20063  1.0000
  H   H10       1.0  0.68733  0.66258  0.70063  1.0000
  H   H11       1.0  0.68733  0.33742  0.79937  1.0000
  H   H12       1.0  0.31266  0.33742  0.29937  1.0000
  H   H13       1.0  0.05810  0.63114  0.19885  1.0000
  H   H14       1.0  0.94190  0.63115  0.69884  1.0000
  H   H15       1.0  0.94191  0.36885  0.80115  1.0000
  H   H16       1.0  0.05808  0.36886  0.30115  1.0000
  H   H17       1.0  0.85803  0.48944  0.13229  1.0000
  H   H18       1.0  0.14198  0.48945  0.63229  1.0000
  H   H19       1.0  0.14198  0.51055  0.86771  1.0000
  H   H20       1.0  0.85802  0.51055  0.36771  1.0000
  H   H21       1.0  0.76376  0.28308  0.02688  1.0000
  H   H22       1.0  0.23624  0.28309  0.52688  1.0000
  H   H23       1.0  0.23624  0.71691  0.97312  1.0000
  H   H24       1.0  0.76376  0.71692  0.47312  1.0000
  H   H25       1.0  0.80723  0.05870  0.91184  1.0000
  H   H26       1.0  0.19277  0.05871  0.41185  1.0000
  H   H27       1.0  0.19277  0.94130  0.08815  1.0000
  H   H28       1.0  0.80723  0.94130  0.58815  1.0000
  H   H29       1.0  0.97877  0.90079  0.81686  1.0000
  H   H30       1.0  0.02123  0.90080  0.31686  1.0000
  H   H31       1.0  0.02123  0.09921  0.18314  1.0000
  H   H32       1.0  0.97877  0.09921  0.68314  1.0000
  H   H33       1.0  0.22407  0.96236  0.83105  1.0000
  H   H34       1.0  0.77593  0.96237  0.33105  1.0000
  H   H35       1.0  0.77593  0.03764  0.16895  1.0000
  H   H36       1.0  0.22407  0.03763  0.66895  1.0000
  C   C1        1.0  0.34690  0.47816  0.09768  1.0000
  C   C2        1.0  0.65310  0.47817  0.59768  1.0000
  C   C3        1.0  0.65311  0.52184  0.90232  1.0000
  C   C4        1.0  0.34689  0.52184  0.40232  1.0000
  C   C5        1.0  0.26479  0.57469  0.15578  1.0000
  C   C6        1.0  0.73521  0.57470  0.65578  1.0000
  C   C7        1.0  0.73521  0.42531  0.84422  1.0000
  C   C8        1.0  0.26478  0.42531  0.34422  1.0000
  C   C9        1.0  0.12524  0.55751  0.15504  1.0000
  C   C10       1.0  0.87476  0.55752  0.65504  1.0000
  C   C11       1.0  0.87476  0.44249  0.84496  1.0000
  C   C12       1.0  0.12523  0.44249  0.34496  1.0000
  C   C13       1.0  0.06784  0.44173  0.09570  1.0000
  C   C14       1.0  0.93216  0.44174  0.59570  1.0000
  C   C15       1.0  0.93216  0.55827  0.90430  1.0000
  C   C16       1.0  0.06783  0.55827  0.40430  1.0000
  C   C17       1.0  0.92480  0.41520  0.08929  1.0000
  C   C18       1.0  0.07521  0.41520  0.58929  1.0000
  C   C19       1.0  0.07521  0.58480  0.91072  1.0000
  C   C20       1.0  0.92479  0.58480  0.41072  1.0000
  C   C21       1.0  0.87325  0.30110  0.03160  1.0000
  C   C22       1.0  0.12675  0.30111  0.53161  1.0000
  C   C23       1.0  0.12675  0.69889  0.96840  1.0000
  C   C24       1.0  0.87325  0.69889  0.46840  1.0000
  C   C25       1.0  0.96176  0.20425  0.97516  1.0000
  C   C26       1.0  0.03824  0.20426  0.47517  1.0000
  C   C27       1.0  0.03824  0.79575  0.02484  1.0000
  C   C28       1.0  0.96176  0.79575  0.52483  1.0000
  C   C29       1.0  0.91557  0.08297  0.91526  1.0000
  C   C30       1.0  0.08443  0.08298  0.41526  1.0000
  C   C31       1.0  0.08443  0.91703  0.08474  1.0000
  C   C32       1.0  0.91557  0.91703  0.58474  1.0000
  C   C33       1.0  0.00933  0.99581  0.86340  1.0000
  C   C34       1.0  0.99067  0.99582  0.36340  1.0000
  C   C35       1.0  0.99067  0.00418  0.13660  1.0000
  C   C36       1.0  0.00933  0.00419  0.63660  1.0000
  C   C37       1.0  0.14857  0.02970  0.87108  1.0000
  C   C38       1.0  0.85143  0.02971  0.37108  1.0000
  C   C39       1.0  0.85143  0.97029  0.12892  1.0000
  C   C40       1.0  0.14857  0.97029  0.62892  1.0000
  C   C41       1.0  0.10414  0.22867  0.97887  1.0000
  C   C42       1.0  0.89586  0.22868  0.47887  1.0000
  C   C43       1.0  0.89586  0.77132  0.02113  1.0000
  C   C44       1.0  0.10414  0.77132  0.52114  1.0000
  C   C45       1.0  0.15746  0.34821  0.03949  1.0000
  C   C46       1.0  0.84255  0.34822  0.53950  1.0000
  C   C47       1.0  0.84254  0.65178  0.96050  1.0000
  C   C48       1.0  0.15745  0.65178  0.46051  1.0000
  N   N1        1.0  0.29510  0.36743  0.04077  1.0000
  N   N2        1.0  0.70490  0.36744  0.54077  1.0000
  N   N3        1.0  0.70490  0.63256  0.95923  1.0000
  N   N4        1.0  0.29509  0.63256  0.45923  1.0000
  N   N5        1.0  0.19523  0.14243  0.92746  1.0000
  N   N6        1.0  0.80477  0.14244  0.42746  1.0000
  N   N7        1.0  0.80477  0.85756  0.07254  1.0000
  N   N8        1.0  0.19523  0.85756  0.57255  1.0000
  O   O1        1.0  0.55547  0.29761  0.99572  1.0000
  O   O2        1.0  0.44453  0.29761  0.49572  1.0000
  O   O3        1.0  0.44453  0.70239  0.00428  1.0000
  O   O4        1.0  0.55547  0.70238  0.50428  1.0000
  O   O5        1.0  0.39418  0.29894  0.85269  1.0000
  O   O6        1.0  0.60582  0.29894  0.35269  1.0000
  O   O7        1.0  0.60582  0.70106  0.14731  1.0000
  O   O8        1.0  0.39418  0.70105  0.64731  1.0000
  O   O9        1.0  0.48068  0.05255  0.86284  1.0000
  O   O10       1.0  0.51932  0.05255  0.36284  1.0000
  O   O11       1.0  0.51932  0.94745  0.13716  1.0000
  O   O12       1.0  0.48068  0.94745  0.63716  1.0000
  O   O13       1.0  0.62698  0.86389  0.77560  1.0000
  O   O14       1.0  0.37303  0.86389  0.27560  1.0000
  O   O15       1.0  0.37303  0.13611  0.22440  1.0000
  O   O16       1.0  0.62697  0.13611  0.72440  1.0000
  O   O17       1.0  0.60304  0.89174  0.94643  1.0000
  O   O18       1.0  0.39696  0.89174  0.44643  1.0000
  O   O19       1.0  0.39697  0.10826  0.05358  1.0000
  O   O20       1.0  0.60304  0.10826  0.55357  1.0000
  O   O21       1.0  0.40119  0.80612  0.84135  1.0000
  O   O22       1.0  0.59882  0.80611  0.34135  1.0000
  O   O23       1.0  0.59882  0.19388  0.15865  1.0000
  O   O24       1.0  0.40118  0.19388  0.65865  1.0000
  O   O25       1.0  0.35368  0.50000  0.75000  1.0000
  O   O26       1.0  0.64632  0.50000  0.25000  1.0000
  O   O27       1.0  0.16264  0.29026  0.75616  1.0000
  O   O28       1.0  0.83736  0.29027  0.25615  1.0000
  O   O29       1.0  0.83736  0.70973  0.24385  1.0000
  O   O30       1.0  0.16264  0.70973  0.74385  1.0000
