data_image0
_chemical_formula_structural       Cu4H48C28N8O12
_chemical_formula_sum              "Cu4 H48 C28 N8 O12"
_cell_length_a       8.76155
_cell_length_b       9.84978
_cell_length_c       10.6483
_cell_angle_alpha    89.9998
_cell_angle_beta     89.9998
_cell_angle_gamma    90.0001

_space_group_name_H-M_alt    "P 1"
_space_group_IT_number       1

loop_
  _space_group_symop_operation_xyz
  'x, y, z'

loop_
  _atom_site_type_symbol
  _atom_site_label
  _atom_site_symmetry_multiplicity
  _atom_site_fract_x
  _atom_site_fract_y
  _atom_site_fract_z
  _atom_site_occupancy
  Cu  Cu1       1.0  0.03301  0.19855  0.39197  1.0000
  Cu  Cu2       1.0  0.53300  0.30145  0.60803  1.0000
  Cu  Cu3       1.0  0.96700  0.69856  0.10803  1.0000
  Cu  Cu4       1.0  0.46699  0.80145  0.89197  1.0000
  H   H1        1.0  0.77579  0.67670  0.27508  1.0000
  H   H2        1.0  0.27579  0.82331  0.72492  1.0000
  H   H3        1.0  0.22421  0.17670  0.22492  1.0000
  H   H4        1.0  0.72420  0.32330  0.77508  1.0000
  H   H5        1.0  0.69454  0.62603  0.13982  1.0000
  H   H6        1.0  0.19454  0.87397  0.86018  1.0000
  H   H7        1.0  0.30547  0.12603  0.36018  1.0000
  H   H8        1.0  0.80546  0.37397  0.63982  1.0000
  H   H9        1.0  0.83215  0.46690  0.33654  1.0000
  H   H10       1.0  0.33215  0.03310  0.66345  1.0000
  H   H11       1.0  0.16786  0.96690  0.16345  1.0000
  H   H12       1.0  0.66785  0.53310  0.83654  1.0000
  H   H13       1.0  0.72815  0.27295  0.22597  1.0000
  H   H14       1.0  0.22815  0.22705  0.77403  1.0000
  H   H15       1.0  0.27184  0.77295  0.27404  1.0000
  H   H16       1.0  0.77185  0.72705  0.72596  1.0000
  H   H17       1.0  0.56824  0.29581  0.03351  1.0000
  H   H18       1.0  0.06824  0.20419  0.96650  1.0000
  H   H19       1.0  0.43175  0.79581  0.46650  1.0000
  H   H20       1.0  0.93176  0.70419  0.53350  1.0000
  H   H21       1.0  0.75601  0.35423  0.00400  1.0000
  H   H22       1.0  0.25601  0.14576  0.99600  1.0000
  H   H23       1.0  0.24399  0.85423  0.49600  1.0000
  H   H24       1.0  0.74399  0.64576  0.50400  1.0000
  H   H25       1.0  0.60263  0.47116  0.02690  1.0000
  H   H26       1.0  0.10263  0.02884  0.97310  1.0000
  H   H27       1.0  0.39737  0.97116  0.47310  1.0000
  H   H28       1.0  0.89737  0.52884  0.52690  1.0000
  H   H29       1.0  0.56713  0.40277  0.37795  1.0000
  H   H30       1.0  0.06714  0.09723  0.62205  1.0000
  H   H31       1.0  0.43286  0.90277  0.12205  1.0000
  H   H32       1.0  0.93286  0.59723  0.87795  1.0000
  H   H33       1.0  0.45259  0.33005  0.25801  1.0000
  H   H34       1.0  0.95259  0.16995  0.74200  1.0000
  H   H35       1.0  0.54741  0.83004  0.24200  1.0000
  H   H36       1.0  0.04741  0.66995  0.75801  1.0000
  H   H37       1.0  0.49552  0.50575  0.25401  1.0000
  H   H38       1.0  0.99552  0.99424  0.74599  1.0000
  H   H39       1.0  0.50447  0.00575  0.24599  1.0000
  H   H40       1.0  0.00448  0.49425  0.75401  1.0000
  H   H41       1.0  0.19208  0.41946  0.98650  1.0000
  H   H42       1.0  0.69209  0.08054  0.01350  1.0000
  H   H43       1.0  0.80791  0.91946  0.51350  1.0000
  H   H44       1.0  0.30792  0.58054  0.48650  1.0000
  H   H45       1.0  0.27653  0.45847  0.13223  1.0000
  H   H46       1.0  0.77653  0.04154  0.86777  1.0000
  H   H47       1.0  0.72347  0.95846  0.36778  1.0000
  H   H48       1.0  0.22347  0.54153  0.63223  1.0000
  C   C1        1.0  0.81634  0.47135  0.23413  1.0000
  C   C2        1.0  0.31635  0.02865  0.76587  1.0000
  C   C3        1.0  0.18365  0.97135  0.26587  1.0000
  C   C4        1.0  0.68366  0.52865  0.73413  1.0000
  C   C5        1.0  0.96853  0.42353  0.17761  1.0000
  C   C6        1.0  0.46854  0.07646  0.82238  1.0000
  C   C7        1.0  0.03146  0.92354  0.32238  1.0000
  C   C8        1.0  0.53147  0.57646  0.67762  1.0000
  C   C9        1.0  0.68539  0.37417  0.19956  1.0000
  C   C10       1.0  0.18539  0.12583  0.80043  1.0000
  C   C11       1.0  0.31460  0.87417  0.30043  1.0000
  C   C12       1.0  0.81461  0.62583  0.69957  1.0000
  C   C13       1.0  0.65181  0.37425  0.05863  1.0000
  C   C14       1.0  0.15180  0.12575  0.94137  1.0000
  C   C15       1.0  0.34819  0.87424  0.44137  1.0000
  C   C16       1.0  0.84820  0.62575  0.55863  1.0000
  C   C17       1.0  0.54261  0.40502  0.27675  1.0000
  C   C18       1.0  0.04261  0.09498  0.72325  1.0000
  C   C19       1.0  0.45739  0.90502  0.22325  1.0000
  C   C20       1.0  0.95739  0.59498  0.77675  1.0000
  C   C21       1.0  0.19318  0.49558  0.06250  1.0000
  C   C22       1.0  0.69318  0.00442  0.93750  1.0000
  C   C23       1.0  0.80682  0.99558  0.43750  1.0000
  C   C24       1.0  0.30682  0.50442  0.56251  1.0000
  C   C25       1.0  0.25152  0.62910  0.00898  1.0000
  C   C26       1.0  0.75152  0.87090  0.99101  1.0000
  C   C27       1.0  0.74848  0.12910  0.49101  1.0000
  C   C28       1.0  0.24848  0.37090  0.50898  1.0000
  N   N1        1.0  0.78558  0.61417  0.19898  1.0000
  N   N2        1.0  0.28559  0.88583  0.80103  1.0000
  N   N3        1.0  0.21441  0.11417  0.30103  1.0000
  N   N4        1.0  0.71442  0.38584  0.69898  1.0000
  N   N5        1.0  0.04470  0.51892  0.11641  1.0000
  N   N6        1.0  0.54470  0.98108  0.88360  1.0000
  N   N7        1.0  0.95530  0.01892  0.38360  1.0000
  N   N8        1.0  0.45530  0.48108  0.61641  1.0000
  O   O1        1.0  0.01238  0.30226  0.19229  1.0000
  O   O2        1.0  0.51237  0.19774  0.80771  1.0000
  O   O3        1.0  0.98763  0.80226  0.30771  1.0000
  O   O4        1.0  0.48763  0.69774  0.69229  1.0000
  O   O5        1.0  0.38028  0.62835  0.95429  1.0000
  O   O6        1.0  0.88029  0.87166  0.04570  1.0000
  O   O7        1.0  0.61971  0.12835  0.54570  1.0000
  O   O8        1.0  0.11972  0.37165  0.45430  1.0000
  O   O9        1.0  0.16897  0.73572  0.02160  1.0000
  O   O10       1.0  0.66896  0.76428  0.97839  1.0000
  O   O11       1.0  0.83104  0.23572  0.47839  1.0000
  O   O12       1.0  0.33104  0.26428  0.52160  1.0000
