data_image0
_chemical_formula_structural       Ti8H16C8O36
_chemical_formula_sum              "Ti8 H16 C8 O36"
_cell_length_a       9.41571
_cell_length_b       9.41572
_cell_length_c       9.66627
_cell_angle_alpha    89.9996
_cell_angle_beta     90
_cell_angle_gamma    112.056

_space_group_name_H-M_alt    "P 1"
_space_group_IT_number       1

loop_
  _space_group_symop_operation_xyz
  'x, y, z'

loop_
  _atom_site_type_symbol
  _atom_site_label
  _atom_site_symmetry_multiplicity
  _atom_site_fract_x
  _atom_site_fract_y
  _atom_site_fract_z
  _atom_site_occupancy
  Ti  Ti1       1.0  0.46048  0.82803  0.60278  1.0000
  Ti  Ti2       1.0  0.03952  0.67197  0.10278  1.0000
  Ti  Ti3       1.0  0.17198  0.53954  0.39720  1.0000
  Ti  Ti4       1.0  0.32803  0.96047  0.89721  1.0000
  Ti  Ti5       1.0  0.53952  0.17197  0.39722  1.0000
  Ti  Ti6       1.0  0.96048  0.32803  0.89722  1.0000
  Ti  Ti7       1.0  0.82803  0.46047  0.60279  1.0000
  Ti  Ti8       1.0  0.67197  0.03954  0.10279  1.0000
  H   H1        1.0  0.70129  0.92301  0.79876  1.0000
  H   H2        1.0  0.79870  0.57699  0.29876  1.0000
  H   H3        1.0  0.07701  0.29871  0.20123  1.0000
  H   H4        1.0  0.42300  0.20129  0.70123  1.0000
  H   H5        1.0  0.29871  0.07699  0.20125  1.0000
  H   H6        1.0  0.20129  0.42301  0.70125  1.0000
  H   H7        1.0  0.92300  0.70128  0.79876  1.0000
  H   H8        1.0  0.57700  0.79871  0.29876  1.0000
  H   H9        1.0  0.73918  0.06000  0.68992  1.0000
  H   H10       1.0  0.76082  0.43999  0.18992  1.0000
  H   H11       1.0  0.94000  0.26081  0.31008  1.0000
  H   H12       1.0  0.56001  0.23918  0.81007  1.0000
  H   H13       1.0  0.26083  0.94000  0.31007  1.0000
  H   H14       1.0  0.23919  0.56000  0.81008  1.0000
  H   H15       1.0  0.06001  0.73917  0.68993  1.0000
  H   H16       1.0  0.44000  0.76081  0.18993  1.0000
  C   C1        1.0  0.60561  0.60560  0.65996  1.0000
  C   C2        1.0  0.89439  0.89439  0.15996  1.0000
  C   C3        1.0  0.39439  0.39440  0.34004  1.0000
  C   C4        1.0  0.10561  0.10561  0.84003  1.0000
  C   C5        1.0  0.67153  0.67153  0.51756  1.0000
  C   C6        1.0  0.82847  0.82848  0.01756  1.0000
  C   C7        1.0  0.32847  0.32848  0.48244  1.0000
  C   C8        1.0  0.17153  0.17153  0.98244  1.0000
  O   O1        1.0  0.50667  0.65141  0.71089  1.0000
  O   O2        1.0  0.99332  0.84858  0.21089  1.0000
  O   O3        1.0  0.34859  0.49333  0.28911  1.0000
  O   O4        1.0  0.15142  0.00668  0.78911  1.0000
  O   O5        1.0  0.49333  0.34859  0.28912  1.0000
  O   O6        1.0  0.00667  0.15142  0.78911  1.0000
  O   O7        1.0  0.65142  0.50667  0.71089  1.0000
  O   O8        1.0  0.84858  0.99332  0.21089  1.0000
  O   O9        1.0  0.61992  0.76546  0.46507  1.0000
  O   O10       1.0  0.88006  0.73453  0.96507  1.0000
  O   O11       1.0  0.23455  0.38010  0.53493  1.0000
  O   O12       1.0  0.26546  0.11992  0.03493  1.0000
  O   O13       1.0  0.38008  0.23454  0.53493  1.0000
  O   O14       1.0  0.11992  0.26546  0.03493  1.0000
  O   O15       1.0  0.76546  0.61991  0.46507  1.0000
  O   O16       1.0  0.73454  0.88010  0.96507  1.0000
  O   O17       1.0  0.34601  0.84601  0.75000  1.0000
  O   O18       1.0  0.15398  0.65399  0.24999  1.0000
  O   O19       1.0  0.65398  0.15399  0.25000  1.0000
  O   O20       1.0  0.84602  0.34602  0.75000  1.0000
  O   O21       1.0  0.50000  1.00000  0.50000  1.0000
  O   O22       1.0  0.00000  0.50000  1.00000  1.0000
  O   O23       1.0  0.00000  0.50000  0.50000  1.0000
  O   O24       1.0  0.50000  1.00000  1.00000  1.0000
  O   O25       1.0  0.30791  0.69210  0.49999  1.0000
  O   O26       1.0  0.19208  0.80791  1.00000  1.0000
  O   O27       1.0  0.69209  0.30791  0.50001  1.0000
  O   O28       1.0  0.80791  0.19210  0.00001  1.0000
  O   O29       1.0  0.67711  0.95212  0.70545  1.0000
  O   O30       1.0  0.82289  0.54788  0.20545  1.0000
  O   O31       1.0  0.04789  0.32290  0.29456  1.0000
  O   O32       1.0  0.45211  0.17710  0.79455  1.0000
  O   O33       1.0  0.32289  0.04788  0.29454  1.0000
  O   O34       1.0  0.17712  0.45213  0.79455  1.0000
  O   O35       1.0  0.95212  0.67710  0.70545  1.0000
  O   O36       1.0  0.54788  0.82290  0.20546  1.0000
