data_image0
_chemical_formula_structural       Fe2H14C14N2O12
_chemical_formula_sum              "Fe2 H14 C14 N2 O12"
_cell_length_a       7.28576
_cell_length_b       7.79584
_cell_length_c       7.79871
_cell_angle_alpha    100.464
_cell_angle_beta     101.081
_cell_angle_gamma    101.036

_space_group_name_H-M_alt    "P 1"
_space_group_IT_number       1

loop_
  _space_group_symop_operation_xyz
  'x, y, z'

loop_
  _atom_site_type_symbol
  _atom_site_label
  _atom_site_symmetry_multiplicity
  _atom_site_fract_x
  _atom_site_fract_y
  _atom_site_fract_z
  _atom_site_occupancy
  Fe  Fe1       1.0  0.74970  0.33295  0.66665  1.0000
  Fe  Fe2       1.0  0.25030  0.66723  0.33351  1.0000
  H   H1        1.0  0.10785  0.38915  0.84418  1.0000
  H   H2        1.0  0.39147  0.15524  0.61004  1.0000
  H   H3        1.0  0.89212  0.61064  0.15585  1.0000
  H   H4        1.0  0.60857  0.84463  0.38966  1.0000
  H   H5        1.0  0.11891  0.47849  0.67563  1.0000
  H   H6        1.0  0.38059  0.32401  0.52069  1.0000
  H   H7        1.0  0.88110  0.52135  0.32446  1.0000
  H   H8        1.0  0.61941  0.67594  0.47908  1.0000
  H   H9        1.0  0.70872  0.34165  0.05108  1.0000
  H   H10       1.0  0.79080  0.94867  0.65844  1.0000
  H   H11       1.0  0.29121  0.65839  0.94915  1.0000
  H   H12       1.0  0.20885  0.05148  0.34150  1.0000
  H   H13       1.0  0.75004  0.82946  0.17061  1.0000
  H   H14       1.0  0.25027  0.17060  0.82943  1.0000
  C   C1        1.0  0.73780  0.09768  0.13728  1.0000
  C   C2        1.0  0.76201  0.86263  0.90243  1.0000
  C   C3        1.0  0.26230  0.90235  0.86281  1.0000
  C   C4        1.0  0.23799  0.13746  0.09756  1.0000
  C   C5        1.0  0.73342  0.17128  0.32633  1.0000
  C   C6        1.0  0.76647  0.67345  0.82911  1.0000
  C   C7        1.0  0.26669  0.82861  0.67378  1.0000
  C   C8        1.0  0.23350  0.32667  0.17077  1.0000
  C   C9        1.0  0.73077  0.20728  0.01428  1.0000
  C   C10       1.0  0.76882  0.98556  0.79275  1.0000
  C   C11       1.0  0.26920  0.79279  0.98586  1.0000
  C   C12       1.0  0.23102  0.01455  0.20725  1.0000
  C   C13       1.0  0.74997  0.92028  0.07976  1.0000
  C   C14       1.0  0.25018  0.07977  0.92026  1.0000
  N   N1        1.0  0.74974  0.15505  0.84485  1.0000
  N   N2        1.0  0.25013  0.84507  0.15524  1.0000
  O   O1        1.0  0.04714  0.37635  0.71495  1.0000
  O   O2        1.0  0.45210  0.28448  0.62289  1.0000
  O   O3        1.0  0.95282  0.62348  0.28506  1.0000
  O   O4        1.0  0.54785  0.71542  0.37687  1.0000
  O   O5        1.0  0.70749  0.06685  0.43214  1.0000
  O   O6        1.0  0.79274  0.56792  0.93378  1.0000
  O   O7        1.0  0.29260  0.93294  0.56783  1.0000
  O   O8        1.0  0.20711  0.43208  0.06605  1.0000
  O   O9        1.0  0.75797  0.34014  0.38353  1.0000
  O   O10       1.0  0.74153  0.61588  0.66029  1.0000
  O   O11       1.0  0.24213  0.65976  0.61667  1.0000
  O   O12       1.0  0.25858  0.38434  0.33962  1.0000
