data_image0
_chemical_formula_structural       Ni2H44C52S2N12O14
_chemical_formula_sum              "Ni2 H44 C52 S2 N12 O14"
_cell_length_a       9.91235
_cell_length_b       10.8609
_cell_length_c       13.0405
_cell_angle_alpha    72.0079
_cell_angle_beta     87.0547
_cell_angle_gamma    77.1437

_space_group_name_H-M_alt    "P 1"
_space_group_IT_number       1

loop_
  _space_group_symop_operation_xyz
  'x, y, z'

loop_
  _atom_site_type_symbol
  _atom_site_label
  _atom_site_symmetry_multiplicity
  _atom_site_fract_x
  _atom_site_fract_y
  _atom_site_fract_z
  _atom_site_occupancy
  Ni  Ni1       1.0  0.05779  0.07580  0.68193  1.0000
  Ni  Ni2       1.0  0.94222  0.92419  0.31807  1.0000
  H   H1        1.0  0.69765  0.31686  0.58566  1.0000
  H   H2        1.0  0.30235  0.68314  0.41434  1.0000
  H   H3        1.0  0.16921  0.66511  0.64698  1.0000
  H   H4        1.0  0.83079  0.33489  0.35302  1.0000
  H   H5        1.0  0.28092  0.42691  0.68192  1.0000
  H   H6        1.0  0.71908  0.57309  0.31808  1.0000
  H   H7        1.0  0.53977  0.44617  0.92943  1.0000
  H   H8        1.0  0.46023  0.55383  0.07056  1.0000
  H   H9        1.0  0.43031  0.68687  0.89158  1.0000
  H   H10       1.0  0.56970  0.31313  0.10841  1.0000
  H   H11       1.0  0.23612  0.17201  0.85121  1.0000
  H   H12       1.0  0.76388  0.82799  0.14880  1.0000
  H   H13       1.0  0.10266  0.07644  0.01287  1.0000
  H   H14       1.0  0.89735  0.92355  0.98714  1.0000
  H   H15       1.0  0.42574  0.07382  0.22148  1.0000
  H   H16       1.0  0.57427  0.92618  0.77852  1.0000
  H   H17       1.0  0.56601  0.15886  0.06177  1.0000
  H   H18       1.0  0.43399  0.84114  0.93823  1.0000
  H   H19       1.0  0.36755  0.10090  0.67993  1.0000
  H   H20       1.0  0.63245  0.89910  0.32007  1.0000
  H   H21       1.0  0.08366  0.19786  0.42281  1.0000
  H   H22       1.0  0.91634  0.80215  0.57719  1.0000
  H   H23       1.0  0.55455  0.21752  0.41930  1.0000
  H   H24       1.0  0.44545  0.78249  0.58069  1.0000
  H   H25       1.0  0.58176  0.15864  0.56162  1.0000
  H   H26       1.0  0.41824  0.84136  0.43837  1.0000
  H   H27       1.0  0.30965  0.45506  0.41013  1.0000
  H   H28       1.0  0.69035  0.54494  0.58987  1.0000
  H   H29       1.0  0.87899  0.20975  0.84162  1.0000
  H   H30       1.0  0.12101  0.79025  0.15838  1.0000
  H   H31       1.0  0.07560  0.38294  0.55604  1.0000
  H   H32       1.0  0.92440  0.61706  0.44396  1.0000
  H   H33       1.0  0.74556  0.43210  0.86689  1.0000
  H   H34       1.0  0.25444  0.56790  0.13310  1.0000
  H   H35       1.0  0.78057  0.58261  0.77773  1.0000
  H   H36       1.0  0.21943  0.41739  0.22227  1.0000
  H   H37       1.0  0.89549  0.30393  0.03117  1.0000
  H   H38       1.0  0.10451  0.69608  0.96882  1.0000
  H   H39       1.0  0.95927  0.68197  0.82612  1.0000
  H   H40       1.0  0.04072  0.31803  0.17388  1.0000
  H   H41       1.0  0.87270  0.12582  0.44718  1.0000
  H   H42       1.0  0.12729  0.87418  0.55282  1.0000
  H   H43       1.0  0.83700  0.09623  0.57127  1.0000
  H   H44       1.0  0.16300  0.90376  0.42873  1.0000
  C   C1        1.0  0.61063  0.39720  0.54847  1.0000
  C   C2        1.0  0.38937  0.60280  0.45153  1.0000
  C   C3        1.0  0.23088  0.83530  0.75386  1.0000
  C   C4        1.0  0.76912  0.16470  0.24614  1.0000
  C   C5        1.0  0.29161  0.69068  0.76897  1.0000
  C   C6        1.0  0.70839  0.30932  0.23102  1.0000
  C   C7        1.0  0.24851  0.61758  0.71002  1.0000
  C   C8        1.0  0.75148  0.38242  0.28998  1.0000
  C   C9        1.0  0.31101  0.48375  0.72913  1.0000
  C   C10       1.0  0.68899  0.51625  0.27087  1.0000
  C   C11       1.0  0.41536  0.42398  0.80781  1.0000
  C   C12       1.0  0.58463  0.57602  0.19219  1.0000
  C   C13       1.0  0.45850  0.49508  0.86803  1.0000
  C   C14       1.0  0.54150  0.50491  0.13196  1.0000
  C   C15       1.0  0.39712  0.62821  0.84758  1.0000
  C   C16       1.0  0.60288  0.37178  0.15242  1.0000
  C   C17       1.0  0.40534  0.17648  0.94813  1.0000
  C   C18       1.0  0.59466  0.82352  0.05187  1.0000
  C   C19       1.0  0.27631  0.15217  0.93228  1.0000
  C   C20       1.0  0.72369  0.84782  0.06773  1.0000
  C   C21       1.0  0.20227  0.09875  0.02228  1.0000
  C   C22       1.0  0.79773  0.90125  0.97773  1.0000
  C   C23       1.0  0.25549  0.07242  0.12638  1.0000
  C   C24       1.0  0.74451  0.92758  0.87362  1.0000
  C   C25       1.0  0.38520  0.09667  0.14014  1.0000
  C   C26       1.0  0.61481  0.90333  0.85986  1.0000
  C   C27       1.0  0.46189  0.14718  0.05085  1.0000
  C   C28       1.0  0.53812  0.85282  0.94915  1.0000
  C   C29       1.0  0.17828  0.01428  0.22512  1.0000
  C   C30       1.0  0.82173  0.98572  0.77490  1.0000
  C   C31       1.0  0.31960  0.13520  0.60051  1.0000
  C   C32       1.0  0.68040  0.86480  0.39949  1.0000
  C   C33       1.0  0.17716  0.18710  0.46702  1.0000
  C   C34       1.0  0.82283  0.81291  0.53298  1.0000
  C   C35       1.0  0.51323  0.22963  0.49626  1.0000
  C   C36       1.0  0.48677  0.77037  0.50374  1.0000
  C   C37       1.0  0.50399  0.37000  0.49844  1.0000
  C   C38       1.0  0.49601  0.63000  0.50156  1.0000
  C   C39       1.0  0.39337  0.47417  0.45000  1.0000
  C   C40       1.0  0.60663  0.52583  0.55000  1.0000
  C   C41       1.0  0.92156  0.27873  0.77648  1.0000
  C   C42       1.0  0.07844  0.72127  0.22352  1.0000
  C   C43       1.0  0.01988  0.36963  0.63100  1.0000
  C   C44       1.0  0.98012  0.63037  0.36900  1.0000
  C   C45       1.0  0.82793  0.48389  0.83132  1.0000
  C   C46       1.0  0.17207  0.51611  0.16867  1.0000
  C   C47       1.0  0.91764  0.49203  0.91842  1.0000
  C   C48       1.0  0.08236  0.50797  0.08158  1.0000
  C   C49       1.0  0.94140  0.39018  0.01687  1.0000
  C   C50       1.0  0.05860  0.60982  0.98312  1.0000
  C   C51       1.0  0.97691  0.60198  0.90237  1.0000
  C   C52       1.0  0.02308  0.39803  0.09763  1.0000
  S   S1        1.0  0.49733  0.25392  0.83562  1.0000
  S   S2        1.0  0.50267  0.74608  0.16438  1.0000
  N   N1        1.0  0.19072  0.13159  0.57683  1.0000
  N   N2        1.0  0.80928  0.86841  0.42317  1.0000
  N   N3        1.0  0.29030  0.22557  0.42284  1.0000
  N   N4        1.0  0.70970  0.77444  0.57716  1.0000
  N   N5        1.0  0.37913  0.19211  0.50859  1.0000
  N   N6        1.0  0.62087  0.80789  0.49140  1.0000
  N   N7        1.0  0.99606  0.24992  0.69453  1.0000
  N   N8        1.0  0.00394  0.75008  0.30547  1.0000
  N   N9        1.0  0.96500  0.46894  0.66960  1.0000
  N   N10       1.0  0.03500  0.53106  0.33040  1.0000
  N   N11       1.0  0.90313  0.40917  0.76161  1.0000
  N   N12       1.0  0.09686  0.59083  0.23839  1.0000
  O   O1        1.0  0.12743  0.89164  0.68453  1.0000
  O   O2        1.0  0.87257  0.10837  0.31547  1.0000
  O   O3        1.0  0.27914  0.89421  0.80658  1.0000
  O   O4        1.0  0.72086  0.10578  0.19343  1.0000
  O   O5        1.0  0.47084  0.21125  0.74513  1.0000
  O   O6        1.0  0.52916  0.78874  0.25487  1.0000
  O   O7        1.0  0.63888  0.23908  0.87008  1.0000
  O   O8        1.0  0.36112  0.76092  0.12992  1.0000
  O   O9        1.0  0.06269  0.98748  0.20492  1.0000
  O   O10       1.0  0.93732  0.01252  0.79509  1.0000
  O   O11       1.0  0.22793  0.99551  0.31639  1.0000
  O   O12       1.0  0.77209  0.00448  0.68362  1.0000
  O   O13       1.0  0.87296  0.15943  0.50909  1.0000
  O   O14       1.0  0.12703  0.84057  0.49091  1.0000
