data_image0
_chemical_formula_structural       Li16H16C16O32
_chemical_formula_sum              "Li16 H16 C16 O32"
_cell_length_a       8.52992
_cell_length_b       8.52991
_cell_length_c       13.5095
_cell_angle_alpha    97.4578
_cell_angle_beta     97.4578
_cell_angle_gamma    90.1162

_space_group_name_H-M_alt    "P 1"
_space_group_IT_number       1

loop_
  _space_group_symop_operation_xyz
  'x, y, z'

loop_
  _atom_site_type_symbol
  _atom_site_label
  _atom_site_symmetry_multiplicity
  _atom_site_fract_x
  _atom_site_fract_y
  _atom_site_fract_z
  _atom_site_occupancy
  Li  Li1       1.0  0.82788  0.16599  0.99402  1.0000
  Li  Li2       1.0  0.83401  0.17213  0.50598  1.0000
  Li  Li3       1.0  0.17213  0.83401  0.00598  1.0000
  Li  Li4       1.0  0.16599  0.82787  0.49402  1.0000
  Li  Li5       1.0  0.89441  0.94245  0.84097  1.0000
  Li  Li6       1.0  0.05755  0.10559  0.65903  1.0000
  Li  Li7       1.0  0.10559  0.05755  0.15903  1.0000
  Li  Li8       1.0  0.94245  0.89441  0.34097  1.0000
  Li  Li9       1.0  0.27505  0.39099  0.75072  1.0000
  Li  Li10      1.0  0.60901  0.72495  0.74928  1.0000
  Li  Li11      1.0  0.72495  0.60901  0.24928  1.0000
  Li  Li12      1.0  0.39099  0.27505  0.25072  1.0000
  Li  Li13      1.0  0.40953  0.60292  0.91158  1.0000
  Li  Li14      1.0  0.39708  0.59047  0.58842  1.0000
  Li  Li15      1.0  0.59047  0.39708  0.08842  1.0000
  Li  Li16      1.0  0.60292  0.40953  0.41158  1.0000
  H   H1        1.0  0.10656  0.35530  0.92264  1.0000
  H   H2        1.0  0.64470  0.89345  0.57736  1.0000
  H   H3        1.0  0.89344  0.64470  0.07736  1.0000
  H   H4        1.0  0.35530  0.10655  0.42264  1.0000
  H   H5        1.0  0.01272  0.65653  0.73469  1.0000
  H   H6        1.0  0.34347  0.98728  0.76531  1.0000
  H   H7        1.0  0.98728  0.34347  0.26531  1.0000
  H   H8        1.0  0.65653  0.01272  0.23469  1.0000
  H   H9        1.0  0.12818  0.40193  0.46952  1.0000
  H   H10       1.0  0.59807  0.87182  0.03048  1.0000
  H   H11       1.0  0.87182  0.59807  0.53048  1.0000
  H   H12       1.0  0.40193  0.12818  0.96952  1.0000
  H   H13       1.0  0.62450  0.22373  0.81140  1.0000
  H   H14       1.0  0.77628  0.37550  0.68860  1.0000
  H   H15       1.0  0.37550  0.77628  0.18860  1.0000
  H   H16       1.0  0.22372  0.62450  0.31140  1.0000
  C   C1        1.0  0.06679  0.25133  0.86628  1.0000
  C   C2        1.0  0.74867  0.93321  0.63372  1.0000
  C   C3        1.0  0.93321  0.74867  0.13372  1.0000
  C   C4        1.0  0.25133  0.06679  0.36628  1.0000
  C   C5        1.0  0.09655  0.68163  0.80536  1.0000
  C   C6        1.0  0.31837  0.90345  0.69464  1.0000
  C   C7        1.0  0.90345  0.31837  0.19464  1.0000
  C   C8        1.0  0.68163  0.09655  0.30536  1.0000
  C   C9        1.0  0.14487  0.35568  0.54326  1.0000
  C   C10       1.0  0.64432  0.85513  0.95674  1.0000
  C   C11       1.0  0.85513  0.64432  0.45674  1.0000
  C   C12       1.0  0.35568  0.14487  0.04326  1.0000
  C   C13       1.0  0.58320  0.30867  0.87188  1.0000
  C   C14       1.0  0.69132  0.41680  0.62811  1.0000
  C   C15       1.0  0.41680  0.69132  0.12811  1.0000
  C   C16       1.0  0.30868  0.58320  0.37189  1.0000
  O   O1        1.0  0.96248  0.16040  0.88752  1.0000
  O   O2        1.0  0.83960  0.03752  0.61248  1.0000
  O   O3        1.0  0.03752  0.83960  0.11248  1.0000
  O   O4        1.0  0.16040  0.96248  0.38752  1.0000
  O   O5        1.0  0.76559  0.87005  0.71438  1.0000
  O   O6        1.0  0.12996  0.23441  0.78562  1.0000
  O   O7        1.0  0.23441  0.12995  0.28562  1.0000
  O   O8        1.0  0.87005  0.76559  0.21438  1.0000
  O   O9        1.0  0.74907  0.95228  0.94319  1.0000
  O   O10       1.0  0.04772  0.25094  0.55680  1.0000
  O   O11       1.0  0.25094  0.04772  0.05680  1.0000
  O   O12       1.0  0.95228  0.74906  0.44320  1.0000
  O   O13       1.0  0.06581  0.79827  0.86789  1.0000
  O   O14       1.0  0.20173  0.93419  0.63211  1.0000
  O   O15       1.0  0.93419  0.20173  0.13211  1.0000
  O   O16       1.0  0.79827  0.06581  0.36789  1.0000
  O   O17       1.0  0.46559  0.39229  0.84780  1.0000
  O   O18       1.0  0.60771  0.53441  0.65220  1.0000
  O   O19       1.0  0.53441  0.60771  0.15220  1.0000
  O   O20       1.0  0.39229  0.46559  0.34780  1.0000
  O   O21       1.0  0.26017  0.41306  0.60676  1.0000
  O   O22       1.0  0.58693  0.73983  0.89324  1.0000
  O   O23       1.0  0.73983  0.58694  0.39324  1.0000
  O   O24       1.0  0.41307  0.26016  0.10676  1.0000
  O   O25       1.0  0.21405  0.59302  0.81694  1.0000
  O   O26       1.0  0.40698  0.78595  0.68305  1.0000
  O   O27       1.0  0.78595  0.40698  0.18306  1.0000
  O   O28       1.0  0.59302  0.21405  0.31694  1.0000
  O   O29       1.0  0.34197  0.68701  0.04028  1.0000
  O   O30       1.0  0.31299  0.65803  0.45972  1.0000
  O   O31       1.0  0.65803  0.31299  0.95973  1.0000
  O   O32       1.0  0.68701  0.34197  0.54028  1.0000
