data_image0
_chemical_formula_structural       Cd2H16C8N4Cl4
_chemical_formula_sum              "Cd2 H16 C8 N4 Cl4"
_cell_length_a       7.30323
_cell_length_b       7.59766
_cell_length_c       7.6029
_cell_angle_alpha    107.955
_cell_angle_beta     88.9658
_cell_angle_gamma    88.9681

_space_group_name_H-M_alt    "P 1"
_space_group_IT_number       1

loop_
  _space_group_symop_operation_xyz
  'x, y, z'

loop_
  _atom_site_type_symbol
  _atom_site_label
  _atom_site_symmetry_multiplicity
  _atom_site_fract_x
  _atom_site_fract_y
  _atom_site_fract_z
  _atom_site_occupancy
  Cd  Cd1       1.0  0.74953  0.08942  0.93756  1.0000
  Cd  Cd2       1.0  0.24962  0.93752  0.08939  1.0000
  H   H1        1.0  0.75809  0.50246  0.20563  1.0000
  H   H2        1.0  0.82513  0.81712  0.53662  1.0000
  H   H3        1.0  0.32540  0.53609  0.81747  1.0000
  H   H4        1.0  0.25837  0.20586  0.50209  1.0000
  H   H5        1.0  0.79438  0.66704  0.08301  1.0000
  H   H6        1.0  0.71855  0.89257  0.34623  1.0000
  H   H7        1.0  0.21836  0.34584  0.89292  1.0000
  H   H8        1.0  0.29430  0.08317  0.66665  1.0000
  H   H9        1.0  0.87807  0.31236  0.64735  1.0000
  H   H10       1.0  0.53730  0.31082  0.66365  1.0000
  H   H11       1.0  0.03713  0.66395  0.31063  1.0000
  H   H12       1.0  0.37799  0.64714  0.31233  1.0000
  H   H13       1.0  0.89465  0.56645  0.77711  1.0000
  H   H14       1.0  0.59122  0.18916  0.42631  1.0000
  H   H15       1.0  0.09083  0.42637  0.18928  1.0000
  H   H16       1.0  0.39444  0.77702  0.56627  1.0000
  C   C1        1.0  0.84490  0.53708  0.10199  1.0000
  C   C2        1.0  0.73713  0.91381  0.49378  1.0000
  C   C3        1.0  0.23719  0.49341  0.91405  1.0000
  C   C4        1.0  0.34500  0.10214  0.53680  1.0000
  C   C5        1.0  0.87202  0.42453  0.77884  1.0000
  C   C6        1.0  0.54230  0.17414  0.55853  1.0000
  C   C7        1.0  0.04217  0.55866  0.17410  1.0000
  C   C8        1.0  0.37195  0.77872  0.42441  1.0000
  N   N1        1.0  0.83849  0.38672  0.92890  1.0000
  N   N2        1.0  0.66380  0.05132  0.61913  1.0000
  N   N3        1.0  0.16388  0.61901  0.05132  1.0000
  N   N4        1.0  0.33859  0.92887  0.38651  1.0000
  Cl  Cl1       1.0  0.05967  0.89837  0.78832  1.0000
  Cl  Cl2       1.0  0.44507  0.24625  0.12872  1.0000
  Cl  Cl3       1.0  0.94495  0.12843  0.24611  1.0000
  Cl  Cl4       1.0  0.55953  0.78819  0.89801  1.0000
