data_image0
_chemical_formula_structural       Ni2H48C60N36
_chemical_formula_sum              "Ni2 H48 C60 N36"
_cell_length_a       9.33848
_cell_length_b       11.9776
_cell_length_c       13.5247
_cell_angle_alpha    90.0008
_cell_angle_beta     105.158
_cell_angle_gamma    89.9999

_space_group_name_H-M_alt    "P 1"
_space_group_IT_number       1

loop_
  _space_group_symop_operation_xyz
  'x, y, z'

loop_
  _atom_site_type_symbol
  _atom_site_label
  _atom_site_symmetry_multiplicity
  _atom_site_fract_x
  _atom_site_fract_y
  _atom_site_fract_z
  _atom_site_occupancy
  Ni  Ni1       1.0  0.00000  0.00000  1.00000  1.0000
  Ni  Ni2       1.0  0.50000  0.50001  0.50000  1.0000
  H   H1        1.0  0.62101  0.84952  0.31242  1.0000
  H   H2        1.0  0.12101  0.65049  0.81241  1.0000
  H   H3        1.0  0.37899  0.15047  0.68759  1.0000
  H   H4        1.0  0.87899  0.34951  0.18759  1.0000
  H   H5        1.0  0.76205  0.01190  0.60704  1.0000
  H   H6        1.0  0.26202  0.48810  0.10702  1.0000
  H   H7        1.0  0.23795  0.98810  0.39296  1.0000
  H   H8        1.0  0.73799  0.51192  0.89298  1.0000
  H   H9        1.0  0.87867  0.15127  0.34357  1.0000
  H   H10       1.0  0.37867  0.34875  0.84358  1.0000
  H   H11       1.0  0.12134  0.84872  0.65643  1.0000
  H   H12       1.0  0.62133  0.65126  0.15643  1.0000
  H   H13       1.0  0.98501  0.04849  0.22458  1.0000
  H   H14       1.0  0.48503  0.45151  0.72457  1.0000
  H   H15       1.0  0.01497  0.95150  0.77542  1.0000
  H   H16       1.0  0.51498  0.54849  0.27542  1.0000
  H   H17       1.0  0.66491  0.91582  0.97366  1.0000
  H   H18       1.0  0.16491  0.58415  0.47365  1.0000
  H   H19       1.0  0.33511  0.08416  0.02634  1.0000
  H   H20       1.0  0.83509  0.41584  0.52635  1.0000
  H   H21       1.0  0.54742  0.91406  0.14526  1.0000
  H   H22       1.0  0.04741  0.58593  0.64525  1.0000
  H   H23       1.0  0.45260  0.08592  0.85474  1.0000
  H   H24       1.0  0.95259  0.41407  0.35476  1.0000
  H   H25       1.0  0.66167  0.69913  0.41209  1.0000
  H   H26       1.0  0.16165  0.80087  0.91208  1.0000
  H   H27       1.0  0.33833  0.30087  0.58791  1.0000
  H   H28       1.0  0.83833  0.19913  0.08791  1.0000
  H   H29       1.0  0.44697  0.70031  0.65023  1.0000
  H   H30       1.0  0.94697  0.79970  0.15023  1.0000
  H   H31       1.0  0.55304  0.29968  0.34978  1.0000
  H   H32       1.0  0.05305  0.20030  0.84976  1.0000
  H   H33       1.0  0.54685  0.91499  0.62755  1.0000
  H   H34       1.0  0.04684  0.58502  0.12754  1.0000
  H   H35       1.0  0.45315  0.08501  0.37246  1.0000
  H   H36       1.0  0.95317  0.41499  0.87246  1.0000
  H   H37       1.0  0.07308  0.21305  0.45982  1.0000
  H   H38       1.0  0.57309  0.28696  0.95982  1.0000
  H   H39       1.0  0.92691  0.78696  0.54018  1.0000
  H   H40       1.0  0.42690  0.71303  0.04018  1.0000
  H   H41       1.0  0.01918  0.35069  0.73286  1.0000
  H   H42       1.0  0.51915  0.14931  0.23286  1.0000
  H   H43       1.0  0.98081  0.64932  0.26713  1.0000
  H   H44       1.0  0.48083  0.85069  0.76714  1.0000
  H   H45       1.0  0.79757  0.19324  0.66495  1.0000
  H   H46       1.0  0.29756  0.30677  0.16494  1.0000
  H   H47       1.0  0.20242  0.80676  0.33505  1.0000
  H   H48       1.0  0.70244  0.69324  0.83506  1.0000
  C   C1        1.0  0.75710  0.99603  0.31898  1.0000
  C   C2        1.0  0.25712  0.50398  0.81896  1.0000
  C   C3        1.0  0.24289  0.00396  0.68103  1.0000
  C   C4        1.0  0.74289  0.49603  0.18103  1.0000
  C   C5        1.0  0.68138  0.91592  0.36005  1.0000
  C   C6        1.0  0.18138  0.58409  0.86002  1.0000
  C   C7        1.0  0.31860  0.08409  0.63995  1.0000
  C   C8        1.0  0.81862  0.41592  0.13997  1.0000
  C   C9        1.0  0.68391  0.92266  0.46348  1.0000
  C   C10       1.0  0.18388  0.57734  0.96347  1.0000
  C   C11       1.0  0.31610  0.07734  0.53653  1.0000
  C   C12       1.0  0.81611  0.42266  0.03653  1.0000
  C   C13       1.0  0.75822  0.00880  0.52589  1.0000
  C   C14       1.0  0.25822  0.49121  0.02588  1.0000
  C   C15       1.0  0.24178  0.99120  0.47411  1.0000
  C   C16       1.0  0.74178  0.50880  0.97411  1.0000
  C   C17       1.0  0.82980  0.09024  0.48195  1.0000
  C   C18       1.0  0.32980  0.40976  0.98194  1.0000
  C   C19       1.0  0.17021  0.90976  0.51805  1.0000
  C   C20       1.0  0.67021  0.59024  0.01805  1.0000
  C   C21       1.0  0.82841  0.08524  0.37832  1.0000
  C   C22       1.0  0.32841  0.41478  0.87832  1.0000
  C   C23       1.0  0.17162  0.91476  0.62168  1.0000
  C   C24       1.0  0.67160  0.58523  0.12168  1.0000
  C   C25       1.0  0.88039  0.01506  0.17939  1.0000
  C   C26       1.0  0.38040  0.48494  0.67938  1.0000
  C   C27       1.0  0.11962  0.98494  0.82062  1.0000
  C   C28       1.0  0.61960  0.51506  0.32062  1.0000
  C   C29       1.0  0.71257  0.94230  0.05192  1.0000
  C   C30       1.0  0.21257  0.55769  0.55190  1.0000
  C   C31       1.0  0.28743  0.05769  0.94809  1.0000
  C   C32       1.0  0.78743  0.44231  0.44809  1.0000
  C   C33       1.0  0.65502  0.93868  0.13546  1.0000
  C   C34       1.0  0.15501  0.56130  0.63545  1.0000
  C   C35       1.0  0.34499  0.06131  0.86454  1.0000
  C   C36       1.0  0.84498  0.43869  0.36454  1.0000
  C   C37       1.0  0.60837  0.72681  0.46988  1.0000
  C   C38       1.0  0.10836  0.77319  0.96985  1.0000
  C   C39       1.0  0.39163  0.27318  0.53013  1.0000
  C   C40       1.0  0.89163  0.22682  0.03013  1.0000
  C   C41       1.0  0.50437  0.73158  0.59622  1.0000
  C   C42       1.0  0.00437  0.76844  0.09622  1.0000
  C   C43       1.0  0.49563  0.26841  0.40379  1.0000
  C   C44       1.0  0.99562  0.23158  0.90379  1.0000
  C   C45       1.0  0.55316  0.83797  0.58662  1.0000
  C   C46       1.0  0.05316  0.66204  0.08662  1.0000
  C   C47       1.0  0.44684  0.16202  0.41338  1.0000
  C   C48       1.0  0.94685  0.33797  0.91338  1.0000
  C   C49       1.0  0.03087  0.23131  0.52549  1.0000
  C   C50       1.0  0.53087  0.26870  0.02550  1.0000
  C   C51       1.0  0.96913  0.76870  0.47450  1.0000
  C   C52       1.0  0.46913  0.73130  0.97451  1.0000
  C   C53       1.0  0.00018  0.29636  0.66674  1.0000
  C   C54       1.0  0.50016  0.20364  0.16675  1.0000
  C   C55       1.0  0.99981  0.70364  0.33325  1.0000
  C   C56       1.0  0.49982  0.79636  0.83325  1.0000
  C   C57       1.0  0.88917  0.21884  0.63426  1.0000
  C   C58       1.0  0.38915  0.28116  0.13425  1.0000
  C   C59       1.0  0.11082  0.78117  0.36574  1.0000
  C   C60       1.0  0.61084  0.71884  0.86575  1.0000
  N   N1        1.0  0.18180  0.04401  0.15697  1.0000
  N   N2        1.0  0.68182  0.45599  0.65698  1.0000
  N   N3        1.0  0.81819  0.95599  0.84302  1.0000
  N   N4        1.0  0.31819  0.54401  0.34302  1.0000
  N   N5        1.0  0.26909  0.97472  0.19749  1.0000
  N   N6        1.0  0.76909  0.52528  0.69749  1.0000
  N   N7        1.0  0.73091  0.02528  0.80250  1.0000
  N   N8        1.0  0.23090  0.47470  0.30251  1.0000
  N   N9        1.0  0.35676  0.90631  0.23883  1.0000
  N   N10       1.0  0.85676  0.59370  0.73884  1.0000
  N   N11       1.0  0.64325  0.09369  0.76116  1.0000
  N   N12       1.0  0.14324  0.40629  0.26117  1.0000
  N   N13       1.0  0.76244  0.98563  0.21574  1.0000
  N   N14       1.0  0.26244  0.51437  0.71573  1.0000
  N   N15       1.0  0.23756  0.01436  0.78427  1.0000
  N   N16       1.0  0.73755  0.48563  0.28426  1.0000
  N   N17       1.0  0.85285  0.98898  0.08069  1.0000
  N   N18       1.0  0.35287  0.51103  0.58070  1.0000
  N   N19       1.0  0.14714  0.01102  0.91930  1.0000
  N   N20       1.0  0.64714  0.48898  0.41931  1.0000
  N   N21       1.0  0.61764  0.83438  0.50519  1.0000
  N   N22       1.0  0.11761  0.66561  0.00517  1.0000
  N   N23       1.0  0.38238  0.16561  0.49482  1.0000
  N   N24       1.0  0.88239  0.33439  0.99483  1.0000
  N   N25       1.0  0.54015  0.66315  0.52353  1.0000
  N   N26       1.0  0.04013  0.83687  0.02352  1.0000
  N   N27       1.0  0.45986  0.33685  0.47647  1.0000
  N   N28       1.0  0.95986  0.16313  0.97647  1.0000
  N   N29       1.0  0.90951  0.17701  0.54302  1.0000
  N   N30       1.0  0.40949  0.32300  0.04303  1.0000
  N   N31       1.0  0.09050  0.82299  0.45698  1.0000
  N   N32       1.0  0.59051  0.67700  0.95698  1.0000
  N   N33       1.0  0.08857  0.30270  0.59931  1.0000
  N   N34       1.0  0.58856  0.19731  0.09930  1.0000
  N   N35       1.0  0.91141  0.69731  0.40069  1.0000
  N   N36       1.0  0.41142  0.80268  0.90070  1.0000
