data_image0
_chemical_formula_structural       Co2H26C34S6N10O10
_chemical_formula_sum              "Co2 H26 C34 S6 N10 O10"
_cell_length_a       9.49887
_cell_length_b       10.2408
_cell_length_c       11.0142
_cell_angle_alpha    101.277
_cell_angle_beta     96.8779
_cell_angle_gamma    105.296

_space_group_name_H-M_alt    "P 1"
_space_group_IT_number       1

loop_
  _space_group_symop_operation_xyz
  'x, y, z'

loop_
  _atom_site_type_symbol
  _atom_site_label
  _atom_site_symmetry_multiplicity
  _atom_site_fract_x
  _atom_site_fract_y
  _atom_site_fract_z
  _atom_site_occupancy
  Co  Co1       1.0  0.92184  0.10136  0.14994  1.0000
  Co  Co2       1.0  0.07816  0.89865  0.85006  1.0000
  H   H1        1.0  0.54322  0.92825  0.82929  1.0000
  H   H2        1.0  0.45677  0.07175  0.17071  1.0000
  H   H3        1.0  0.58429  0.76597  0.80485  1.0000
  H   H4        1.0  0.41572  0.23403  0.19516  1.0000
  H   H5        1.0  0.42246  0.69919  0.13149  1.0000
  H   H6        1.0  0.57754  0.30079  0.86851  1.0000
  H   H7        1.0  0.81311  0.47429  0.36093  1.0000
  H   H8        1.0  0.18689  0.52571  0.63906  1.0000
  H   H9        1.0  0.65631  0.33927  0.36810  1.0000
  H   H10       1.0  0.34369  0.66073  0.63189  1.0000
  H   H11       1.0  0.88756  0.22571  0.91655  1.0000
  H   H12       1.0  0.11243  0.77429  0.08344  1.0000
  H   H13       1.0  0.04294  0.40698  0.82814  1.0000
  H   H14       1.0  0.95707  0.59303  0.17185  1.0000
  H   H15       1.0  0.29492  0.55021  0.94875  1.0000
  H   H16       1.0  0.70509  0.44978  0.05125  1.0000
  H   H17       1.0  0.20408  0.32851  0.24083  1.0000
  H   H18       1.0  0.79591  0.67147  0.75915  1.0000
  H   H19       1.0  0.66684  0.62819  0.38152  1.0000
  H   H20       1.0  0.33317  0.37181  0.61849  1.0000
  H   H21       1.0  0.92496  0.78807  0.46601  1.0000
  H   H22       1.0  0.07505  0.21193  0.53399  1.0000
  H   H23       1.0  0.02304  0.98390  0.36203  1.0000
  H   H24       1.0  0.97696  0.01611  0.63798  1.0000
  H   H25       1.0  0.62985  0.87428  0.10865  1.0000
  H   H26       1.0  0.37015  0.12570  0.89134  1.0000
  C   C1        1.0  0.77701  0.94585  0.87602  1.0000
  C   C2        1.0  0.22299  0.05415  0.12398  1.0000
  C   C3        1.0  0.62250  0.87485  0.79654  1.0000
  C   C4        1.0  0.37750  0.12515  0.20346  1.0000
  C   C5        1.0  0.67701  0.03343  0.63243  1.0000
  C   C6        1.0  0.32299  0.96658  0.36757  1.0000
  C   C7        1.0  0.76971  0.26053  0.59445  1.0000
  C   C8        1.0  0.23029  0.73946  0.40555  1.0000
  C   C9        1.0  0.77788  0.37351  0.38643  1.0000
  C   C10       1.0  0.22212  0.62649  0.61357  1.0000
  C   C11       1.0  0.83614  0.27102  0.30227  1.0000
  C   C12       1.0  0.16385  0.72898  0.69771  1.0000
  C   C13       1.0  0.99618  0.29127  0.96857  1.0000
  C   C14       1.0  0.00382  0.70874  0.03142  1.0000
  C   C15       1.0  0.08449  0.39252  0.91952  1.0000
  C   C16       1.0  0.91552  0.60749  0.08047  1.0000
  C   C17       1.0  0.22390  0.47266  0.98792  1.0000
  C   C18       1.0  0.77611  0.52733  0.01207  1.0000
  C   C19       1.0  0.26999  0.44917  0.10537  1.0000
  C   C20       1.0  0.73002  0.55082  0.89463  1.0000
  C   C21       1.0  0.17315  0.34717  0.14863  1.0000
  C   C22       1.0  0.82684  0.65283  0.85137  1.0000
  C   C23       1.0  0.42005  0.51904  0.18513  1.0000
  C   C24       1.0  0.57995  0.48096  0.81488  1.0000
  C   C25       1.0  0.62966  0.73641  0.23622  1.0000
  C   C26       1.0  0.37034  0.26360  0.76380  1.0000
  C   C27       1.0  0.71354  0.71344  0.33940  1.0000
  C   C28       1.0  0.28647  0.28657  0.66061  1.0000
  C   C29       1.0  0.85679  0.80308  0.38579  1.0000
  C   C30       1.0  0.14321  0.19692  0.61423  1.0000
  C   C31       1.0  0.91148  0.91229  0.32997  1.0000
  C   C32       1.0  0.08852  0.08772  0.67003  1.0000
  C   C33       1.0  0.69158  0.85128  0.18792  1.0000
  C   C34       1.0  0.30841  0.14872  0.81208  1.0000
  S   S1        1.0  0.84776  0.41557  0.55330  1.0000
  S   S2        1.0  0.15225  0.58443  0.44670  1.0000
  S   S3        1.0  0.72399  0.09124  0.50047  1.0000
  S   S4        1.0  0.27602  0.90876  0.49953  1.0000
  S   S5        1.0  0.61747  0.85755  0.63000  1.0000
  S   S6        1.0  0.38252  0.14245  0.37000  1.0000
  N   N1        1.0  0.03978  0.26828  0.08158  1.0000
  N   N2        1.0  0.96021  0.73172  0.91841  1.0000
  N   N3        1.0  0.82913  0.93664  0.23296  1.0000
  N   N4        1.0  0.17086  0.06336  0.76704  1.0000
  N   N5        1.0  0.48697  0.65183  0.17663  1.0000
  N   N6        1.0  0.51303  0.34816  0.82338  1.0000
  N   N7        1.0  0.75088  0.26379  0.71122  1.0000
  N   N8        1.0  0.24913  0.73621  0.28878  1.0000
  N   N9        1.0  0.69817  0.13500  0.73357  1.0000
  N   N10       1.0  0.30183  0.86501  0.26643  1.0000
  O   O1        1.0  0.76422  0.21983  0.19036  1.0000
  O   O2        1.0  0.23577  0.78018  0.80963  1.0000
  O   O3        1.0  0.95178  0.23966  0.34133  1.0000
  O   O4        1.0  0.04821  0.76034  0.65865  1.0000
  O   O5        1.0  0.77855  0.99408  0.99124  1.0000
  O   O6        1.0  0.22143  0.00591  0.00876  1.0000
  O   O7        1.0  0.88994  0.94985  0.82418  1.0000
  O   O8        1.0  0.11006  0.05015  0.17583  1.0000
  O   O9        1.0  0.47984  0.45650  0.25157  1.0000
  O   O10       1.0  0.52016  0.54350  0.74846  1.0000
