data_image0
_chemical_formula_structural       Ca4H48C24O40
_chemical_formula_sum              "Ca4 H48 C24 O40"
_cell_length_a       6.71867
_cell_length_b       11.4302
_cell_length_c       14.8027
_cell_angle_alpha    89.9997
_cell_angle_beta     89.9999
_cell_angle_gamma    90.0001

_space_group_name_H-M_alt    "P 1"
_space_group_IT_number       1

loop_
  _space_group_symop_operation_xyz
  'x, y, z'

loop_
  _atom_site_type_symbol
  _atom_site_label
  _atom_site_symmetry_multiplicity
  _atom_site_fract_x
  _atom_site_fract_y
  _atom_site_fract_z
  _atom_site_occupancy
  Ca  Ca1       1.0  0.00126  0.99999  0.25000  1.0000
  Ca  Ca2       1.0  0.49874  0.50000  0.75000  1.0000
  Ca  Ca3       1.0  0.99872  0.00000  0.75000  1.0000
  Ca  Ca4       1.0  0.50127  0.50001  0.25000  1.0000
  H   H1        1.0  0.34839  0.99632  0.48921  1.0000
  H   H2        1.0  0.34839  0.00368  0.01079  1.0000
  H   H3        1.0  0.15162  0.49633  0.51079  1.0000
  H   H4        1.0  0.15159  0.50368  0.98920  1.0000
  H   H5        1.0  0.65160  0.00366  0.51079  1.0000
  H   H6        1.0  0.65160  0.99633  0.98921  1.0000
  H   H7        1.0  0.84841  0.50368  0.48921  1.0000
  H   H8        1.0  0.84838  0.49633  0.01079  1.0000
  H   H9        1.0  0.05829  0.12814  0.51406  1.0000
  H   H10       1.0  0.05828  0.87186  0.98594  1.0000
  H   H11       1.0  0.44174  0.62815  0.48594  1.0000
  H   H12       1.0  0.44170  0.37186  0.01406  1.0000
  H   H13       1.0  0.94172  0.87185  0.48595  1.0000
  H   H14       1.0  0.94171  0.12814  0.01406  1.0000
  H   H15       1.0  0.55830  0.37185  0.51406  1.0000
  H   H16       1.0  0.55828  0.62815  0.98594  1.0000
  H   H17       1.0  0.33832  0.91404  0.33445  1.0000
  H   H18       1.0  0.33831  0.08596  0.16555  1.0000
  H   H19       1.0  0.16169  0.41405  0.66555  1.0000
  H   H20       1.0  0.16168  0.58596  0.83444  1.0000
  H   H21       1.0  0.66166  0.08595  0.66554  1.0000
  H   H22       1.0  0.66166  0.91405  0.83446  1.0000
  H   H23       1.0  0.83832  0.58595  0.33444  1.0000
  H   H24       1.0  0.83830  0.41404  0.16555  1.0000
  H   H25       1.0  0.88678  0.16318  0.40307  1.0000
  H   H26       1.0  0.88679  0.83681  0.09693  1.0000
  H   H27       1.0  0.61323  0.66318  0.59693  1.0000
  H   H28       1.0  0.61322  0.33683  0.90307  1.0000
  H   H29       1.0  0.11323  0.83682  0.59693  1.0000
  H   H30       1.0  0.11320  0.16319  0.90307  1.0000
  H   H31       1.0  0.38678  0.33683  0.40307  1.0000
  H   H32       1.0  0.38678  0.66318  0.09693  1.0000
  H   H33       1.0  0.78564  0.76583  0.25204  1.0000
  H   H34       1.0  0.78568  0.23417  0.24796  1.0000
  H   H35       1.0  0.71435  0.26584  0.74796  1.0000
  H   H36       1.0  0.71436  0.73417  0.75204  1.0000
  H   H37       1.0  0.21435  0.23417  0.74796  1.0000
  H   H38       1.0  0.21437  0.76582  0.75203  1.0000
  H   H39       1.0  0.28563  0.73418  0.25204  1.0000
  H   H40       1.0  0.28566  0.26583  0.24797  1.0000
  H   H41       1.0  0.75782  0.81544  0.35054  1.0000
  H   H42       1.0  0.75784  0.18455  0.14947  1.0000
  H   H43       1.0  0.74218  0.31546  0.64947  1.0000
  H   H44       1.0  0.74217  0.68455  0.85054  1.0000
  H   H45       1.0  0.24215  0.18455  0.64946  1.0000
  H   H46       1.0  0.24217  0.81545  0.85054  1.0000
  H   H47       1.0  0.25784  0.68455  0.35054  1.0000
  H   H48       1.0  0.25783  0.31546  0.14947  1.0000
  C   C1        1.0  0.31885  0.13008  0.38499  1.0000
  C   C2        1.0  0.31885  0.86991  0.11500  1.0000
  C   C3        1.0  0.18118  0.63009  0.61500  1.0000
  C   C4        1.0  0.18117  0.36993  0.88498  1.0000
  C   C5        1.0  0.68115  0.86991  0.61500  1.0000
  C   C6        1.0  0.68114  0.13009  0.88500  1.0000
  C   C7        1.0  0.81886  0.36993  0.38499  1.0000
  C   C8        1.0  0.81883  0.63006  0.11502  1.0000
  C   C9        1.0  0.24812  0.01942  0.43339  1.0000
  C   C10       1.0  0.24812  0.98056  0.06661  1.0000
  C   C11       1.0  0.25191  0.51943  0.56661  1.0000
  C   C12       1.0  0.25187  0.48058  0.93339  1.0000
  C   C13       1.0  0.75187  0.98056  0.56661  1.0000
  C   C14       1.0  0.75187  0.01943  0.93339  1.0000
  C   C15       1.0  0.74813  0.48057  0.43339  1.0000
  C   C16       1.0  0.74811  0.51943  0.06661  1.0000
  C   C17       1.0  0.04207  0.04969  0.47161  1.0000
  C   C18       1.0  0.04206  0.95030  0.02839  1.0000
  C   C19       1.0  0.45791  0.54971  0.52842  1.0000
  C   C20       1.0  0.45790  0.45030  0.97159  1.0000
  C   C21       1.0  0.95794  0.95030  0.52839  1.0000
  C   C22       1.0  0.95792  0.04970  0.97160  1.0000
  C   C23       1.0  0.54212  0.45029  0.47158  1.0000
  C   C24       1.0  0.54208  0.54971  0.02841  1.0000
  O   O1        1.0  0.27890  0.13717  0.30047  1.0000
  O   O2        1.0  0.27890  0.86282  0.19952  1.0000
  O   O3        1.0  0.22112  0.63718  0.69952  1.0000
  O   O4        1.0  0.22110  0.36282  0.80048  1.0000
  O   O5        1.0  0.72109  0.86283  0.69953  1.0000
  O   O6        1.0  0.72109  0.13717  0.80048  1.0000
  O   O7        1.0  0.77894  0.36283  0.30048  1.0000
  O   O8        1.0  0.77891  0.63716  0.19952  1.0000
  O   O9        1.0  0.22109  0.92225  0.37319  1.0000
  O   O10       1.0  0.22107  0.07775  0.12681  1.0000
  O   O11       1.0  0.27892  0.42226  0.62680  1.0000
  O   O12       1.0  0.27891  0.57775  0.87319  1.0000
  O   O13       1.0  0.77891  0.07775  0.62680  1.0000
  O   O14       1.0  0.77890  0.92226  0.87320  1.0000
  O   O15       1.0  0.72110  0.57775  0.37319  1.0000
  O   O16       1.0  0.72107  0.42225  0.12680  1.0000
  O   O17       1.0  0.90745  0.07454  0.39913  1.0000
  O   O18       1.0  0.90744  0.92545  0.10087  1.0000
  O   O19       1.0  0.59257  0.57453  0.60087  1.0000
  O   O20       1.0  0.59255  0.42547  0.89913  1.0000
  O   O21       1.0  0.09255  0.92546  0.60088  1.0000
  O   O22       1.0  0.09254  0.07454  0.89913  1.0000
  O   O23       1.0  0.40746  0.42546  0.39913  1.0000
  O   O24       1.0  0.40744  0.57455  0.10088  1.0000
  O   O25       1.0  0.39549  0.20780  0.43386  1.0000
  O   O26       1.0  0.39548  0.79220  0.06614  1.0000
  O   O27       1.0  0.10453  0.70781  0.56614  1.0000
  O   O28       1.0  0.10448  0.29219  0.93387  1.0000
  O   O29       1.0  0.60454  0.79219  0.56614  1.0000
  O   O30       1.0  0.60450  0.20781  0.93386  1.0000
  O   O31       1.0  0.89550  0.29219  0.43387  1.0000
  O   O32       1.0  0.89550  0.70781  0.06614  1.0000
  O   O33       1.0  0.78837  0.83983  0.28913  1.0000
  O   O34       1.0  0.78840  0.16017  0.21088  1.0000
  O   O35       1.0  0.71161  0.33983  0.71088  1.0000
  O   O36       1.0  0.71162  0.66018  0.78912  1.0000
  O   O37       1.0  0.21160  0.16017  0.71088  1.0000
  O   O38       1.0  0.21160  0.83984  0.78912  1.0000
  O   O39       1.0  0.28838  0.66017  0.28913  1.0000
  O   O40       1.0  0.28841  0.33983  0.21088  1.0000
