data_image0
_chemical_formula_structural       Cd4H40C44N4O20
_chemical_formula_sum              "Cd4 H40 C44 N4 O20"
_cell_length_a       11.0381
_cell_length_b       11.1431
_cell_length_c       12.2533
_cell_angle_alpha    62.7841
_cell_angle_beta     77.6934
_cell_angle_gamma    61.5053

_space_group_name_H-M_alt    "P 1"
_space_group_IT_number       1

loop_
  _space_group_symop_operation_xyz
  'x, y, z'

loop_
  _atom_site_type_symbol
  _atom_site_label
  _atom_site_symmetry_multiplicity
  _atom_site_fract_x
  _atom_site_fract_y
  _atom_site_fract_z
  _atom_site_occupancy
  Cd  Cd1       1.0  0.39946  0.27275  0.06513  1.0000
  Cd  Cd2       1.0  0.00261  0.84291  0.36600  1.0000
  Cd  Cd3       1.0  0.63396  0.89853  0.27731  1.0000
  Cd  Cd4       1.0  0.73900  0.21095  0.18608  1.0000
  H   H1        1.0  0.14282  0.90486  0.73327  1.0000
  H   H2        1.0  0.90985  0.00390  0.65184  1.0000
  H   H3        1.0  0.70095  0.09750  0.77281  1.0000
  H   H4        1.0  0.23307  0.02338  0.45130  1.0000
  H   H5        1.0  0.85399  0.42337  0.32441  1.0000
  H   H6        1.0  0.25924  0.08373  0.71288  1.0000
  H   H7        1.0  0.48027  0.93176  0.82857  1.0000
  H   H8        1.0  0.70328  0.87740  0.71365  1.0000
  H   H9        1.0  0.17316  0.42455  0.47220  1.0000
  H   H10       1.0  0.27798  0.66804  0.92967  1.0000
  H   H11       1.0  0.16729  0.06481  0.98495  1.0000
  H   H12       1.0  0.56246  0.68791  0.10316  1.0000
  H   H13       1.0  0.72753  0.60651  0.53313  1.0000
  H   H14       1.0  0.61782  0.38371  0.79062  1.0000
  H   H15       1.0  0.68255  0.48305  0.82191  1.0000
  H   H16       1.0  0.76132  0.41462  0.70529  1.0000
  H   H17       1.0  0.41615  0.73968  0.73785  1.0000
  H   H18       1.0  0.39140  0.58722  0.74929  1.0000
  H   H19       1.0  0.36365  0.74881  0.60501  1.0000
  H   H20       1.0  0.34017  0.73421  0.32750  1.0000
  H   H21       1.0  0.56215  0.61647  0.31566  1.0000
  H   H22       1.0  0.60813  0.42475  0.34996  1.0000
  H   H23       1.0  0.65564  0.46842  0.45269  1.0000
  H   H24       1.0  0.48245  0.29401  0.53931  1.0000
  H   H25       1.0  0.34606  0.41455  0.60320  1.0000
  H   H26       1.0  0.52222  0.35740  0.63115  1.0000
  H   H27       1.0  0.06441  0.64726  0.10632  1.0000
  H   H28       1.0  0.98742  0.41629  0.97420  1.0000
  H   H29       1.0  0.91764  0.37273  0.12417  1.0000
  H   H30       1.0  0.10034  0.30546  0.10453  1.0000
  H   H31       1.0  0.86018  0.75811  0.03749  1.0000
  H   H32       1.0  0.77840  0.63597  0.10412  1.0000
  H   H33       1.0  0.82191  0.69389  0.94512  1.0000
  H   H34       1.0  0.26985  0.26583  0.85880  1.0000
  H   H35       1.0  0.05283  0.65247  0.81441  1.0000
  H   H36       1.0  0.93798  0.67925  0.71208  1.0000
  H   H37       1.0  0.09397  0.69436  0.65595  1.0000
  H   H38       1.0  0.95728  0.41516  0.77226  1.0000
  H   H39       1.0  0.12544  0.29691  0.73896  1.0000
  H   H40       1.0  0.03018  0.48026  0.62383  1.0000
  C   C1        1.0  0.81641  0.05061  0.91939  1.0000
  C   C2        1.0  0.94838  0.99358  0.96564  1.0000
  C   C3        1.0  0.06700  0.94073  0.89828  1.0000
  C   C4        1.0  0.05111  0.94560  0.78542  1.0000
  C   C5        1.0  0.92055  0.00248  0.73895  1.0000
  C   C6        1.0  0.80396  0.05493  0.80583  1.0000
  C   C7        1.0  0.68773  0.10202  0.99056  1.0000
  C   C8        1.0  0.21823  0.21341  0.47084  1.0000
  C   C9        1.0  0.16901  0.13978  0.43760  1.0000
  C   C10       1.0  0.03746  0.21487  0.38595  1.0000
  C   C11       1.0  0.95577  0.36498  0.36542  1.0000
  C   C12       1.0  0.35394  0.12650  0.53496  1.0000
  C   C13       1.0  0.35662  0.06485  0.66355  1.0000
  C   C14       1.0  0.48078  0.97793  0.72872  1.0000
  C   C15       1.0  0.60471  0.94805  0.66511  1.0000
  C   C16       1.0  0.60511  0.00758  0.53662  1.0000
  C   C17       1.0  0.47926  0.10045  0.47112  1.0000
  C   C18       1.0  0.98363  0.13516  0.35243  1.0000
  C   C19       1.0  0.13589  0.36402  0.44941  1.0000
  C   C20       1.0  0.00435  0.44026  0.39655  1.0000
  C   C21       1.0  0.20625  0.87568  0.94902  1.0000
  C   C22       1.0  0.30326  0.73173  0.95968  1.0000
  C   C23       1.0  0.24093  0.95285  0.99196  1.0000
  C   C24       1.0  0.96517  0.98470  0.08861  1.0000
  C   C25       1.0  0.48021  0.17883  0.33310  1.0000
  C   C26       1.0  0.91434  0.60053  0.37684  1.0000
  C   C27       1.0  0.36891  0.88556  0.04784  1.0000
  C   C28       1.0  0.46344  0.74121  0.05901  1.0000
  C   C29       1.0  0.43199  0.66442  0.01428  1.0000
  C   C30       1.0  0.40785  0.96462  0.09693  1.0000
  C   C31       1.0  0.74025  0.96286  0.47291  1.0000
  C   C32       1.0  0.53340  0.50749  0.03178  1.0000
  C   C33       1.0  0.61641  0.66832  0.54606  1.0000
  C   C34       1.0  0.66340  0.46330  0.74852  1.0000
  C   C35       1.0  0.42625  0.67360  0.68897  1.0000
  C   C36       1.0  0.32820  0.64257  0.41052  1.0000
  C   C37       1.0  0.57529  0.50694  0.38891  1.0000
  C   C38       1.0  0.44927  0.38857  0.56360  1.0000
  C   C39       1.0  0.09283  0.53914  0.10350  1.0000
  C   C40       1.0  0.00030  0.39913  0.06743  1.0000
  C   C41       1.0  0.85491  0.66296  0.03664  1.0000
  C   C42       1.0  0.22640  0.38627  0.83709  1.0000
  C   C43       1.0  0.04570  0.63445  0.73574  1.0000
  C   C44       1.0  0.05336  0.41336  0.72234  1.0000
  N   N1        1.0  0.56975  0.60242  0.65582  1.0000
  N   N2        1.0  0.44621  0.52002  0.45446  1.0000
  N   N3        1.0  0.98949  0.53470  0.06672  1.0000
  N   N4        1.0  0.11447  0.47432  0.76552  1.0000
  O   O1        1.0  0.06905  0.00421  0.36087  1.0000
  O   O2        1.0  0.85743  0.20507  0.31944  1.0000
  O   O3        1.0  0.70031  0.06872  0.10510  1.0000
  O   O4        1.0  0.57309  0.17469  0.93644  1.0000
  O   O5        1.0  0.00955  0.85437  0.17590  1.0000
  O   O6        1.0  0.93878  0.10580  0.09467  1.0000
  O   O7        1.0  0.44520  0.13131  0.27237  1.0000
  O   O8        1.0  0.51671  0.28311  0.28701  1.0000
  O   O9        1.0  0.81185  0.67360  0.30370  1.0000
  O   O10       1.0  0.94337  0.64967  0.43848  1.0000
  O   O11       1.0  0.85040  0.90205  0.53025  1.0000
  O   O12       1.0  0.50009  0.43413  0.99993  1.0000
  O   O13       1.0  0.33000  0.10213  0.07156  1.0000
  O   O14       1.0  0.51904  0.88228  0.16045  1.0000
  O   O15       1.0  0.65108  0.45699  0.07828  1.0000
  O   O16       1.0  0.74122  0.98285  0.35897  1.0000
  O   O17       1.0  0.21247  0.65471  0.45888  1.0000
  O   O18       1.0  0.54217  0.79028  0.46309  1.0000
  O   O19       1.0  0.21089  0.43425  0.13526  1.0000
  O   O20       1.0  0.27807  0.43541  0.87950  1.0000
