data_image0
_chemical_formula_structural       Cu2P4H64C40N12Cl12O16
_chemical_formula_sum              "Cu2 P4 H64 C40 N12 Cl12 O16"
_cell_length_a       10.2497
_cell_length_b       12.7508
_cell_length_c       14.375
_cell_angle_alpha    101.492
_cell_angle_beta     99.2379
_cell_angle_gamma    113.23

_space_group_name_H-M_alt    "P 1"
_space_group_IT_number       1

loop_
  _space_group_symop_operation_xyz
  'x, y, z'

loop_
  _atom_site_type_symbol
  _atom_site_label
  _atom_site_symmetry_multiplicity
  _atom_site_fract_x
  _atom_site_fract_y
  _atom_site_fract_z
  _atom_site_occupancy
  Cu  Cu1       1.0  0.22181  0.96982  0.73915  1.0000
  Cu  Cu2       1.0  0.77819  0.03019  0.26085  1.0000
  P   P1        1.0  0.22640  0.17827  0.65693  1.0000
  P   P2        1.0  0.77359  0.82173  0.34307  1.0000
  P   P3        1.0  0.24382  0.77178  0.82564  1.0000
  P   P4        1.0  0.75619  0.22822  0.17436  1.0000
  H   H1        1.0  0.47473  0.98283  0.09802  1.0000
  H   H2        1.0  0.52528  0.01717  0.90198  1.0000
  H   H3        1.0  0.29632  0.40453  0.64462  1.0000
  H   H4        1.0  0.70368  0.59546  0.35537  1.0000
  H   H5        1.0  0.47752  0.69097  0.94293  1.0000
  H   H6        1.0  0.52248  0.30903  0.05706  1.0000
  H   H7        1.0  0.40507  0.46424  0.82444  1.0000
  H   H8        1.0  0.59493  0.53576  0.17556  1.0000
  H   H9        1.0  0.53643  0.78807  0.86858  1.0000
  H   H10       1.0  0.46358  0.21194  0.13142  1.0000
  H   H11       1.0  0.07571  0.37197  0.72860  1.0000
  H   H12       1.0  0.92430  0.62803  0.27140  1.0000
  H   H13       1.0  0.87904  0.58592  0.82111  1.0000
  H   H14       1.0  0.12096  0.41408  0.17889  1.0000
  H   H15       1.0  0.95531  0.19550  0.62231  1.0000
  H   H16       1.0  0.04469  0.80450  0.37769  1.0000
  H   H17       1.0  0.60240  0.31313  0.66671  1.0000
  H   H18       1.0  0.39759  0.68686  0.33329  1.0000
  H   H19       1.0  0.50674  0.19858  0.71780  1.0000
  H   H20       1.0  0.49325  0.80141  0.28221  1.0000
  H   H21       1.0  0.22563  0.82434  0.01243  1.0000
  H   H22       1.0  0.77437  0.17566  0.98757  1.0000
  H   H23       1.0  0.77547  0.49249  0.64293  1.0000
  H   H24       1.0  0.22453  0.50751  0.35707  1.0000
  H   H25       1.0  0.88768  0.07658  0.51080  1.0000
  H   H26       1.0  0.11232  0.92342  0.48920  1.0000
  H   H27       1.0  0.26865  0.17181  0.47523  1.0000
  H   H28       1.0  0.73136  0.82818  0.52478  1.0000
  H   H29       1.0  0.47319  0.44148  0.62277  1.0000
  H   H30       1.0  0.52681  0.55851  0.37722  1.0000
  H   H31       1.0  0.94298  0.70043  0.76360  1.0000
  H   H32       1.0  0.05702  0.29957  0.23640  1.0000
  H   H33       1.0  0.02304  0.34361  0.52769  1.0000
  H   H34       1.0  0.97696  0.65638  0.47231  1.0000
  H   H35       1.0  0.27947  0.71193  0.03119  1.0000
  H   H36       1.0  0.72053  0.28807  0.96881  1.0000
  H   H37       1.0  0.19990  0.32686  0.43964  1.0000
  H   H38       1.0  0.80011  0.67314  0.56035  1.0000
  H   H39       1.0  0.06370  0.50206  0.87684  1.0000
  H   H40       1.0  0.93630  0.49795  0.12316  1.0000
  H   H41       1.0  0.24080  0.56916  0.85591  1.0000
  H   H42       1.0  0.75920  0.43085  0.14409  1.0000
  H   H43       1.0  0.50062  0.58471  0.77658  1.0000
  H   H44       1.0  0.49938  0.41529  0.22342  1.0000
  H   H45       1.0  0.13188  0.49469  0.67609  1.0000
  H   H46       1.0  0.86812  0.50531  0.32391  1.0000
  H   H47       1.0  0.71069  0.38729  0.84545  1.0000
  H   H48       1.0  0.28931  0.61271  0.15455  1.0000
  H   H49       1.0  0.95385  0.56138  0.62154  1.0000
  H   H50       1.0  0.04615  0.43861  0.37846  1.0000
  H   H51       1.0  0.83423  0.23716  0.47597  1.0000
  H   H52       1.0  0.16576  0.76283  0.52402  1.0000
  H   H53       1.0  0.53186  0.34726  0.86740  1.0000
  H   H54       1.0  0.46814  0.65274  0.13260  1.0000
  H   H55       1.0  0.13085  0.20504  0.32903  1.0000
  H   H56       1.0  0.86915  0.79495  0.67097  1.0000
  H   H57       1.0  0.65273  0.96402  0.01703  1.0000
  H   H58       1.0  0.34728  0.03598  0.98297  1.0000
  H   H59       1.0  0.71706  0.85654  0.03507  1.0000
  H   H60       1.0  0.28294  0.14346  0.96494  1.0000
  H   H61       1.0  0.41428  0.89019  0.17558  1.0000
  H   H62       1.0  0.58572  0.10982  0.82442  1.0000
  H   H63       1.0  0.08453  0.05975  0.42110  1.0000
  H   H64       1.0  0.91547  0.94024  0.57891  1.0000
  C   C1        1.0  0.37672  0.82651  0.69119  1.0000
  C   C2        1.0  0.62329  0.17351  0.30881  1.0000
  C   C3        1.0  0.97024  0.16904  0.54901  1.0000
  C   C4        1.0  0.02975  0.83096  0.45099  1.0000
  C   C5        1.0  0.09656  0.13402  0.79513  1.0000
  C   C6        1.0  0.90344  0.86597  0.20488  1.0000
  C   C7        1.0  0.48240  0.80472  0.63005  1.0000
  C   C8        1.0  0.51760  0.19528  0.36995  1.0000
  C   C9        1.0  0.31818  0.80101  0.01916  1.0000
  C   C10       1.0  0.68182  0.19899  0.98084  1.0000
  C   C11       1.0  0.02452  0.18136  0.87235  1.0000
  C   C12       1.0  0.97548  0.81863  0.12766  1.0000
  C   C13       1.0  0.15264  0.15434  0.46311  1.0000
  C   C14       1.0  0.84736  0.84566  0.53689  1.0000
  C   C15       1.0  0.40488  0.40854  0.67228  1.0000
  C   C16       1.0  0.59512  0.59146  0.32772  1.0000
  C   C17       1.0  0.49993  0.78094  0.93559  1.0000
  C   C18       1.0  0.50007  0.21906  0.06440  1.0000
  C   C19       1.0  0.12326  0.54312  0.82630  1.0000
  C   C20       1.0  0.87675  0.45688  0.17370  1.0000
  C   C21       1.0  0.61990  0.87358  0.02485  1.0000
  C   C22       1.0  0.38010  0.12641  0.97515  1.0000
  C   C23       1.0  0.44453  0.89252  0.10605  1.0000
  C   C24       1.0  0.55547  0.10748  0.89396  1.0000
  C   C25       1.0  0.94800  0.24900  0.48895  1.0000
  C   C26       1.0  0.05200  0.75099  0.51104  1.0000
  C   C27       1.0  0.12114  0.23206  0.40392  1.0000
  C   C28       1.0  0.87886  0.76793  0.59607  1.0000
  C   C29       1.0  0.06639  0.45384  0.72462  1.0000
  C   C30       1.0  0.93362  0.54616  0.27538  1.0000
  C   C31       1.0  0.94861  0.61890  0.77258  1.0000
  C   C32       1.0  0.05139  0.38110  0.22742  1.0000
  C   C33       1.0  0.89406  0.52395  0.67366  1.0000
  C   C34       1.0  0.10594  0.47605  0.32634  1.0000
  C   C35       1.0  0.47838  0.49308  0.77635  1.0000
  C   C36       1.0  0.52162  0.50692  0.22365  1.0000
  C   C37       1.0  0.52809  0.28889  0.71456  1.0000
  C   C38       1.0  0.47191  0.71110  0.28545  1.0000
  C   C39       1.0  0.59940  0.37811  0.81691  1.0000
  C   C40       1.0  0.40060  0.62189  0.18309  1.0000
  N   N1        1.0  0.32757  0.75043  0.74047  1.0000
  N   N2        1.0  0.67243  0.24958  0.25953  1.0000
  N   N3        1.0  0.36674  0.79894  0.92866  1.0000
  N   N4        1.0  0.63326  0.20107  0.07134  1.0000
  N   N5        1.0  0.15055  0.20747  0.74456  1.0000
  N   N6        1.0  0.84945  0.79253  0.25543  1.0000
  N   N7        1.0  0.10108  0.64852  0.82046  1.0000
  N   N8        1.0  0.89893  0.35149  0.17954  1.0000
  N   N9        1.0  0.38879  0.28881  0.67026  1.0000
  N   N10       1.0  0.61121  0.71119  0.32974  1.0000
  N   N11       1.0  0.11985  0.17946  0.55832  1.0000
  N   N12       1.0  0.88015  0.82054  0.44169  1.0000
  Cl  Cl1       1.0  0.94628  0.07689  0.93592  1.0000
  Cl  Cl2       1.0  0.05372  0.92311  0.06408  1.0000
  Cl  Cl3       1.0  0.88481  0.21160  0.80841  1.0000
  Cl  Cl4       1.0  0.11519  0.78840  0.19159  1.0000
  Cl  Cl5       1.0  0.16333  0.31584  0.96091  1.0000
  Cl  Cl6       1.0  0.83667  0.68416  0.03909  1.0000
  Cl  Cl7       1.0  0.49444  0.87473  0.53507  1.0000
  Cl  Cl8       1.0  0.50557  0.12527  0.46493  1.0000
  Cl  Cl9       1.0  0.65947  0.87064  0.71819  1.0000
  Cl  Cl10      1.0  0.34053  0.12936  0.28181  1.0000
  Cl  Cl11      1.0  0.42751  0.64982  0.57752  1.0000
  Cl  Cl12      1.0  0.57248  0.35018  0.42248  1.0000
  O   O1        1.0  0.24881  0.06551  0.64623  1.0000
  O   O2        1.0  0.75118  0.93449  0.35377  1.0000
  O   O3        1.0  0.09176  0.03234  0.79393  1.0000
  O   O4        1.0  0.90824  0.96767  0.20608  1.0000
  O   O5        1.0  0.19051  0.86794  0.82806  1.0000
  O   O6        1.0  0.80949  0.13206  0.17194  1.0000
  O   O7        1.0  0.36168  0.91996  0.68678  1.0000
  O   O8        1.0  0.63833  0.08004  0.31323  1.0000
  O   O9        1.0  0.97370  0.21903  0.39385  1.0000
  O   O10       1.0  0.02630  0.78097  0.60615  1.0000
  O   O11       1.0  0.91384  0.42087  0.68358  1.0000
  O   O12       1.0  0.08617  0.57913  0.31642  1.0000
  O   O13       1.0  0.61746  0.49521  0.81512  1.0000
  O   O14       1.0  0.38254  0.50479  0.18488  1.0000
  O   O15       1.0  0.57158  0.86920  0.11341  1.0000
  O   O16       1.0  0.42842  0.13080  0.88659  1.0000
