data_image0
_chemical_formula_structural       Zn4H48C72N8O16
_chemical_formula_sum              "Zn4 H48 C72 N8 O16"
_cell_length_a       9.22262
_cell_length_b       11.2005
_cell_length_c       16.6822
_cell_angle_alpha    101.052
_cell_angle_beta     94.3827
_cell_angle_gamma    109.515

_space_group_name_H-M_alt    "P 1"
_space_group_IT_number       1

loop_
  _space_group_symop_operation_xyz
  'x, y, z'

loop_
  _atom_site_type_symbol
  _atom_site_label
  _atom_site_symmetry_multiplicity
  _atom_site_fract_x
  _atom_site_fract_y
  _atom_site_fract_z
  _atom_site_occupancy
  Zn  Zn1       1.0  0.20538  0.15737  0.49565  1.0000
  Zn  Zn2       1.0  0.79461  0.84262  0.50436  1.0000
  Zn  Zn3       1.0  0.22892  0.47627  0.15297  1.0000
  Zn  Zn4       1.0  0.77108  0.52373  0.84703  1.0000
  H   H1        1.0  0.01253  0.33493  0.52492  1.0000
  H   H2        1.0  0.98747  0.66506  0.47509  1.0000
  H   H3        1.0  0.06138  0.57051  0.59199  1.0000
  H   H4        1.0  0.93862  0.42948  0.40801  1.0000
  H   H5        1.0  0.33655  0.71788  0.65015  1.0000
  H   H6        1.0  0.66344  0.28211  0.34985  1.0000
  H   H7        1.0  0.54832  0.62840  0.63940  1.0000
  H   H8        1.0  0.45168  0.37160  0.36059  1.0000
  H   H9        1.0  0.70443  0.53192  0.65013  1.0000
  H   H10       1.0  0.29557  0.46809  0.34986  1.0000
  H   H11       1.0  0.87816  0.40552  0.64423  1.0000
  H   H12       1.0  0.12184  0.59448  0.35577  1.0000
  H   H13       1.0  0.78212  0.17449  0.55714  1.0000
  H   H14       1.0  0.21788  0.82551  0.44285  1.0000
  H   H15       1.0  0.50715  0.08307  0.48158  1.0000
  H   H16       1.0  0.49284  0.91692  0.51842  1.0000
  H   H17       1.0  0.24166  0.19720  0.20658  1.0000
  H   H18       1.0  0.75834  0.80281  0.79343  1.0000
  H   H19       1.0  0.23776  0.08786  0.05974  1.0000
  H   H20       1.0  0.76224  0.91214  0.94026  1.0000
  H   H21       1.0  0.22341  0.85628  0.02545  1.0000
  H   H22       1.0  0.77659  0.14373  0.97455  1.0000
  H   H23       1.0  0.20626  0.84312  0.28062  1.0000
  H   H24       1.0  0.79375  0.15688  0.71938  1.0000
  H   H25       1.0  0.57554  0.94761  0.31221  1.0000
  H   H26       1.0  0.42446  0.05239  0.68779  1.0000
  H   H27       1.0  0.48932  0.01669  0.18909  1.0000
  H   H28       1.0  0.51068  0.98331  0.81092  1.0000
  H   H29       1.0  0.68162  0.18386  0.13284  1.0000
  H   H30       1.0  0.31839  0.81614  0.86716  1.0000
  H   H31       1.0  0.03718  0.22675  0.32961  1.0000
  H   H32       1.0  0.96282  0.77324  0.67039  1.0000
  H   H33       1.0  0.52071  0.69459  0.27321  1.0000
  H   H34       1.0  0.47929  0.30541  0.72679  1.0000
  H   H35       1.0  0.80754  0.74611  0.29452  1.0000
  H   H36       1.0  0.19246  0.25389  0.70548  1.0000
  H   H37       1.0  0.91713  0.60000  0.20134  1.0000
  H   H38       1.0  0.08288  0.40001  0.79866  1.0000
  H   H39       1.0  0.73886  0.42284  0.08859  1.0000
  H   H40       1.0  0.26114  0.57717  0.91141  1.0000
  H   H41       1.0  0.57733  0.29342  0.98847  1.0000
  H   H42       1.0  0.42267  0.70657  0.01153  1.0000
  H   H43       1.0  0.36821  0.13541  0.87776  1.0000
  H   H44       1.0  0.63179  0.86459  0.12224  1.0000
  H   H45       1.0  0.09268  0.12722  0.87978  1.0000
  H   H46       1.0  0.90732  0.87278  0.12022  1.0000
  H   H47       1.0  0.03907  0.27844  0.99743  1.0000
  H   H48       1.0  0.96093  0.72157  0.00257  1.0000
  C   C1        1.0  0.12835  0.40385  0.55255  1.0000
  C   C2        1.0  0.87164  0.59615  0.44745  1.0000
  C   C3        1.0  0.15682  0.53390  0.58907  1.0000
  C   C4        1.0  0.84317  0.46610  0.41093  1.0000
  C   C5        1.0  0.30947  0.61537  0.62156  1.0000
  C   C6        1.0  0.69053  0.38463  0.37845  1.0000
  C   C7        1.0  0.42797  0.56451  0.61656  1.0000
  C   C8        1.0  0.57203  0.43549  0.38344  1.0000
  C   C9        1.0  0.39033  0.43260  0.57969  1.0000
  C   C10       1.0  0.60966  0.56740  0.42031  1.0000
  C   C11       1.0  0.50870  0.37005  0.57330  1.0000
  C   C12       1.0  0.49130  0.62995  0.42670  1.0000
  C   C13       1.0  0.66238  0.43204  0.61353  1.0000
  C   C14       1.0  0.33761  0.56795  0.38647  1.0000
  C   C15       1.0  0.76111  0.36094  0.60940  1.0000
  C   C16       1.0  0.23889  0.63906  0.39060  1.0000
  C   C17       1.0  0.70861  0.23338  0.56184  1.0000
  C   C18       1.0  0.29139  0.76662  0.43816  1.0000
  C   C19       1.0  0.55553  0.18099  0.52127  1.0000
  C   C20       1.0  0.44446  0.81901  0.47873  1.0000
  C   C21       1.0  0.23313  0.09358  0.34016  1.0000
  C   C22       1.0  0.76687  0.90642  0.65984  1.0000
  C   C23       1.0  0.22617  0.02718  0.25234  1.0000
  C   C24       1.0  0.77383  0.97281  0.74766  1.0000
  C   C25       1.0  0.23446  0.09612  0.18990  1.0000
  C   C26       1.0  0.76554  0.90388  0.81010  1.0000
  C   C27       1.0  0.23197  0.03467  0.10833  1.0000
  C   C28       1.0  0.76803  0.96533  0.89167  1.0000
  C   C29       1.0  0.22343  0.90535  0.08868  1.0000
  C   C30       1.0  0.77657  0.09466  0.91132  1.0000
  C   C31       1.0  0.21309  0.83558  0.15082  1.0000
  C   C32       1.0  0.78691  0.16442  0.84917  1.0000
  C   C33       1.0  0.21305  0.89667  0.23223  1.0000
  C   C34       1.0  0.78694  0.10333  0.76776  1.0000
  C   C35       1.0  0.20815  0.69809  0.13114  1.0000
  C   C36       1.0  0.79185  0.30191  0.86885  1.0000
  C   C37       1.0  0.86379  0.04203  0.40349  1.0000
  C   C38       1.0  0.13621  0.95797  0.59652  1.0000
  C   C39       1.0  0.81154  0.08312  0.32905  1.0000
  C   C40       1.0  0.18846  0.91688  0.67095  1.0000
  C   C41       1.0  0.65743  0.02320  0.28857  1.0000
  C   C42       1.0  0.34257  0.97679  0.71143  1.0000
  C   C43       1.0  0.60960  0.06133  0.21934  1.0000
  C   C44       1.0  0.39041  0.93867  0.78067  1.0000
  C   C45       1.0  0.71613  0.15525  0.18801  1.0000
  C   C46       1.0  0.28387  0.84474  0.81199  1.0000
  C   C47       1.0  0.87090  0.21448  0.22730  1.0000
  C   C48       1.0  0.12911  0.78551  0.77270  1.0000
  C   C49       1.0  0.91694  0.18062  0.29906  1.0000
  C   C50       1.0  0.08307  0.81938  0.70094  1.0000
  C   C51       1.0  0.98577  0.31058  0.19057  1.0000
  C   C52       1.0  0.01424  0.68942  0.80943  1.0000
  C   C53       1.0  0.57351  0.63618  0.23407  1.0000
  C   C54       1.0  0.42650  0.36382  0.76593  1.0000
  C   C55       1.0  0.73365  0.66371  0.24560  1.0000
  C   C56       1.0  0.26635  0.33630  0.75440  1.0000
  C   C57       1.0  0.79290  0.58382  0.19381  1.0000
  C   C58       1.0  0.20711  0.41618  0.80618  1.0000
  C   C59       1.0  0.69206  0.48329  0.13024  1.0000
  C   C60       1.0  0.30795  0.51671  0.86976  1.0000
  C   C61       1.0  0.53288  0.46342  0.12152  1.0000
  C   C62       1.0  0.46712  0.53657  0.87848  1.0000
  C   C63       1.0  0.41675  0.36486  0.05340  1.0000
  C   C64       1.0  0.58325  0.63514  0.94660  1.0000
  C   C65       1.0  0.45645  0.28513  0.99035  1.0000
  C   C66       1.0  0.54355  0.71486  0.00965  1.0000
  C   C67       1.0  0.33963  0.19845  0.92740  1.0000
  C   C68       1.0  0.66037  0.80154  0.07260  1.0000
  C   C69       1.0  0.18658  0.19330  0.92818  1.0000
  C   C70       1.0  0.81342  0.80670  0.07181  1.0000
  C   C71       1.0  0.15521  0.27594  0.99264  1.0000
  C   C72       1.0  0.84480  0.72406  0.00736  1.0000
  N   N1        1.0  0.47557  0.53728  0.17481  1.0000
  N   N2        1.0  0.52443  0.46272  0.82519  1.0000
  N   N3        1.0  0.26754  0.35859  0.05347  1.0000
  N   N4        1.0  0.73246  0.64141  0.94653  1.0000
  N   N5        1.0  0.24196  0.35425  0.54842  1.0000
  N   N6        1.0  0.75804  0.64575  0.45158  1.0000
  N   N7        1.0  0.45755  0.24611  0.52869  1.0000
  N   N8        1.0  0.54245  0.75388  0.47131  1.0000
  O   O1        1.0  0.26014  0.21438  0.35893  1.0000
  O   O2        1.0  0.73987  0.78562  0.64107  1.0000
  O   O3        1.0  0.20782  0.02256  0.39382  1.0000
  O   O4        1.0  0.79218  0.97744  0.60618  1.0000
  O   O5        1.0  0.21919  0.64423  0.05993  1.0000
  O   O6        1.0  0.78081  0.35577  0.94007  1.0000
  O   O7        1.0  0.19540  0.64111  0.19264  1.0000
  O   O8        1.0  0.80460  0.35889  0.80735  1.0000
  O   O9        1.0  0.79345  0.92320  0.40544  1.0000
  O   O10       1.0  0.20655  0.07680  0.59456  1.0000
  O   O11       1.0  0.96956  0.12655  0.45874  1.0000
  O   O12       1.0  0.03044  0.87345  0.54127  1.0000
  O   O13       1.0  0.12734  0.36437  0.22960  1.0000
  O   O14       1.0  0.87266  0.63563  0.77040  1.0000
  O   O15       1.0  0.94499  0.33487  0.12356  1.0000
  O   O16       1.0  0.05501  0.66512  0.87644  1.0000
