data_image0
_chemical_formula_structural       Cu4H40C24N32Cl8
_chemical_formula_sum              "Cu4 H40 C24 N32 Cl8"
_cell_length_a       6.71853
_cell_length_b       11.4904
_cell_length_c       14.5838
_cell_angle_alpha    89.9999
_cell_angle_beta     90
_cell_angle_gamma    90.0147

_space_group_name_H-M_alt    "P 1"
_space_group_IT_number       1

loop_
  _space_group_symop_operation_xyz
  'x, y, z'

loop_
  _atom_site_type_symbol
  _atom_site_label
  _atom_site_symmetry_multiplicity
  _atom_site_fract_x
  _atom_site_fract_y
  _atom_site_fract_z
  _atom_site_occupancy
  Cu  Cu1       1.0  0.16899  0.12578  1.00000  1.0000
  Cu  Cu2       1.0  0.66908  0.37413  0.50000  1.0000
  Cu  Cu3       1.0  0.33105  0.62586  0.50000  1.0000
  Cu  Cu4       1.0  0.83088  0.87423  0.00000  1.0000
  H   H1        1.0  0.11275  0.12804  0.42213  1.0000
  H   H2        1.0  0.11274  0.12804  0.57787  1.0000
  H   H3        1.0  0.61275  0.37198  0.92215  1.0000
  H   H4        1.0  0.38725  0.62804  0.92216  1.0000
  H   H5        1.0  0.88726  0.87198  0.57789  1.0000
  H   H6        1.0  0.88726  0.87198  0.42211  1.0000
  H   H7        1.0  0.38725  0.62804  0.07784  1.0000
  H   H8        1.0  0.61276  0.37198  0.07785  1.0000
  H   H9        1.0  0.36873  0.15300  0.39385  1.0000
  H   H10       1.0  0.36873  0.15300  0.60615  1.0000
  H   H11       1.0  0.86871  0.34704  0.89387  1.0000
  H   H12       1.0  0.13128  0.65296  0.89388  1.0000
  H   H13       1.0  0.63129  0.84700  0.60616  1.0000
  H   H14       1.0  0.63129  0.84700  0.39384  1.0000
  H   H15       1.0  0.13128  0.65297  0.10612  1.0000
  H   H16       1.0  0.86871  0.34704  0.10613  1.0000
  H   H17       1.0  0.26866  0.00700  0.39223  1.0000
  H   H18       1.0  0.26866  0.00700  0.60777  1.0000
  H   H19       1.0  0.76874  0.49303  0.89223  1.0000
  H   H20       1.0  0.23127  0.50697  0.89225  1.0000
  H   H21       1.0  0.73133  0.99301  0.60780  1.0000
  H   H22       1.0  0.73133  0.99301  0.39220  1.0000
  H   H23       1.0  0.23127  0.50697  0.10775  1.0000
  H   H24       1.0  0.76875  0.49303  0.10777  1.0000
  H   H25       1.0  0.56895  0.10543  0.25798  1.0000
  H   H26       1.0  0.56895  0.10543  0.74202  1.0000
  H   H27       1.0  0.06897  0.39461  0.75799  1.0000
  H   H28       1.0  0.93104  0.60540  0.75798  1.0000
  H   H29       1.0  0.43105  0.89458  0.74202  1.0000
  H   H30       1.0  0.43105  0.89458  0.25798  1.0000
  H   H31       1.0  0.93104  0.60540  0.24202  1.0000
  H   H32       1.0  0.06897  0.39461  0.24201  1.0000
  H   H33       1.0  0.55331  0.10200  0.13660  1.0000
  H   H34       1.0  0.55331  0.10199  0.86340  1.0000
  H   H35       1.0  0.05334  0.39802  0.63660  1.0000
  H   H36       1.0  0.94668  0.60199  0.63660  1.0000
  H   H37       1.0  0.44665  0.89801  0.86340  1.0000
  H   H38       1.0  0.44665  0.89801  0.13660  1.0000
  H   H39       1.0  0.94669  0.60199  0.36340  1.0000
  H   H40       1.0  0.05334  0.39802  0.36340  1.0000
  C   C1        1.0  0.27714  0.10255  0.20604  1.0000
  C   C2        1.0  0.27714  0.10255  0.79396  1.0000
  C   C3        1.0  0.77716  0.39739  0.70605  1.0000
  C   C4        1.0  0.22286  0.60259  0.70606  1.0000
  C   C5        1.0  0.72284  0.89744  0.79398  1.0000
  C   C6        1.0  0.72284  0.89744  0.20602  1.0000
  C   C7        1.0  0.22286  0.60259  0.29394  1.0000
  C   C8        1.0  0.77716  0.39739  0.29395  1.0000
  C   C9        1.0  0.23740  0.09939  0.37937  1.0000
  C   C10       1.0  0.23740  0.09939  0.62063  1.0000
  C   C11       1.0  0.73742  0.40064  0.87938  1.0000
  C   C12       1.0  0.26258  0.59936  0.87940  1.0000
  C   C13       1.0  0.76261  0.90062  0.62065  1.0000
  C   C14       1.0  0.76261  0.90062  0.37935  1.0000
  C   C15       1.0  0.26258  0.59936  0.12060  1.0000
  C   C16       1.0  0.73742  0.40064  0.12062  1.0000
  C   C17       1.0  0.48814  0.06698  0.19988  1.0000
  C   C18       1.0  0.48815  0.06698  0.80012  1.0000
  C   C19       1.0  0.98816  0.43302  0.69988  1.0000
  C   C20       1.0  0.01185  0.56698  0.69988  1.0000
  C   C21       1.0  0.51184  0.93302  0.80012  1.0000
  C   C22       1.0  0.51185  0.93302  0.19988  1.0000
  C   C23       1.0  0.01185  0.56698  0.30012  1.0000
  C   C24       1.0  0.98816  0.43302  0.30012  1.0000
  N   N1        1.0  0.17493  0.11633  0.28494  1.0000
  N   N2        1.0  0.17493  0.11633  0.71506  1.0000
  N   N3        1.0  0.67492  0.38367  0.78495  1.0000
  N   N4        1.0  0.32507  0.61632  0.78497  1.0000
  N   N5        1.0  0.82508  0.88366  0.71509  1.0000
  N   N6        1.0  0.82508  0.88366  0.28491  1.0000
  N   N7        1.0  0.32507  0.61632  0.21503  1.0000
  N   N8        1.0  0.67492  0.38367  0.21505  1.0000
  N   N9        1.0  0.98731  0.15121  0.26527  1.0000
  N   N10       1.0  0.98732  0.15121  0.73473  1.0000
  N   N11       1.0  0.48725  0.34883  0.76528  1.0000
  N   N12       1.0  0.51274  0.65116  0.76532  1.0000
  N   N13       1.0  0.01269  0.84878  0.73477  1.0000
  N   N14       1.0  0.01269  0.84878  0.26523  1.0000
  N   N15       1.0  0.51274  0.65116  0.23468  1.0000
  N   N16       1.0  0.48725  0.34883  0.23472  1.0000
  N   N17       1.0  0.97465  0.15867  0.17673  1.0000
  N   N18       1.0  0.97465  0.15867  0.82327  1.0000
  N   N19       1.0  0.47458  0.34130  0.67674  1.0000
  N   N20       1.0  0.52545  0.65867  0.67678  1.0000
  N   N21       1.0  0.02532  0.84131  0.82332  1.0000
  N   N22       1.0  0.02532  0.84131  0.17668  1.0000
  N   N23       1.0  0.52545  0.65867  0.32322  1.0000
  N   N24       1.0  0.47458  0.34131  0.32326  1.0000
  N   N25       1.0  0.15049  0.12821  0.13816  1.0000
  N   N26       1.0  0.15049  0.12821  0.86184  1.0000
  N   N27       1.0  0.65050  0.37172  0.63816  1.0000
  N   N28       1.0  0.34955  0.62826  0.63818  1.0000
  N   N29       1.0  0.84946  0.87178  0.86187  1.0000
  N   N30       1.0  0.84946  0.87178  0.13813  1.0000
  N   N31       1.0  0.34955  0.62826  0.36182  1.0000
  N   N32       1.0  0.65049  0.37172  0.36184  1.0000
  Cl  Cl1       1.0  0.24024  0.93131  0.00000  1.0000
  Cl  Cl2       1.0  0.73993  0.56865  0.50000  1.0000
  Cl  Cl3       1.0  0.26000  0.43139  0.50000  1.0000
  Cl  Cl4       1.0  0.75982  0.06874  0.00000  1.0000
  Cl  Cl5       1.0  0.22097  0.32231  1.00000  1.0000
  Cl  Cl6       1.0  0.72102  0.17758  0.50000  1.0000
  Cl  Cl7       1.0  0.27891  0.82241  0.50000  1.0000
  Cl  Cl8       1.0  0.77907  0.67769  0.00000  1.0000
