data_image0
_chemical_formula_structural       Ba2H32C20N16O18
_chemical_formula_sum              "Ba2 H32 C20 N16 O18"
_cell_length_a       6.72459
_cell_length_b       11.2953
_cell_length_c       12.6632
_cell_angle_alpha    107.587
_cell_angle_beta     92.4075
_cell_angle_gamma    100.196

_space_group_name_H-M_alt    "P 1"
_space_group_IT_number       1

loop_
  _space_group_symop_operation_xyz
  'x, y, z'

loop_
  _atom_site_type_symbol
  _atom_site_label
  _atom_site_symmetry_multiplicity
  _atom_site_fract_x
  _atom_site_fract_y
  _atom_site_fract_z
  _atom_site_occupancy
  Ba  Ba1       1.0  0.36173  0.50798  0.35520  1.0000
  Ba  Ba2       1.0  0.63827  0.49201  0.64479  1.0000
  H   H1        1.0  0.12859  0.42651  0.56769  1.0000
  H   H2        1.0  0.87141  0.57349  0.43231  1.0000
  H   H3        1.0  0.19188  0.57167  0.60539  1.0000
  H   H4        1.0  0.80812  0.42833  0.39460  1.0000
  H   H5        1.0  0.93029  0.24439  0.34315  1.0000
  H   H6        1.0  0.06971  0.75561  0.65685  1.0000
  H   H7        1.0  0.97264  0.29364  0.24033  1.0000
  H   H8        1.0  0.02736  0.70636  0.75967  1.0000
  H   H9        1.0  0.08691  0.74403  0.41561  1.0000
  H   H10       1.0  0.91309  0.25598  0.58439  1.0000
  H   H11       1.0  0.97114  0.64123  0.30268  1.0000
  H   H12       1.0  0.02886  0.35877  0.69732  1.0000
  H   H13       1.0  0.39827  0.24035  0.98770  1.0000
  H   H14       1.0  0.60173  0.75966  0.01230  1.0000
  H   H15       1.0  0.62202  0.21926  0.05423  1.0000
  H   H16       1.0  0.37798  0.78074  0.94577  1.0000
  H   H17       1.0  0.60474  0.20203  0.90796  1.0000
  H   H18       1.0  0.39526  0.79797  0.09204  1.0000
  H   H19       1.0  0.02670  0.80304  0.19152  1.0000
  H   H20       1.0  0.97331  0.19697  0.80847  1.0000
  H   H21       1.0  0.00997  0.78494  0.04404  1.0000
  H   H22       1.0  0.99003  0.21506  0.95596  1.0000
  H   H23       1.0  0.68216  0.00831  0.79690  1.0000
  H   H24       1.0  0.31783  0.99169  0.20310  1.0000
  H   H25       1.0  0.82157  0.88330  0.77574  1.0000
  H   H26       1.0  0.17842  0.11669  0.22426  1.0000
  H   H27       1.0  0.55054  0.84546  0.75675  1.0000
  H   H28       1.0  0.44945  0.15454  0.24325  1.0000
  H   H29       1.0  0.55930  0.77751  0.24321  1.0000
  H   H30       1.0  0.44071  0.22250  0.75679  1.0000
  H   H31       1.0  0.69668  0.94064  0.27649  1.0000
  H   H32       1.0  0.30333  0.05936  0.72351  1.0000
  C   C1        1.0  0.56418  0.25381  0.98949  1.0000
  C   C2        1.0  0.43582  0.74619  0.01051  1.0000
  C   C3        1.0  0.70019  0.46205  0.12920  1.0000
  C   C4        1.0  0.29982  0.53796  0.87080  1.0000
  C   C5        1.0  0.69584  0.43709  0.92874  1.0000
  C   C6        1.0  0.30416  0.56291  0.07126  1.0000
  C   C7        1.0  0.80962  0.56793  0.96223  1.0000
  C   C8        1.0  0.19038  0.43207  0.03777  1.0000
  C   C9        1.0  0.86758  0.63409  0.08042  1.0000
  C   C10       1.0  0.13242  0.36591  0.91957  1.0000
  C   C11       1.0  0.60171  0.78736  0.54922  1.0000
  C   C12       1.0  0.39828  0.21263  0.45078  1.0000
  C   C13       1.0  0.68486  0.91071  0.74765  1.0000
  C   C14       1.0  0.31513  0.08929  0.25235  1.0000
  C   C15       1.0  0.76933  0.01033  0.60351  1.0000
  C   C16       1.0  0.23067  0.98968  0.39651  1.0000
  C   C17       1.0  0.75163  0.99776  0.48471  1.0000
  C   C18       1.0  0.24836  0.00223  0.51529  1.0000
  C   C19       1.0  0.65651  0.87561  0.40603  1.0000
  C   C20       1.0  0.34349  0.12439  0.59397  1.0000
  N   N1        1.0  0.81474  0.58109  0.15895  1.0000
  N   N2        1.0  0.18527  0.41891  0.84105  1.0000
  N   N3        1.0  0.66017  0.38725  0.01495  1.0000
  N   N4        1.0  0.33983  0.61276  0.98505  1.0000
  N   N5        1.0  0.85435  0.61202  0.87725  1.0000
  N   N6        1.0  0.14565  0.38798  0.12275  1.0000
  N   N7        1.0  0.97320  0.75267  0.10986  1.0000
  N   N8        1.0  0.02681  0.24734  0.89014  1.0000
  N   N9        1.0  0.58710  0.77588  0.43957  1.0000
  N   N10       1.0  0.41291  0.22412  0.56043  1.0000
  N   N11       1.0  0.68295  0.90412  0.63062  1.0000
  N   N12       1.0  0.31704  0.09587  0.36938  1.0000
  N   N13       1.0  0.82799  0.10402  0.46195  1.0000
  N   N14       1.0  0.17201  0.89599  0.53805  1.0000
  N   N15       1.0  0.63624  0.86216  0.29779  1.0000
  N   N16       1.0  0.36376  0.13784  0.70221  1.0000
  O   O1        1.0  0.23349  0.49520  0.55686  1.0000
  O   O2        1.0  0.76651  0.50480  0.44314  1.0000
  O   O3        1.0  0.98257  0.32243  0.32297  1.0000
  O   O4        1.0  0.01743  0.67757  0.67703  1.0000
  O   O5        1.0  0.04985  0.65158  0.37426  1.0000
  O   O6        1.0  0.95016  0.34842  0.62574  1.0000
  O   O7        1.0  0.62519  0.41329  0.19812  1.0000
  O   O8        1.0  0.37482  0.58671  0.80189  1.0000
  O   O9        1.0  0.63455  0.37290  0.83006  1.0000
  O   O10       1.0  0.36544  0.62710  0.16994  1.0000
  O   O11       1.0  0.96300  0.72505  0.89749  1.0000
  O   O12       1.0  0.03700  0.27495  0.10250  1.0000
  O   O13       1.0  0.54098  0.69366  0.58094  1.0000
  O   O14       1.0  0.45902  0.30634  0.41906  1.0000
  O   O15       1.0  0.85463  0.10966  0.67657  1.0000
  O   O16       1.0  0.14535  0.89032  0.32343  1.0000
  O   O17       1.0  0.82193  0.10247  0.35916  1.0000
  O   O18       1.0  0.17807  0.89753  0.64085  1.0000
