data_image0
_chemical_formula_structural       Zn2H26C42N12
_chemical_formula_sum              "Zn2 H26 C42 N12"
_cell_length_a       9.71643
_cell_length_b       9.84419
_cell_length_c       10.5303
_cell_angle_alpha    98.9313
_cell_angle_beta     99.2563
_cell_angle_gamma    116.998

_space_group_name_H-M_alt    "P 1"
_space_group_IT_number       1

loop_
  _space_group_symop_operation_xyz
  'x, y, z'

loop_
  _atom_site_type_symbol
  _atom_site_label
  _atom_site_symmetry_multiplicity
  _atom_site_fract_x
  _atom_site_fract_y
  _atom_site_fract_z
  _atom_site_occupancy
  Zn  Zn1       1.0  0.68793  0.67202  0.76747  1.0000
  Zn  Zn2       1.0  0.29406  0.98232  0.69900  1.0000
  H   H1        1.0  0.85280  0.82484  0.11767  1.0000
  H   H2        1.0  0.06860  0.03019  0.31445  1.0000
  H   H3        1.0  0.34179  0.19420  0.29697  1.0000
  H   H4        1.0  0.41410  0.15878  0.07962  1.0000
  H   H5        1.0  0.16279  0.78101  0.32014  1.0000
  H   H6        1.0  0.97468  0.55248  0.12361  1.0000
  H   H7        1.0  0.71922  0.34389  0.13868  1.0000
  H   H8        1.0  0.63942  0.34833  0.35419  1.0000
  H   H9        1.0  0.22675  0.73198  0.13099  1.0000
  H   H10       1.0  0.27363  0.56937  0.27510  1.0000
  H   H11       1.0  0.46764  0.47689  0.24994  1.0000
  H   H12       1.0  0.61821  0.53590  0.07710  1.0000
  H   H13       1.0  0.77452  0.80704  0.46513  1.0000
  H   H14       1.0  0.72890  0.92441  0.28033  1.0000
  H   H15       1.0  0.55940  0.05028  0.27762  1.0000
  H   H16       1.0  0.42237  0.05876  0.45711  1.0000
  H   H17       1.0  0.79428  0.12343  0.05604  1.0000
  H   H18       1.0  0.07588  0.18793  0.06849  1.0000
  H   H19       1.0  0.22467  0.33771  0.92417  1.0000
  H   H20       1.0  0.10291  0.44273  0.76603  1.0000
  H   H21       1.0  0.37458  0.60126  0.52894  1.0000
  H   H22       1.0  0.08140  0.46486  0.42537  1.0000
  H   H23       1.0  0.90278  0.20016  0.44784  1.0000
  H   H24       1.0  0.01120  0.05486  0.56626  1.0000
  H   H25       1.0  0.32190  0.85028  0.90538  1.0000
  H   H26       1.0  0.80094  0.44968  0.68447  1.0000
  C   C1        1.0  0.98069  0.73230  0.64753  1.0000
  C   C2        1.0  0.02377  0.80867  0.78627  1.0000
  C   C3        1.0  0.01277  0.87810  0.98809  1.0000
  C   C4        1.0  0.97359  0.89701  0.10921  1.0000
  C   C5        1.0  0.09517  0.01110  0.21878  1.0000
  C   C6        1.0  0.25204  0.10431  0.20881  1.0000
  C   C7        1.0  0.29363  0.08605  0.08896  1.0000
  C   C8        1.0  0.17230  0.97181  0.97846  1.0000
  C   C9        1.0  0.00549  0.69188  0.44759  1.0000
  C   C10       1.0  0.04941  0.68830  0.32729  1.0000
  C   C11       1.0  0.94380  0.56123  0.21850  1.0000
  C   C12       1.0  0.79709  0.44014  0.22732  1.0000
  C   C13       1.0  0.75148  0.44217  0.34585  1.0000
  C   C14       1.0  0.85637  0.56864  0.45649  1.0000
  C   C15       1.0  0.52829  0.85051  0.73942  1.0000
  C   C16       1.0  0.49812  0.79607  0.85678  1.0000
  C   C17       1.0  0.39663  0.72314  0.02435  1.0000
  C   C18       1.0  0.31115  0.68971  0.12015  1.0000
  C   C19       1.0  0.33861  0.59929  0.19945  1.0000
  C   C20       1.0  0.44870  0.54575  0.18443  1.0000
  C   C21       1.0  0.53440  0.57901  0.08886  1.0000
  C   C22       1.0  0.50721  0.66911  0.00771  1.0000
  C   C23       1.0  0.62772  0.87222  0.56826  1.0000
  C   C24       1.0  0.70179  0.86479  0.46552  1.0000
  C   C25       1.0  0.67506  0.93018  0.36274  1.0000
  C   C26       1.0  0.57721  0.00115  0.36063  1.0000
  C   C27       1.0  0.50011  0.00632  0.46020  1.0000
  C   C28       1.0  0.52462  0.93945  0.56393  1.0000
  C   C29       1.0  0.49985  0.32169  0.72029  1.0000
  C   C30       1.0  0.63686  0.31380  0.78807  1.0000
  C   C31       1.0  0.78980  0.25009  0.90502  1.0000
  C   C32       1.0  0.86006  0.19226  0.99312  1.0000
  C   C33       1.0  0.01681  0.22738  0.99840  1.0000
  C   C34       1.0  0.10256  0.31498  0.91666  1.0000
  C   C35       1.0  0.03665  0.37535  0.82939  1.0000
  C   C36       1.0  0.88018  0.34289  0.82607  1.0000
  C   C37       1.0  0.35790  0.40508  0.60945  1.0000
  C   C38       1.0  0.29682  0.48464  0.53970  1.0000
  C   C39       1.0  0.13266  0.40705  0.48131  1.0000
  C   C40       1.0  0.03084  0.25489  0.49234  1.0000
  C   C41       1.0  0.09013  0.17280  0.55826  1.0000
  C   C42       1.0  0.25516  0.24867  0.61555  1.0000
  N   N1        1.0  0.84397  0.59748  0.58559  1.0000
  N   N2        1.0  0.08303  0.79654  0.57269  1.0000
  N   N3        1.0  0.17632  0.92357  0.84814  1.0000
  N   N4        1.0  0.92042  0.77661  0.86284  1.0000
  N   N5        1.0  0.62885  0.81815  0.68134  1.0000
  N   N6        1.0  0.46137  0.92208  0.67321  1.0000
  N   N7        1.0  0.39534  0.80338  0.92754  1.0000
  N   N8        1.0  0.56918  0.71804  0.90338  1.0000
  N   N9        1.0  0.51267  0.44912  0.67855  1.0000
  N   N10       1.0  0.34895  0.19795  0.68498  1.0000
  N   N11       1.0  0.63786  0.23404  0.87912  1.0000
  N   N12       1.0  0.77891  0.38203  0.75340  1.0000
