data_image0
_chemical_formula_structural       Na2H54C46S2N6Cl2O10
_chemical_formula_sum              "Na2 H54 C46 S2 N6 Cl2 O10"
_cell_length_a       10.0419
_cell_length_b       10.8544
_cell_length_c       11.3857
_cell_angle_alpha    90.3753
_cell_angle_beta     90.0002
_cell_angle_gamma    89.9995

_space_group_name_H-M_alt    "P 1"
_space_group_IT_number       1

loop_
  _space_group_symop_operation_xyz
  'x, y, z'

loop_
  _atom_site_type_symbol
  _atom_site_label
  _atom_site_symmetry_multiplicity
  _atom_site_fract_x
  _atom_site_fract_y
  _atom_site_fract_z
  _atom_site_occupancy
  Na  Na1       1.0  0.40924  0.59024  0.59994  1.0000
  Na  Na2       1.0  0.90924  0.40975  0.40006  1.0000
  H   H1        1.0  0.46815  0.59854  0.33212  1.0000
  H   H2        1.0  0.96815  0.40146  0.66788  1.0000
  H   H3        1.0  0.11692  0.80632  0.59201  1.0000
  H   H4        1.0  0.61691  0.19368  0.40799  1.0000
  H   H5        1.0  0.76306  0.98300  0.72658  1.0000
  H   H6        1.0  0.26306  0.01699  0.27342  1.0000
  H   H7        1.0  0.98985  0.61213  0.56226  1.0000
  H   H8        1.0  0.48984  0.38786  0.43774  1.0000
  H   H9        1.0  0.98541  0.96653  0.44516  1.0000
  H   H10       1.0  0.48541  0.03347  0.55484  1.0000
  H   H11       1.0  0.12691  0.01662  0.64313  1.0000
  H   H12       1.0  0.62691  0.98338  0.35688  1.0000
  H   H13       1.0  0.01117  0.07750  0.74464  1.0000
  H   H14       1.0  0.51117  0.92250  0.25536  1.0000
  H   H15       1.0  0.68111  0.61751  0.15203  1.0000
  H   H16       1.0  0.18111  0.38248  0.84797  1.0000
  H   H17       1.0  0.63820  0.78730  0.70203  1.0000
  H   H18       1.0  0.13819  0.21270  0.29797  1.0000
  H   H19       1.0  0.76007  0.17122  0.17585  1.0000
  H   H20       1.0  0.26007  0.82878  0.82415  1.0000
  H   H21       1.0  0.90294  0.73578  0.13504  1.0000
  H   H22       1.0  0.40294  0.26422  0.86495  1.0000
  H   H23       1.0  0.12185  0.71869  0.37861  1.0000
  H   H24       1.0  0.62185  0.28131  0.62138  1.0000
  H   H25       1.0  0.10630  0.72559  0.22250  1.0000
  H   H26       1.0  0.60630  0.27441  0.77750  1.0000
  H   H27       1.0  0.97103  0.66610  0.30995  1.0000
  H   H28       1.0  0.47102  0.33390  0.69005  1.0000
  H   H29       1.0  0.76609  0.83030  0.97920  1.0000
  H   H30       1.0  0.26609  0.16970  0.02080  1.0000
  H   H31       1.0  0.35744  0.48852  0.97845  1.0000
  H   H32       1.0  0.85744  0.51148  0.02155  1.0000
  H   H33       1.0  0.45756  0.50123  0.85119  1.0000
  H   H34       1.0  0.95756  0.49877  0.14881  1.0000
  H   H35       1.0  0.66090  0.45886  0.96984  1.0000
  H   H36       1.0  0.16090  0.54114  0.03017  1.0000
  H   H37       1.0  0.54724  0.33667  0.98523  1.0000
  H   H38       1.0  0.04723  0.66333  0.01477  1.0000
  H   H39       1.0  0.46400  0.42163  0.17353  1.0000
  H   H40       1.0  0.96400  0.57837  0.82647  1.0000
  H   H41       1.0  0.63789  0.39825  0.18184  1.0000
  H   H42       1.0  0.13789  0.60174  0.81816  1.0000
  H   H43       1.0  0.40609  0.71010  0.93466  1.0000
  H   H44       1.0  0.90609  0.28990  0.06533  1.0000
  H   H45       1.0  0.57819  0.67892  0.93958  1.0000
  H   H46       1.0  0.07819  0.32109  0.06042  1.0000
  H   H47       1.0  0.50344  0.77015  0.13002  1.0000
  H   H48       1.0  0.00345  0.22985  0.86998  1.0000
  H   H49       1.0  0.37900  0.65557  0.14340  1.0000
  H   H50       1.0  0.87900  0.34443  0.85660  1.0000
  H   H51       1.0  0.86415  0.15137  0.59040  1.0000
  H   H52       1.0  0.36415  0.84863  0.40961  1.0000
  H   H53       1.0  0.02765  0.20135  0.55874  1.0000
  H   H54       1.0  0.52765  0.79865  0.44126  1.0000
  C   C1        1.0  0.66246  0.58406  0.37797  1.0000
  C   C2        1.0  0.16245  0.41594  0.62203  1.0000
  C   C3        1.0  0.80620  0.68943  0.62784  1.0000
  C   C4        1.0  0.30620  0.31056  0.37216  1.0000
  C   C5        1.0  0.01108  0.80337  0.61402  1.0000
  C   C6        1.0  0.51107  0.19663  0.38598  1.0000
  C   C7        1.0  0.87227  0.02541  0.25338  1.0000
  C   C8        1.0  0.37227  0.97460  0.74662  1.0000
  C   C9        1.0  0.89539  0.10588  0.35866  1.0000
  C   C10       1.0  0.39540  0.89413  0.64134  1.0000
  C   C11       1.0  0.81340  0.90209  0.69033  1.0000
  C   C12       1.0  0.31340  0.09791  0.30967  1.0000
  C   C13       1.0  0.94060  0.69363  0.59795  1.0000
  C   C14       1.0  0.44060  0.30636  0.40205  1.0000
  C   C15       1.0  0.94817  0.90940  0.65753  1.0000
  C   C16       1.0  0.44817  0.09060  0.34247  1.0000
  C   C17       1.0  0.02012  0.03142  0.65871  1.0000
  C   C18       1.0  0.52012  0.96858  0.34129  1.0000
  C   C19       1.0  0.57864  0.58966  0.17358  1.0000
  C   C20       1.0  0.07864  0.41035  0.82642  1.0000
  C   C21       1.0  0.74252  0.79291  0.67622  1.0000
  C   C22       1.0  0.24252  0.20708  0.32379  1.0000
  C   C23       1.0  0.91623  0.90192  0.23996  1.0000
  C   C24       1.0  0.41623  0.09809  0.76003  1.0000
  C   C25       1.0  0.79386  0.07659  0.16439  1.0000
  C   C26       1.0  0.29386  0.92342  0.83561  1.0000
  C   C27       1.0  0.75809  0.00775  0.06607  1.0000
  C   C28       1.0  0.25810  0.99226  0.93392  1.0000
  C   C29       1.0  0.87393  0.83191  0.14302  1.0000
  C   C30       1.0  0.37393  0.16809  0.85698  1.0000
  C   C31       1.0  0.05239  0.73314  0.30619  1.0000
  C   C32       1.0  0.55239  0.26686  0.69380  1.0000
  C   C33       1.0  0.79597  0.88451  0.05564  1.0000
  C   C34       1.0  0.29597  0.11550  0.94435  1.0000
  C   C35       1.0  0.45703  0.51534  0.94662  1.0000
  C   C36       1.0  0.95703  0.48466  0.05337  1.0000
  C   C37       1.0  0.56225  0.43487  0.00554  1.0000
  C   C38       1.0  0.06224  0.56513  0.99445  1.0000
  C   C39       1.0  0.56038  0.45360  0.13867  1.0000
  C   C40       1.0  0.06038  0.54640  0.86133  1.0000
  C   C41       1.0  0.48115  0.65115  0.97646  1.0000
  C   C42       1.0  0.98115  0.34886  0.02354  1.0000
  C   C43       1.0  0.48010  0.67332  0.10928  1.0000
  C   C44       1.0  0.98011  0.32668  0.89073  1.0000
  C   C45       1.0  0.96439  0.11905  0.56549  1.0000
  C   C46       1.0  0.46440  0.88095  0.43451  1.0000
  S   S1        1.0  0.70975  0.55485  0.60113  1.0000
  S   S2        1.0  0.20974  0.44515  0.39886  1.0000
  N   N1        1.0  0.61578  0.58037  0.49214  1.0000
  N   N2        1.0  0.11578  0.41963  0.50787  1.0000
  N   N3        1.0  0.56274  0.60691  0.29984  1.0000
  N   N4        1.0  0.06275  0.39308  0.70016  1.0000
  N   N5        1.0  0.95619  0.05637  0.45230  1.0000
  N   N6        1.0  0.45620  0.94363  0.54771  1.0000
  Cl  Cl1       1.0  0.66145  0.07453  0.95757  1.0000
  Cl  Cl2       1.0  0.16145  0.92547  0.04243  1.0000
  O   O1        1.0  0.80281  0.45164  0.58406  1.0000
  O   O2        1.0  0.30281  0.54836  0.41594  1.0000
  O   O3        1.0  0.78141  0.56989  0.34540  1.0000
  O   O4        1.0  0.28141  0.43010  0.65460  1.0000
  O   O5        1.0  0.61981  0.54335  0.70149  1.0000
  O   O6        1.0  0.11980  0.45665  0.29851  1.0000
  O   O7        1.0  0.00126  0.85642  0.32219  1.0000
  O   O8        1.0  0.50126  0.14358  0.67781  1.0000
  O   O9        1.0  0.85334  0.21491  0.36018  1.0000
  O   O10       1.0  0.35335  0.78509  0.63983  1.0000
