data_image0
_chemical_formula_structural       Cu4H28C32N20Cl8
_chemical_formula_sum              "Cu4 H28 C32 N20 Cl8"
_cell_length_a       6.63763
_cell_length_b       10.7552
_cell_length_c       14.2816
_cell_angle_alpha    96.5098
_cell_angle_beta     90.0002
_cell_angle_gamma    90.0002

_space_group_name_H-M_alt    "P 1"
_space_group_IT_number       1

loop_
  _space_group_symop_operation_xyz
  'x, y, z'

loop_
  _atom_site_type_symbol
  _atom_site_label
  _atom_site_symmetry_multiplicity
  _atom_site_fract_x
  _atom_site_fract_y
  _atom_site_fract_z
  _atom_site_occupancy
  Cu  Cu1       1.0  0.33217  0.84516  0.74165  1.0000
  Cu  Cu2       1.0  0.16783  0.84516  0.24165  1.0000
  Cu  Cu3       1.0  0.66783  0.15484  0.25835  1.0000
  Cu  Cu4       1.0  0.83217  0.15484  0.75835  1.0000
  H   H1        1.0  0.35405  0.51218  0.55160  1.0000
  H   H2        1.0  0.14596  0.51218  0.05160  1.0000
  H   H3        1.0  0.64595  0.48782  0.44840  1.0000
  H   H4        1.0  0.85404  0.48782  0.94840  1.0000
  H   H5        1.0  0.86058  0.69546  0.42865  1.0000
  H   H6        1.0  0.63943  0.69546  0.92865  1.0000
  H   H7        1.0  0.13942  0.30455  0.57135  1.0000
  H   H8        1.0  0.36058  0.30454  0.07135  1.0000
  H   H9        1.0  0.83650  0.92696  0.48769  1.0000
  H   H10       1.0  0.66351  0.92696  0.98769  1.0000
  H   H11       1.0  0.16350  0.07304  0.51232  1.0000
  H   H12       1.0  0.33649  0.07304  0.01232  1.0000
  H   H13       1.0  0.58355  0.98750  0.61643  1.0000
  H   H14       1.0  0.91646  0.98751  0.11643  1.0000
  H   H15       1.0  0.41645  0.01250  0.38357  1.0000
  H   H16       1.0  0.08354  0.01250  0.88357  1.0000
  H   H17       1.0  0.75826  0.44455  0.65943  1.0000
  H   H18       1.0  0.74174  0.44455  0.15943  1.0000
  H   H19       1.0  0.24174  0.55545  0.34057  1.0000
  H   H20       1.0  0.25826  0.55544  0.84056  1.0000
  H   H21       1.0  0.64893  0.64755  0.75910  1.0000
  H   H22       1.0  0.85107  0.64754  0.25911  1.0000
  H   H23       1.0  0.35107  0.35246  0.24090  1.0000
  H   H24       1.0  0.14893  0.35245  0.74089  1.0000
  H   H25       1.0  0.90185  0.82286  0.77729  1.0000
  H   H26       1.0  0.59815  0.82285  0.27729  1.0000
  H   H27       1.0  0.09815  0.17715  0.22272  1.0000
  H   H28       1.0  0.40185  0.17714  0.72271  1.0000
  C   C1        1.0  0.47149  0.69036  0.56827  1.0000
  C   C2        1.0  0.02851  0.69036  0.06827  1.0000
  C   C3        1.0  0.52851  0.30964  0.43173  1.0000
  C   C4        1.0  0.97149  0.30964  0.93173  1.0000
  C   C5        1.0  0.74324  0.73233  0.47761  1.0000
  C   C6        1.0  0.75677  0.73233  0.97761  1.0000
  C   C7        1.0  0.25675  0.26767  0.52239  1.0000
  C   C8        1.0  0.24324  0.26767  0.02239  1.0000
  C   C9        1.0  0.73383  0.85873  0.51196  1.0000
  C   C10       1.0  0.76619  0.85873  0.01196  1.0000
  C   C11       1.0  0.26617  0.14127  0.48804  1.0000
  C   C12       1.0  0.23382  0.14127  0.98804  1.0000
  C   C13       1.0  0.59282  0.89225  0.58165  1.0000
  C   C14       1.0  0.90718  0.89225  0.08166  1.0000
  C   C15       1.0  0.40718  0.10776  0.41835  1.0000
  C   C16       1.0  0.09281  0.10775  0.91835  1.0000
  C   C17       1.0  0.15541  0.61706  0.63686  1.0000
  C   C18       1.0  0.34460  0.61706  0.13687  1.0000
  C   C19       1.0  0.84459  0.38294  0.36314  1.0000
  C   C20       1.0  0.65541  0.38294  0.86313  1.0000
  C   C21       1.0  0.85367  0.52810  0.66931  1.0000
  C   C22       1.0  0.64633  0.52809  0.16931  1.0000
  C   C23       1.0  0.14633  0.47191  0.33069  1.0000
  C   C24       1.0  0.35367  0.47190  0.83068  1.0000
  C   C25       1.0  0.79443  0.63798  0.72404  1.0000
  C   C26       1.0  0.70557  0.63797  0.22404  1.0000
  C   C27       1.0  0.20557  0.36203  0.27596  1.0000
  C   C28       1.0  0.29444  0.36202  0.77595  1.0000
  C   C29       1.0  0.93326  0.73452  0.73482  1.0000
  C   C30       1.0  0.56674  0.73452  0.23482  1.0000
  C   C31       1.0  0.06674  0.26548  0.26518  1.0000
  C   C32       1.0  0.43327  0.26548  0.76518  1.0000
  N   N1        1.0  0.33365  0.60173  0.58822  1.0000
  N   N2        1.0  0.16636  0.60173  0.08822  1.0000
  N   N3        1.0  0.66635  0.39827  0.41178  1.0000
  N   N4        1.0  0.83364  0.39827  0.91178  1.0000
  N   N5        1.0  0.46617  0.80782  0.61281  1.0000
  N   N6        1.0  0.03383  0.80782  0.11281  1.0000
  N   N7        1.0  0.53383  0.19218  0.38720  1.0000
  N   N8        1.0  0.96617  0.19217  0.88719  1.0000
  N   N9        1.0  0.61144  0.64883  0.50392  1.0000
  N   N10       1.0  0.88857  0.64883  0.00392  1.0000
  N   N11       1.0  0.38856  0.35117  0.49608  1.0000
  N   N12       1.0  0.11144  0.35117  0.99608  1.0000
  N   N13       1.0  0.11549  0.72365  0.69298  1.0000
  N   N14       1.0  0.38452  0.72365  0.19298  1.0000
  N   N15       1.0  0.88451  0.27635  0.30702  1.0000
  N   N16       1.0  0.61549  0.27635  0.80702  1.0000
  N   N17       1.0  0.03115  0.51749  0.62541  1.0000
  N   N18       1.0  0.46885  0.51749  0.12541  1.0000
  N   N19       1.0  0.96884  0.48251  0.37459  1.0000
  N   N20       1.0  0.53116  0.48251  0.87459  1.0000
  Cl  Cl1       1.0  0.58444  0.97618  0.79941  1.0000
  Cl  Cl2       1.0  0.91556  0.97618  0.29941  1.0000
  Cl  Cl3       1.0  0.41556  0.02382  0.20060  1.0000
  Cl  Cl4       1.0  0.08444  0.02382  0.70060  1.0000
  Cl  Cl5       1.0  0.27069  0.79675  0.88984  1.0000
  Cl  Cl6       1.0  0.22931  0.79675  0.38984  1.0000
  Cl  Cl7       1.0  0.72931  0.20325  0.11016  1.0000
  Cl  Cl8       1.0  0.77069  0.20325  0.61016  1.0000
