data_image0
_chemical_formula_structural       Fe4H32C16O28
_chemical_formula_sum              "Fe4 H32 C16 O28"
_cell_length_a       6.94315
_cell_length_b       10.3492
_cell_length_c       10.6771
_cell_angle_alpha    90.002
_cell_angle_beta     97.5047
_cell_angle_gamma    89.9981

_space_group_name_H-M_alt    "P 1"
_space_group_IT_number       1

loop_
  _space_group_symop_operation_xyz
  'x, y, z'

loop_
  _atom_site_type_symbol
  _atom_site_label
  _atom_site_symmetry_multiplicity
  _atom_site_fract_x
  _atom_site_fract_y
  _atom_site_fract_z
  _atom_site_occupancy
  Fe  Fe1       1.0  0.93394  0.60456  0.19594  1.0000
  Fe  Fe2       1.0  0.43483  0.89550  0.69596  1.0000
  Fe  Fe3       1.0  0.06515  0.39551  0.80400  1.0000
  Fe  Fe4       1.0  0.56609  0.10456  0.30408  1.0000
  H   H1        1.0  0.98654  0.95444  0.28596  1.0000
  H   H2        1.0  0.48416  0.54426  0.78527  1.0000
  H   H3        1.0  0.01589  0.04420  0.71469  1.0000
  H   H4        1.0  0.51346  0.45440  0.21405  1.0000
  H   H5        1.0  0.84084  0.97647  0.13676  1.0000
  H   H6        1.0  0.33881  0.52513  0.63551  1.0000
  H   H7        1.0  0.16112  0.02517  0.86451  1.0000
  H   H8        1.0  0.65914  0.47645  0.36326  1.0000
  H   H9        1.0  0.27801  0.88798  0.18803  1.0000
  H   H10       1.0  0.77781  0.61114  0.68788  1.0000
  H   H11       1.0  0.72210  0.11113  0.81214  1.0000
  H   H12       1.0  0.22200  0.38796  0.31198  1.0000
  H   H13       1.0  0.16085  0.89646  0.02877  1.0000
  H   H14       1.0  0.65887  0.60366  0.52896  1.0000
  H   H15       1.0  0.84121  0.10372  0.97102  1.0000
  H   H16       1.0  0.33915  0.39647  0.47123  1.0000
  H   H17       1.0  0.02431  0.67147  0.44351  1.0000
  H   H18       1.0  0.52358  0.82838  0.94352  1.0000
  H   H19       1.0  0.97640  0.32841  0.55645  1.0000
  H   H20       1.0  0.47574  0.17151  0.05651  1.0000
  H   H21       1.0  0.22078  0.67410  0.38735  1.0000
  H   H22       1.0  0.72050  0.82708  0.88789  1.0000
  H   H23       1.0  0.77951  0.32709  0.61212  1.0000
  H   H24       1.0  0.27927  0.17411  0.11269  1.0000
  H   H25       1.0  0.62341  0.62720  0.02195  1.0000
  H   H26       1.0  0.12354  0.87244  0.52233  1.0000
  H   H27       1.0  0.37637  0.37244  0.97766  1.0000
  H   H28       1.0  0.87666  0.12719  0.47808  1.0000
  H   H29       1.0  0.76379  0.52610  0.96186  1.0000
  H   H30       1.0  0.26406  0.97357  0.46218  1.0000
  H   H31       1.0  0.23586  0.47356  0.03782  1.0000
  H   H32       1.0  0.73626  0.02610  0.53814  1.0000
  C   C1        1.0  0.72324  0.83928  0.25904  1.0000
  C   C2        1.0  0.22247  0.66115  0.75949  1.0000
  C   C3        1.0  0.27753  0.16114  0.74051  1.0000
  C   C4        1.0  0.77678  0.33926  0.24097  1.0000
  C   C5        1.0  0.89480  0.90420  0.20873  1.0000
  C   C6        1.0  0.39357  0.59606  0.70860  1.0000
  C   C7        1.0  0.10640  0.09606  0.79136  1.0000
  C   C8        1.0  0.60521  0.40417  0.29128  1.0000
  C   C9        1.0  0.18170  0.83621  0.11444  1.0000
  C   C10       1.0  0.68132  0.66354  0.61486  1.0000
  C   C11       1.0  0.81865  0.16357  0.88510  1.0000
  C   C12       1.0  0.31831  0.33621  0.38557  1.0000
  C   C13       1.0  0.27844  0.70985  0.08568  1.0000
  C   C14       1.0  0.77889  0.78962  0.58615  1.0000
  C   C15       1.0  0.72109  0.28966  0.91384  1.0000
  C   C16       1.0  0.22157  0.20985  0.41433  1.0000
  O   O1        1.0  0.10275  0.62275  0.38668  1.0000
  O   O2        1.0  0.60174  0.87772  0.88699  1.0000
  O   O3        1.0  0.89823  0.37776  0.61299  1.0000
  O   O4        1.0  0.39732  0.12278  0.11333  1.0000
  O   O5        1.0  0.76132  0.60487  0.01541  1.0000
  O   O6        1.0  0.26144  0.89488  0.51582  1.0000
  O   O7        1.0  0.23846  0.39485  0.98417  1.0000
  O   O8        1.0  0.73875  0.10486  0.48461  1.0000
  O   O9        1.0  0.59146  0.91274  0.29270  1.0000
  O   O10       1.0  0.09086  0.58774  0.79342  1.0000
  O   O11       1.0  0.40915  0.08773  0.70659  1.0000
  O   O12       1.0  0.90854  0.41274  0.20733  1.0000
  O   O13       1.0  0.71891  0.71744  0.26496  1.0000
  O   O14       1.0  0.21832  0.78288  0.76576  1.0000
  O   O15       1.0  0.28169  0.28287  0.73426  1.0000
  O   O16       1.0  0.78116  0.21743  0.23506  1.0000
  O   O17       1.0  0.00048  0.80461  0.15596  1.0000
  O   O18       1.0  0.50106  0.69570  0.65747  1.0000
  O   O19       1.0  0.99883  0.19573  0.84240  1.0000
  O   O20       1.0  0.49954  0.30459  0.34406  1.0000
  O   O21       1.0  0.20889  0.60550  0.12580  1.0000
  O   O22       1.0  0.71010  0.89414  0.62642  1.0000
  O   O23       1.0  0.78989  0.39417  0.87356  1.0000
  O   O24       1.0  0.29111  0.10550  0.37421  1.0000
  O   O25       1.0  0.42310  0.71534  0.02598  1.0000
  O   O26       1.0  0.92337  0.78378  0.52627  1.0000
  O   O27       1.0  0.57664  0.28383  0.97375  1.0000
  O   O28       1.0  0.07692  0.21535  0.47405  1.0000
