data_image0
_chemical_formula_structural       CaH28C26N4O12
_chemical_formula_sum              "Ca1 H28 C26 N4 O12"
_cell_length_a       9.53281
_cell_length_b       9.65198
_cell_length_c       10.819
_cell_angle_alpha    89.7435
_cell_angle_beta     121.673
_cell_angle_gamma    77.046

_space_group_name_H-M_alt    "P 1"
_space_group_IT_number       1

loop_
  _space_group_symop_operation_xyz
  'x, y, z'

loop_
  _atom_site_type_symbol
  _atom_site_label
  _atom_site_symmetry_multiplicity
  _atom_site_fract_x
  _atom_site_fract_y
  _atom_site_fract_z
  _atom_site_occupancy
  Ca  Ca1       1.0  0.00000  0.50001  0.50001  1.0000
  H   H1        1.0  0.30701  0.12258  0.18869  1.0000
  H   H2        1.0  0.69298  0.87742  0.81132  1.0000
  H   H3        1.0  0.35549  0.49855  0.40396  1.0000
  H   H4        1.0  0.64450  0.50146  0.59603  1.0000
  H   H5        1.0  0.58402  0.52050  0.36066  1.0000
  H   H6        1.0  0.41597  0.47950  0.63934  1.0000
  H   H7        1.0  0.86636  0.10442  0.48794  1.0000
  H   H8        1.0  0.13363  0.89558  0.51205  1.0000
  H   H9        1.0  0.98867  0.99474  0.66283  1.0000
  H   H10       1.0  0.01132  0.00525  0.33715  1.0000
  H   H11       1.0  0.77179  0.08559  0.59067  1.0000
  H   H12       1.0  0.22820  0.91441  0.40932  1.0000
  H   H13       1.0  0.96653  0.16352  0.97889  1.0000
  H   H14       1.0  0.03350  0.83646  0.02112  1.0000
  H   H15       1.0  0.76716  0.17717  0.81267  1.0000
  H   H16       1.0  0.23286  0.82280  0.18735  1.0000
  H   H17       1.0  0.95219  0.03707  0.85681  1.0000
  H   H18       1.0  0.04783  0.96291  0.14319  1.0000
  H   H19       1.0  0.12787  0.31749  0.98168  1.0000
  H   H20       1.0  0.87212  0.68251  0.01830  1.0000
  H   H21       1.0  0.05282  0.42145  0.81149  1.0000
  H   H22       1.0  0.94717  0.57855  0.18850  1.0000
  H   H23       1.0  0.91626  0.43265  0.88069  1.0000
  H   H24       1.0  0.08373  0.56734  0.11930  1.0000
  H   H25       1.0  0.64882  0.13604  0.12661  1.0000
  H   H26       1.0  0.35118  0.86397  0.87341  1.0000
  H   H27       1.0  0.95366  0.24809  0.22872  1.0000
  H   H28       1.0  0.04633  0.75191  0.77129  1.0000
  C   C1        1.0  0.72581  0.34957  0.24643  1.0000
  C   C2        1.0  0.27419  0.65044  0.75357  1.0000
  C   C3        1.0  0.57815  0.33314  0.25578  1.0000
  C   C4        1.0  0.42184  0.66687  0.74421  1.0000
  C   C5        1.0  0.49685  0.22054  0.20411  1.0000
  C   C6        1.0  0.50314  0.77946  0.79589  1.0000
  C   C7        1.0  0.36912  0.20845  0.22896  1.0000
  C   C8        1.0  0.63087  0.79155  0.77104  1.0000
  C   C9        1.0  0.32118  0.30718  0.30276  1.0000
  C   C10       1.0  0.67883  0.69281  0.69725  1.0000
  C   C11       1.0  0.39783  0.42028  0.35046  1.0000
  C   C12       1.0  0.60217  0.57972  0.64955  1.0000
  C   C13       1.0  0.52359  0.43267  0.32567  1.0000
  C   C14       1.0  0.47641  0.56734  0.67433  1.0000
  C   C15       1.0  0.18004  0.30089  0.32409  1.0000
  C   C16       1.0  0.81997  0.69911  0.67592  1.0000
  C   C17       1.0  0.45603  0.03647  0.03871  1.0000
  C   C18       1.0  0.54398  0.96352  0.96131  1.0000
  C   C19       1.0  0.94668  0.22205  0.66785  1.0000
  C   C20       1.0  0.05332  0.77795  0.33214  1.0000
  C   C21       1.0  0.88858  0.09447  0.59787  1.0000
  C   C22       1.0  0.11141  0.90553  0.40212  1.0000
  C   C23       1.0  0.90648  0.14976  0.86309  1.0000
  C   C24       1.0  0.09354  0.85022  0.13691  1.0000
  C   C25       1.0  0.01623  0.36126  0.87081  1.0000
  C   C26       1.0  0.98376  0.63874  0.12918  1.0000
  N   N1        1.0  0.54267  0.12638  0.12624  1.0000
  N   N2        1.0  0.45733  0.87362  0.87377  1.0000
  N   N3        1.0  0.95449  0.24372  0.79384  1.0000
  N   N4        1.0  0.04551  0.75626  0.20615  1.0000
  O   O1        1.0  0.77414  0.46275  0.27931  1.0000
  O   O2        1.0  0.22585  0.53727  0.72068  1.0000
  O   O3        1.0  0.79919  0.24351  0.21004  1.0000
  O   O4        1.0  0.20081  0.75650  0.78995  1.0000
  O   O5        1.0  0.32361  0.01206  0.01783  1.0000
  O   O6        1.0  0.67640  0.98795  0.98216  1.0000
  O   O7        1.0  0.17052  0.35716  0.42383  1.0000
  O   O8        1.0  0.82947  0.64285  0.57618  1.0000
  O   O9        1.0  0.06953  0.23719  0.22759  1.0000
  O   O10       1.0  0.93048  0.76282  0.77244  1.0000
  O   O11       1.0  0.98868  0.30372  0.60924  1.0000
  O   O12       1.0  0.01130  0.69628  0.39074  1.0000
