data_image0
_chemical_formula_structural       Cu12H36C48S12N24
_chemical_formula_sum              "Cu12 H36 C48 S12 N24"
_cell_length_a       7.72876
_cell_length_b       11.7799
_cell_length_c       17.3102
_cell_angle_alpha    89.9999
_cell_angle_beta     90.0002
_cell_angle_gamma    90.0002

_space_group_name_H-M_alt    "P 1"
_space_group_IT_number       1

loop_
  _space_group_symop_operation_xyz
  'x, y, z'

loop_
  _atom_site_type_symbol
  _atom_site_label
  _atom_site_symmetry_multiplicity
  _atom_site_fract_x
  _atom_site_fract_y
  _atom_site_fract_z
  _atom_site_occupancy
  Cu  Cu1       1.0  0.94475  0.11609  0.14461  1.0000
  Cu  Cu2       1.0  0.05525  0.38391  0.64461  1.0000
  Cu  Cu3       1.0  0.55525  0.61609  0.85539  1.0000
  Cu  Cu4       1.0  0.44476  0.88391  0.35539  1.0000
  Cu  Cu5       1.0  0.17776  0.94130  0.26062  1.0000
  Cu  Cu6       1.0  0.82225  0.55870  0.76063  1.0000
  Cu  Cu7       1.0  0.32225  0.44130  0.73938  1.0000
  Cu  Cu8       1.0  0.67775  0.05870  0.23937  1.0000
  Cu  Cu9       1.0  0.94984  0.15926  0.32874  1.0000
  Cu  Cu10      1.0  0.05016  0.34074  0.82874  1.0000
  Cu  Cu11      1.0  0.55016  0.65926  0.67126  1.0000
  Cu  Cu12      1.0  0.44984  0.84074  0.17126  1.0000
  H   H1        1.0  0.47179  0.53111  0.21589  1.0000
  H   H2        1.0  0.52821  0.96890  0.71589  1.0000
  H   H3        1.0  0.02821  0.03110  0.78411  1.0000
  H   H4        1.0  0.97179  0.46889  0.28412  1.0000
  H   H5        1.0  0.23496  0.38242  0.21726  1.0000
  H   H6        1.0  0.76504  0.11758  0.71726  1.0000
  H   H7        1.0  0.26504  0.88241  0.78274  1.0000
  H   H8        1.0  0.73497  0.61758  0.28274  1.0000
  H   H9        1.0  0.32955  0.17703  0.22595  1.0000
  H   H10       1.0  0.67045  0.32297  0.72595  1.0000
  H   H11       1.0  0.17045  0.67703  0.77405  1.0000
  H   H12       1.0  0.82955  0.82297  0.27405  1.0000
  H   H13       1.0  0.94621  0.83232  0.92458  1.0000
  H   H14       1.0  0.05379  0.66768  0.42457  1.0000
  H   H15       1.0  0.55379  0.33232  0.07543  1.0000
  H   H16       1.0  0.44621  0.16768  0.57542  1.0000
  H   H17       1.0  0.12675  0.65375  0.94218  1.0000
  H   H18       1.0  0.87324  0.84625  0.44217  1.0000
  H   H19       1.0  0.37325  0.15375  0.05783  1.0000
  H   H20       1.0  0.62675  0.34625  0.55782  1.0000
  H   H21       1.0  0.34424  0.65437  0.05082  1.0000
  H   H22       1.0  0.65575  0.84563  0.55082  1.0000
  H   H23       1.0  0.15576  0.15436  0.94918  1.0000
  H   H24       1.0  0.84425  0.34564  0.44918  1.0000
  H   H25       1.0  0.55534  0.96365  0.88207  1.0000
  H   H26       1.0  0.44466  0.53635  0.38207  1.0000
  H   H27       1.0  0.94466  0.46366  0.11793  1.0000
  H   H28       1.0  0.05534  0.03635  0.61793  1.0000
  H   H29       1.0  0.70890  0.15316  0.86832  1.0000
  H   H30       1.0  0.29110  0.34684  0.36832  1.0000
  H   H31       1.0  0.79110  0.65316  0.13168  1.0000
  H   H32       1.0  0.20889  0.84684  0.63168  1.0000
  H   H33       1.0  0.85563  0.23220  0.98737  1.0000
  H   H34       1.0  0.14437  0.26779  0.48737  1.0000
  H   H35       1.0  0.64437  0.73220  0.01263  1.0000
  H   H36       1.0  0.35562  0.76780  0.51263  1.0000
  C   C1        1.0  0.70955  0.30187  0.22242  1.0000
  C   C2        1.0  0.29045  0.19813  0.72242  1.0000
  C   C3        1.0  0.79045  0.80187  0.77758  1.0000
  C   C4        1.0  0.20955  0.69813  0.27758  1.0000
  C   C5        1.0  0.50163  0.44050  0.21766  1.0000
  C   C6        1.0  0.49837  0.05950  0.71765  1.0000
  C   C7        1.0  0.99837  0.94050  0.78234  1.0000
  C   C8        1.0  0.00163  0.55950  0.28235  1.0000
  C   C9        1.0  0.37096  0.35918  0.21899  1.0000
  C   C10       1.0  0.62904  0.14082  0.71899  1.0000
  C   C11       1.0  0.12905  0.85918  0.78101  1.0000
  C   C12       1.0  0.87096  0.64082  0.28101  1.0000
  C   C13       1.0  0.42253  0.24645  0.22377  1.0000
  C   C14       1.0  0.57746  0.25356  0.72377  1.0000
  C   C15       1.0  0.07747  0.74644  0.77623  1.0000
  C   C16       1.0  0.92254  0.75355  0.27623  1.0000
  C   C17       1.0  0.16846  0.90617  0.07612  1.0000
  C   C18       1.0  0.83154  0.59383  0.57612  1.0000
  C   C19       1.0  0.33154  0.40617  0.92388  1.0000
  C   C20       1.0  0.66846  0.09383  0.42388  1.0000
  C   C21       1.0  0.04166  0.82494  0.97075  1.0000
  C   C22       1.0  0.95834  0.67507  0.47075  1.0000
  C   C23       1.0  0.45834  0.32494  0.02925  1.0000
  C   C24       1.0  0.54166  0.17507  0.52925  1.0000
  C   C25       1.0  0.13938  0.72659  0.98043  1.0000
  C   C26       1.0  0.86061  0.77341  0.48043  1.0000
  C   C27       1.0  0.36061  0.22659  0.01957  1.0000
  C   C28       1.0  0.63939  0.27342  0.51957  1.0000
  C   C29       1.0  0.25870  0.72652  0.04046  1.0000
  C   C30       1.0  0.74130  0.77348  0.54046  1.0000
  C   C31       1.0  0.24130  0.22652  0.95954  1.0000
  C   C32       1.0  0.75870  0.27348  0.45953  1.0000
  C   C33       1.0  0.69233  0.99625  0.05882  1.0000
  C   C34       1.0  0.30767  0.50375  0.55882  1.0000
  C   C35       1.0  0.80767  0.49625  0.94118  1.0000
  C   C36       1.0  0.19233  0.00375  0.44118  1.0000
  C   C37       1.0  0.61888  0.00442  0.93115  1.0000
  C   C38       1.0  0.38112  0.49558  0.43116  1.0000
  C   C39       1.0  0.88112  0.50442  0.06885  1.0000
  C   C40       1.0  0.11888  0.99558  0.56884  1.0000
  C   C41       1.0  0.70494  0.10789  0.92302  1.0000
  C   C42       1.0  0.29507  0.39211  0.42302  1.0000
  C   C43       1.0  0.79506  0.60789  0.07698  1.0000
  C   C44       1.0  0.20493  0.89211  0.57697  1.0000
  C   C45       1.0  0.78647  0.15123  0.98818  1.0000
  C   C46       1.0  0.21353  0.34877  0.48818  1.0000
  C   C47       1.0  0.71353  0.65123  0.01182  1.0000
  C   C48       1.0  0.28647  0.84877  0.51182  1.0000
  S   S1        1.0  0.92966  0.26492  0.22231  1.0000
  S   S2        1.0  0.07034  0.23508  0.72231  1.0000
  S   S3        1.0  0.57034  0.76491  0.77769  1.0000
  S   S4        1.0  0.42966  0.73509  0.27769  1.0000
  S   S5        1.0  0.18915  0.01753  0.14272  1.0000
  S   S6        1.0  0.81085  0.48247  0.64272  1.0000
  S   S7        1.0  0.31085  0.51752  0.85728  1.0000
  S   S8        1.0  0.68915  0.98248  0.35728  1.0000
  S   S9        1.0  0.69897  0.92556  0.14826  1.0000
  S   S10       1.0  0.30102  0.57444  0.64826  1.0000
  S   S11       1.0  0.80103  0.42556  0.85174  1.0000
  S   S12       1.0  0.19897  0.07444  0.35174  1.0000
  N   N1        1.0  0.59053  0.21627  0.22578  1.0000
  N   N2        1.0  0.40947  0.28373  0.72577  1.0000
  N   N3        1.0  0.90947  0.71626  0.77422  1.0000
  N   N4        1.0  0.09053  0.78373  0.27423  1.0000
  N   N5        1.0  0.66977  0.41246  0.21929  1.0000
  N   N6        1.0  0.33024  0.08754  0.71929  1.0000
  N   N7        1.0  0.83023  0.91246  0.78071  1.0000
  N   N8        1.0  0.16977  0.58754  0.28071  1.0000
  N   N9        1.0  0.05690  0.91510  0.01736  1.0000
  N   N10       1.0  0.94310  0.58490  0.51736  1.0000
  N   N11       1.0  0.44309  0.41510  0.98264  1.0000
  N   N12       1.0  0.55690  0.08490  0.48264  1.0000
  N   N13       1.0  0.27439  0.81554  0.08874  1.0000
  N   N14       1.0  0.72561  0.68446  0.58874  1.0000
  N   N15       1.0  0.22562  0.31554  0.91126  1.0000
  N   N16       1.0  0.77439  0.18446  0.41126  1.0000
  N   N17       1.0  0.78295  0.09533  0.05598  1.0000
  N   N18       1.0  0.21705  0.40466  0.55598  1.0000
  N   N19       1.0  0.71705  0.59533  0.94402  1.0000
  N   N20       1.0  0.28295  0.90467  0.44402  1.0000
  N   N21       1.0  0.61035  0.94882  0.99876  1.0000
  N   N22       1.0  0.38965  0.55118  0.49876  1.0000
  N   N23       1.0  0.88965  0.44882  0.00124  1.0000
  N   N24       1.0  0.11035  0.05118  0.50124  1.0000
