data_image0
_chemical_formula_structural       Hg2H22C24N6Cl4
_chemical_formula_sum              "Hg2 H22 C24 N6 Cl4"
_cell_length_a       7.58719
_cell_length_b       9.20484
_cell_length_c       10.4823
_cell_angle_alpha    111.329
_cell_angle_beta     97.8434
_cell_angle_gamma    90.1192

_space_group_name_H-M_alt    "P 1"
_space_group_IT_number       1

loop_
  _space_group_symop_operation_xyz
  'x, y, z'

loop_
  _atom_site_type_symbol
  _atom_site_label
  _atom_site_symmetry_multiplicity
  _atom_site_fract_x
  _atom_site_fract_y
  _atom_site_fract_z
  _atom_site_occupancy
  Hg  Hg1       1.0  0.24286  0.94694  0.49870  1.0000
  Hg  Hg2       1.0  0.75714  0.05306  0.50130  1.0000
  H   H1        1.0  0.98851  0.72271  0.20977  1.0000
  H   H2        1.0  0.01149  0.27729  0.79023  1.0000
  H   H3        1.0  0.88422  0.43588  0.09951  1.0000
  H   H4        1.0  0.11579  0.56412  0.90049  1.0000
  H   H5        1.0  0.99335  0.25691  0.22437  1.0000
  H   H6        1.0  0.00667  0.74308  0.77563  1.0000
  H   H7        1.0  0.20318  0.36558  0.44557  1.0000
  H   H8        1.0  0.79683  0.63442  0.55442  1.0000
  H   H9        1.0  0.53354  0.89675  0.72159  1.0000
  H   H10       1.0  0.46647  0.10325  0.27841  1.0000
  H   H11       1.0  0.69698  0.12483  0.88301  1.0000
  H   H12       1.0  0.30302  0.87518  0.11700  1.0000
  H   H13       1.0  0.89646  0.07505  0.96362  1.0000
  H   H14       1.0  0.10353  0.92495  0.03639  1.0000
  H   H15       1.0  0.72035  0.14736  0.06122  1.0000
  H   H16       1.0  0.27965  0.85264  0.93879  1.0000
  H   H17       1.0  0.79026  0.88749  0.11088  1.0000
  H   H18       1.0  0.20972  0.11251  0.88912  1.0000
  H   H19       1.0  0.67025  0.61615  0.04661  1.0000
  H   H20       1.0  0.32972  0.38385  0.95340  1.0000
  H   H21       1.0  0.48115  0.48044  0.81387  1.0000
  H   H22       1.0  0.51884  0.51956  0.18613  1.0000
  C   C1        1.0  0.03270  0.63711  0.25517  1.0000
  C   C2        1.0  0.96730  0.36289  0.74483  1.0000
  C   C3        1.0  0.97547  0.47966  0.19668  1.0000
  C   C4        1.0  0.02453  0.52033  0.80331  1.0000
  C   C5        1.0  0.03615  0.38032  0.26520  1.0000
  C   C6        1.0  0.96386  0.61968  0.73480  1.0000
  C   C7        1.0  0.15320  0.43911  0.38878  1.0000
  C   C8        1.0  0.84682  0.56089  0.61121  1.0000
  C   C9        1.0  0.20639  0.59787  0.44018  1.0000
  C   C10       1.0  0.79361  0.40213  0.55981  1.0000
  C   C11       1.0  0.49387  0.68241  0.75747  1.0000
  C   C12       1.0  0.50613  0.31759  0.24252  1.0000
  C   C13       1.0  0.56499  0.83594  0.79298  1.0000
  C   C14       1.0  0.43501  0.16406  0.20701  1.0000
  C   C15       1.0  0.67412  0.90987  0.91893  1.0000
  C   C16       1.0  0.32588  0.09013  0.08107  1.0000
  C   C17       1.0  0.75076  0.07362  0.95868  1.0000
  C   C18       1.0  0.24924  0.92639  0.04133  1.0000
  C   C19       1.0  0.70919  0.82867  0.00996  1.0000
  C   C20       1.0  0.29079  0.17133  0.99005  1.0000
  C   C21       1.0  0.64127  0.67558  0.97380  1.0000
  C   C22       1.0  0.35871  0.32441  0.02621  1.0000
  C   C23       1.0  0.53493  0.60053  0.84675  1.0000
  C   C24       1.0  0.46506  0.39948  0.15325  1.0000
  N   N1        1.0  0.14575  0.69268  0.37383  1.0000
  N   N2        1.0  0.85425  0.30732  0.62616  1.0000
  N   N3        1.0  0.32278  0.67944  0.56280  1.0000
  N   N4        1.0  0.67723  0.32056  0.43719  1.0000
  N   N5        1.0  0.37842  0.60025  0.63511  1.0000
  N   N6        1.0  0.62160  0.39975  0.36489  1.0000
  Cl  Cl1       1.0  0.01900  0.04169  0.33156  1.0000
  Cl  Cl2       1.0  0.98101  0.95831  0.66844  1.0000
  Cl  Cl3       1.0  0.43483  0.16869  0.65421  1.0000
  Cl  Cl4       1.0  0.56517  0.83131  0.34579  1.0000
