data_image0
_chemical_formula_structural       Cd2H12C10N16
_chemical_formula_sum              "Cd2 H12 C10 N16"
_cell_length_a       6.56545
_cell_length_b       7.89702
_cell_length_c       8.9531
_cell_angle_alpha    72.617
_cell_angle_beta     88.1371
_cell_angle_gamma    87.5276

_space_group_name_H-M_alt    "P 1"
_space_group_IT_number       1

loop_
  _space_group_symop_operation_xyz
  'x, y, z'

loop_
  _atom_site_type_symbol
  _atom_site_label
  _atom_site_symmetry_multiplicity
  _atom_site_fract_x
  _atom_site_fract_y
  _atom_site_fract_z
  _atom_site_occupancy
  Cd  Cd1       1.0  0.40288  0.63459  0.80211  1.0000
  Cd  Cd2       1.0  0.59712  0.36541  0.19789  1.0000
  H   H1        1.0  0.33657  0.87849  0.46305  1.0000
  H   H2        1.0  0.66342  0.12151  0.53696  1.0000
  H   H3        1.0  0.09391  0.39901  0.45075  1.0000
  H   H4        1.0  0.90609  0.60099  0.54925  1.0000
  H   H5        1.0  0.04495  0.28534  0.74195  1.0000
  H   H6        1.0  0.95505  0.71467  0.25804  1.0000
  H   H7        1.0  0.15435  0.97087  0.88102  1.0000
  H   H8        1.0  0.84565  0.02914  0.11898  1.0000
  H   H9        1.0  0.16038  0.30380  0.21632  1.0000
  H   H10       1.0  0.83961  0.69620  0.78368  1.0000
  H   H11       1.0  0.28741  0.10981  0.22270  1.0000
  H   H12       1.0  0.71259  0.89018  0.77730  1.0000
  C   C1        1.0  0.27625  0.97430  0.52076  1.0000
  C   C2        1.0  0.72375  0.02570  0.47924  1.0000
  C   C3        1.0  0.22560  0.14952  0.43437  1.0000
  C   C4        1.0  0.77440  0.85047  0.56563  1.0000
  C   C5        1.0  0.13786  0.26255  0.51483  1.0000
  C   C6        1.0  0.86215  0.73746  0.48517  1.0000
  C   C7        1.0  0.10975  0.19910  0.67636  1.0000
  C   C8        1.0  0.89025  0.80091  0.32364  1.0000
  C   C9        1.0  0.17039  0.02462  0.75433  1.0000
  C   C10       1.0  0.82961  0.97538  0.24567  1.0000
  N   N1        1.0  0.43804  0.64389  0.06246  1.0000
  N   N2        1.0  0.56196  0.35611  0.93754  1.0000
  N   N3        1.0  0.39957  0.76869  0.11121  1.0000
  N   N4        1.0  0.60043  0.23131  0.88880  1.0000
  N   N5        1.0  0.36134  0.88967  0.15761  1.0000
  N   N6        1.0  0.63867  0.11033  0.84240  1.0000
  N   N7        1.0  0.06318  0.52761  0.86969  1.0000
  N   N8        1.0  0.93682  0.47239  0.13030  1.0000
  N   N9        1.0  1.00000  0.50000  0.00001  1.0000
  N   N10       1.0  0.38776  0.57587  0.56598  1.0000
  N   N11       1.0  0.61224  0.42413  0.43401  1.0000
  N   N12       1.0  0.49999  0.50001  0.50001  1.0000
  N   N13       1.0  0.25118  0.91458  0.67702  1.0000
  N   N14       1.0  0.74882  0.08542  0.32299  1.0000
  N   N15       1.0  0.26943  0.21101  0.27266  1.0000
  N   N16       1.0  0.73058  0.78898  0.72735  1.0000
