data_image0
_chemical_formula_structural       Ca4H44C22N4O24
_chemical_formula_sum              "Ca4 H44 C22 N4 O24"
_cell_length_a       8.55217
_cell_length_b       10.4899
_cell_length_c       11.6043
_cell_angle_alpha    102.6
_cell_angle_beta     112.322
_cell_angle_gamma    105.917

_space_group_name_H-M_alt    "P 1"
_space_group_IT_number       1

loop_
  _space_group_symop_operation_xyz
  'x, y, z'

loop_
  _atom_site_type_symbol
  _atom_site_label
  _atom_site_symmetry_multiplicity
  _atom_site_fract_x
  _atom_site_fract_y
  _atom_site_fract_z
  _atom_site_occupancy
  Ca  Ca1       1.0  0.53766  0.41870  0.83258  1.0000
  Ca  Ca2       1.0  0.46234  0.58130  0.16742  1.0000
  Ca  Ca3       1.0  0.62256  0.88585  0.94498  1.0000
  Ca  Ca4       1.0  0.37743  0.11415  0.05502  1.0000
  H   H1        1.0  0.79326  0.58098  0.12332  1.0000
  H   H2        1.0  0.20673  0.41901  0.87667  1.0000
  H   H3        1.0  0.68883  0.42746  0.11996  1.0000
  H   H4        1.0  0.31116  0.57253  0.88003  1.0000
  H   H5        1.0  0.81226  0.39055  0.55323  1.0000
  H   H6        1.0  0.18776  0.60946  0.44679  1.0000
  H   H7        1.0  0.59714  0.40242  0.49015  1.0000
  H   H8        1.0  0.40286  0.59759  0.50986  1.0000
  H   H9        1.0  0.67188  0.18095  0.61337  1.0000
  H   H10       1.0  0.32813  0.81906  0.38662  1.0000
  H   H11       1.0  0.59054  0.16162  0.44552  1.0000
  H   H12       1.0  0.40949  0.83840  0.55448  1.0000
  H   H13       1.0  0.32671  0.22700  0.45426  1.0000
  H   H14       1.0  0.67330  0.77301  0.54574  1.0000
  H   H15       1.0  0.31424  0.05504  0.44194  1.0000
  H   H16       1.0  0.68580  0.94496  0.55806  1.0000
  H   H17       1.0  0.65287  0.60067  0.59270  1.0000
  H   H18       1.0  0.34714  0.39934  0.40732  1.0000
  H   H19       1.0  0.89095  0.67410  0.69677  1.0000
  H   H20       1.0  0.10905  0.32591  0.30322  1.0000
  H   H21       1.0  0.50326  0.05762  0.67873  1.0000
  H   H22       1.0  0.49675  0.94238  0.32128  1.0000
  H   H23       1.0  0.26239  0.96532  0.60950  1.0000
  H   H24       1.0  0.73763  0.03467  0.39049  1.0000
  H   H25       1.0  0.12911  0.16762  0.66262  1.0000
  H   H26       1.0  0.87091  0.83238  0.33736  1.0000
  H   H27       1.0  0.07036  0.09112  0.49122  1.0000
  H   H28       1.0  0.92964  0.90887  0.50877  1.0000
  H   H29       1.0  0.96823  0.57921  0.88944  1.0000
  H   H30       1.0  0.03176  0.42080  0.11057  1.0000
  H   H31       1.0  0.01627  0.50448  0.76019  1.0000
  H   H32       1.0  0.98374  0.49552  0.23982  1.0000
  H   H33       1.0  0.30324  0.59439  0.70463  1.0000
  H   H34       1.0  0.69675  0.40560  0.29537  1.0000
  H   H35       1.0  0.22466  0.71450  0.71341  1.0000
  H   H36       1.0  0.77534  0.28550  0.28659  1.0000
  H   H37       1.0  0.04511  0.01983  0.16537  1.0000
  H   H38       1.0  0.95490  0.98017  0.83463  1.0000
  H   H39       1.0  0.96350  0.85197  0.13870  1.0000
  H   H40       1.0  0.03650  0.14803  0.86130  1.0000
  H   H41       1.0  0.79641  0.19216  0.94808  1.0000
  H   H42       1.0  0.20359  0.80784  0.05192  1.0000
  H   H43       1.0  0.92932  0.11389  0.98112  1.0000
  H   H44       1.0  0.07068  0.88612  0.01888  1.0000
  C   C1        1.0  0.68812  0.37406  0.56686  1.0000
  C   C2        1.0  0.31188  0.62594  0.43314  1.0000
  C   C3        1.0  0.59135  0.21662  0.53785  1.0000
  C   C4        1.0  0.40865  0.78338  0.46215  1.0000
  C   C5        1.0  0.39104  0.16797  0.51001  1.0000
  C   C6        1.0  0.60896  0.83203  0.48999  1.0000
  C   C7        1.0  0.75788  0.61560  0.69132  1.0000
  C   C8        1.0  0.24212  0.38440  0.30869  1.0000
  C   C9        1.0  0.72772  0.71000  0.79241  1.0000
  C   C10       1.0  0.27227  0.29002  0.20759  1.0000
  C   C11       1.0  0.37809  0.06941  0.67588  1.0000
  C   C12       1.0  0.62191  0.93059  0.32412  1.0000
  C   C13       1.0  0.40338  0.09523  0.81645  1.0000
  C   C14       1.0  0.59661  0.90476  0.18354  1.0000
  C   C15       1.0  0.17021  0.18114  0.58534  1.0000
  C   C16       1.0  0.82980  0.81885  0.41465  1.0000
  C   C17       1.0  0.15457  0.31862  0.56627  1.0000
  C   C18       1.0  0.84544  0.68136  0.43374  1.0000
  C   C19       1.0  0.89748  0.35625  0.83817  1.0000
  C   C20       1.0  0.10251  0.64375  0.16182  1.0000
  C   C21       1.0  0.91542  0.48670  0.79858  1.0000
  C   C22       1.0  0.08458  0.51331  0.20143  1.0000
  N   N1        1.0  0.73771  0.47491  0.69923  1.0000
  N   N2        1.0  0.26228  0.52509  0.30077  1.0000
  N   N3        1.0  0.35783  0.18483  0.62762  1.0000
  N   N4        1.0  0.64217  0.81517  0.37237  1.0000
  O   O1        1.0  0.67769  0.66294  0.87070  1.0000
  O   O2        1.0  0.32231  0.33706  0.12931  1.0000
  O   O3        1.0  0.74630  0.83456  0.79143  1.0000
  O   O4        1.0  0.25370  0.16545  0.20859  1.0000
  O   O5        1.0  0.41772  0.21393  0.88627  1.0000
  O   O6        1.0  0.58227  0.78607  0.11373  1.0000
  O   O7        1.0  0.41011  0.99474  0.86051  1.0000
  O   O8        1.0  0.58987  0.00524  0.13947  1.0000
  O   O9        1.0  0.30015  0.43358  0.64593  1.0000
  O   O10       1.0  0.69985  0.56640  0.35406  1.0000
  O   O11       1.0  0.00543  0.30982  0.48016  1.0000
  O   O12       1.0  0.99455  0.69015  0.51982  1.0000
  O   O13       1.0  0.77224  0.31600  0.87209  1.0000
  O   O14       1.0  0.22775  0.68400  0.12791  1.0000
  O   O15       1.0  0.00959  0.29787  0.83788  1.0000
  O   O16       1.0  0.99039  0.70212  0.16212  1.0000
  O   O17       1.0  0.66894  0.50057  0.08220  1.0000
  O   O18       1.0  0.33104  0.49943  0.91781  1.0000
  O   O19       1.0  0.32121  0.68752  0.76638  1.0000
  O   O20       1.0  0.67879  0.31248  0.23362  1.0000
  O   O21       1.0  0.93592  0.92940  0.10970  1.0000
  O   O22       1.0  0.06408  0.07061  0.89031  1.0000
  O   O23       1.0  0.82579  0.12542  0.99401  1.0000
  O   O24       1.0  0.17420  0.87458  0.00599  1.0000
