data_image0
_chemical_formula_structural       Ag4H32C24S4N12O12
_chemical_formula_sum              "Ag4 H32 C24 S4 N12 O12"
_cell_length_a       6.90179
_cell_length_b       10.5324
_cell_length_c       13.3989
_cell_angle_alpha    89.9998
_cell_angle_beta     100.379
_cell_angle_gamma    90

_space_group_name_H-M_alt    "P 1"
_space_group_IT_number       1

loop_
  _space_group_symop_operation_xyz
  'x, y, z'

loop_
  _atom_site_type_symbol
  _atom_site_label
  _atom_site_symmetry_multiplicity
  _atom_site_fract_x
  _atom_site_fract_y
  _atom_site_fract_z
  _atom_site_occupancy
  Ag  Ag1       1.0  0.17240  0.45085  0.38665  1.0000
  Ag  Ag2       1.0  0.67240  0.04915  0.88666  1.0000
  Ag  Ag3       1.0  0.82760  0.54915  0.61335  1.0000
  Ag  Ag4       1.0  0.32761  0.95085  0.11334  1.0000
  H   H1        1.0  0.36011  0.14037  0.39382  1.0000
  H   H2        1.0  0.86011  0.35963  0.89382  1.0000
  H   H3        1.0  0.63989  0.85963  0.60618  1.0000
  H   H4        1.0  0.13989  0.64037  0.10618  1.0000
  H   H5        1.0  0.42014  0.24402  0.29974  1.0000
  H   H6        1.0  0.92013  0.25598  0.79974  1.0000
  H   H7        1.0  0.57986  0.75598  0.70026  1.0000
  H   H8        1.0  0.07987  0.74402  0.20025  1.0000
  H   H9        1.0  0.72018  0.09758  0.46012  1.0000
  H   H10       1.0  0.22017  0.40242  0.96012  1.0000
  H   H11       1.0  0.27983  0.90242  0.53988  1.0000
  H   H12       1.0  0.77983  0.59758  0.03989  1.0000
  H   H13       1.0  0.65271  0.05909  0.32969  1.0000
  H   H14       1.0  0.15271  0.44091  0.82969  1.0000
  H   H15       1.0  0.34729  0.94091  0.67031  1.0000
  H   H16       1.0  0.84730  0.55909  0.17031  1.0000
  H   H17       1.0  0.58113  0.19999  0.59691  1.0000
  H   H18       1.0  0.08114  0.30001  0.09691  1.0000
  H   H19       1.0  0.41886  0.80001  0.40309  1.0000
  H   H20       1.0  0.91885  0.69999  0.90309  1.0000
  H   H21       1.0  0.50110  0.34936  0.63558  1.0000
  H   H22       1.0  0.00111  0.15065  0.13558  1.0000
  H   H23       1.0  0.49890  0.65064  0.36442  1.0000
  H   H24       1.0  0.99889  0.84935  0.86442  1.0000
  H   H25       1.0  0.21224  0.14707  0.52438  1.0000
  H   H26       1.0  0.71225  0.35294  0.02438  1.0000
  H   H27       1.0  0.78776  0.85293  0.47562  1.0000
  H   H28       1.0  0.28775  0.64706  0.97562  1.0000
  H   H29       1.0  0.28631  0.15278  0.65764  1.0000
  H   H30       1.0  0.78632  0.34723  0.15764  1.0000
  H   H31       1.0  0.71368  0.84722  0.34236  1.0000
  H   H32       1.0  0.21368  0.65278  0.84236  1.0000
  C   C1        1.0  0.47094  0.20730  0.37651  1.0000
  C   C2        1.0  0.97094  0.29270  0.87651  1.0000
  C   C3        1.0  0.52906  0.79270  0.62349  1.0000
  C   C4        1.0  0.02907  0.70730  0.12349  1.0000
  C   C5        1.0  0.66857  0.13837  0.38408  1.0000
  C   C6        1.0  0.16857  0.36163  0.88407  1.0000
  C   C7        1.0  0.33143  0.86163  0.61593  1.0000
  C   C8        1.0  0.83144  0.63837  0.11593  1.0000
  C   C9        1.0  0.82282  0.22042  0.36107  1.0000
  C   C10       1.0  0.32282  0.27958  0.86107  1.0000
  C   C11       1.0  0.17717  0.77958  0.63893  1.0000
  C   C12       1.0  0.67718  0.72042  0.13893  1.0000
  C   C13       1.0  0.46566  0.27258  0.57971  1.0000
  C   C14       1.0  0.96567  0.22742  0.07972  1.0000
  C   C15       1.0  0.53433  0.72742  0.42028  1.0000
  C   C16       1.0  0.03433  0.77258  0.92028  1.0000
  C   C17       1.0  0.26758  0.21104  0.58821  1.0000
  C   C18       1.0  0.76758  0.28897  0.08821  1.0000
  C   C19       1.0  0.73242  0.78896  0.41179  1.0000
  C   C20       1.0  0.23241  0.71103  0.91179  1.0000
  C   C21       1.0  0.11654  0.30341  0.59704  1.0000
  C   C22       1.0  0.61654  0.19659  0.09704  1.0000
  C   C23       1.0  0.88345  0.69659  0.40295  1.0000
  C   C24       1.0  0.38345  0.80341  0.90296  1.0000
  S   S1        1.0  0.48229  0.34518  0.45886  1.0000
  S   S2        1.0  0.98228  0.15481  0.95886  1.0000
  S   S3        1.0  0.51771  0.65482  0.54114  1.0000
  S   S4        1.0  0.01772  0.84518  0.04114  1.0000
  N   N1        1.0  0.94393  0.28856  0.34211  1.0000
  N   N2        1.0  0.44393  0.21144  0.84211  1.0000
  N   N3        1.0  0.05607  0.71144  0.65789  1.0000
  N   N4        1.0  0.55607  0.78856  0.15789  1.0000
  N   N5        1.0  0.99851  0.37859  0.60773  1.0000
  N   N6        1.0  0.49852  0.12142  0.10773  1.0000
  N   N7        1.0  0.00149  0.62141  0.39227  1.0000
  N   N8        1.0  0.50148  0.87858  0.89228  1.0000
  N   N9        1.0  0.39235  0.46873  0.18405  1.0000
  N   N10       1.0  0.89235  0.03127  0.68406  1.0000
  N   N11       1.0  0.60764  0.53127  0.81595  1.0000
  N   N12       1.0  0.10766  0.96873  0.31595  1.0000
  O   O1        1.0  0.22117  0.44795  0.20531  1.0000
  O   O2        1.0  0.72116  0.05206  0.70531  1.0000
  O   O3        1.0  0.77883  0.55205  0.79469  1.0000
  O   O4        1.0  0.27884  0.94794  0.29469  1.0000
  O   O5        1.0  0.40793  0.48601  0.09228  1.0000
  O   O6        1.0  0.90793  0.01399  0.59228  1.0000
  O   O7        1.0  0.59207  0.51399  0.90772  1.0000
  O   O8        1.0  0.09207  0.98601  0.40772  1.0000
  O   O9        1.0  0.54226  0.47134  0.25371  1.0000
  O   O10       1.0  0.04224  0.02867  0.75371  1.0000
  O   O11       1.0  0.45775  0.52866  0.74629  1.0000
  O   O12       1.0  0.95775  0.97133  0.24629  1.0000
