data_image0
_chemical_formula_structural       Ni6H40C56N4O28
_chemical_formula_sum              "Ni6 H40 C56 N4 O28"
_cell_length_a       7.59564
_cell_length_b       10.835
_cell_length_c       17.2904
_cell_angle_alpha    89.9916
_cell_angle_beta     90.0266
_cell_angle_gamma    105.132

_space_group_name_H-M_alt    "P 1"
_space_group_IT_number       1

loop_
  _space_group_symop_operation_xyz
  'x, y, z'

loop_
  _atom_site_type_symbol
  _atom_site_label
  _atom_site_symmetry_multiplicity
  _atom_site_fract_x
  _atom_site_fract_y
  _atom_site_fract_z
  _atom_site_occupancy
  Ni  Ni1       1.0  0.58978  0.29905  0.07470  1.0000
  Ni  Ni2       1.0  0.90534  0.70257  0.57355  1.0000
  Ni  Ni3       1.0  0.40610  0.70168  0.92668  1.0000
  Ni  Ni4       1.0  0.09117  0.29785  0.42551  1.0000
  Ni  Ni5       1.0  0.99730  0.49699  0.00226  1.0000
  Ni  Ni6       1.0  0.49714  0.49867  0.49848  1.0000
  H   H1        1.0  0.46371  0.47397  0.01619  1.0000
  H   H2        1.0  0.09885  0.54250  0.59959  1.0000
  H   H3        1.0  0.59371  0.54378  0.89320  1.0000
  H   H4        1.0  0.96570  0.47608  0.48093  1.0000
  H   H5        1.0  0.28514  0.37613  0.05088  1.0000
  H   H6        1.0  0.22277  0.63490  0.54139  1.0000
  H   H7        1.0  0.72364  0.62955  0.95336  1.0000
  H   H8        1.0  0.78516  0.37525  0.45025  1.0000
  H   H9        1.0  0.36067  0.05024  0.01150  1.0000
  H   H10       1.0  0.13810  0.94899  0.50992  1.0000
  H   H11       1.0  0.63621  0.94882  0.98981  1.0000
  H   H12       1.0  0.85864  0.05006  0.48943  1.0000
  H   H13       1.0  0.14189  0.85962  0.06398  1.0000
  H   H14       1.0  0.35937  0.13850  0.56202  1.0000
  H   H15       1.0  0.85737  0.13828  0.93766  1.0000
  H   H16       1.0  0.63732  0.86034  0.43715  1.0000
  H   H17       1.0  0.72982  0.50267  0.30439  1.0000
  H   H18       1.0  0.78648  0.49138  0.80186  1.0000
  H   H19       1.0  0.28140  0.49229  0.69885  1.0000
  H   H20       1.0  0.23020  0.50239  0.19542  1.0000
  H   H21       1.0  0.05844  0.88613  0.33442  1.0000
  H   H22       1.0  0.43399  0.11551  0.83397  1.0000
  H   H23       1.0  0.93441  0.11479  0.66622  1.0000
  H   H24       1.0  0.56026  0.88553  0.16608  1.0000
  H   H25       1.0  0.94705  0.72259  0.10487  1.0000
  H   H26       1.0  0.54690  0.27749  0.60384  1.0000
  H   H27       1.0  0.05025  0.27457  0.89675  1.0000
  H   H28       1.0  0.44670  0.72168  0.39541  1.0000
  H   H29       1.0  0.02689  0.16104  0.10227  1.0000
  H   H30       1.0  0.46858  0.83859  0.60278  1.0000
  H   H31       1.0  0.96961  0.83801  0.89835  1.0000
  H   H32       1.0  0.53138  0.16473  0.39705  1.0000
  H   H33       1.0  0.39531  0.24037  0.22099  1.0000
  H   H34       1.0  0.09064  0.76373  0.72149  1.0000
  H   H35       1.0  0.59112  0.76237  0.77873  1.0000
  H   H36       1.0  0.89924  0.23841  0.27913  1.0000
  H   H37       1.0  0.17809  0.05980  0.28324  1.0000
  H   H38       1.0  0.30977  0.94335  0.78355  1.0000
  H   H39       1.0  0.81109  0.94139  0.71673  1.0000
  H   H40       1.0  0.68028  0.05847  0.21698  1.0000
  C   C1        1.0  0.31585  0.04759  0.07151  1.0000
  C   C2        1.0  0.18049  0.95266  0.57033  1.0000
  C   C3        1.0  0.67934  0.95213  0.92955  1.0000
  C   C4        1.0  0.81463  0.04714  0.42926  1.0000
  C   C5        1.0  0.19101  0.94157  0.10169  1.0000
  C   C6        1.0  0.30639  0.05820  0.60049  1.0000
  C   C7        1.0  0.80540  0.05752  0.89938  1.0000
  C   C8        1.0  0.68868  0.94158  0.39915  1.0000
  C   C9        1.0  0.75833  0.48705  0.15210  1.0000
  C   C10       1.0  0.74624  0.50971  0.65053  1.0000
  C   C11       1.0  0.24445  0.50888  0.85005  1.0000
  C   C12       1.0  0.25897  0.48606  0.34773  1.0000
  C   C13       1.0  0.02007  0.82105  0.21477  1.0000
  C   C14       1.0  0.47527  0.17909  0.71394  1.0000
  C   C15       1.0  0.97628  0.17774  0.78629  1.0000
  C   C16       1.0  0.51983  0.82046  0.28568  1.0000
  C   C17       1.0  0.81070  0.59140  0.27940  1.0000
  C   C18       1.0  0.69553  0.40516  0.77792  1.0000
  C   C19       1.0  0.19296  0.40508  0.72268  1.0000
  C   C20       1.0  0.31115  0.59094  0.22060  1.0000
  C   C21       1.0  0.83841  0.60116  0.19977  1.0000
  C   C22       1.0  0.66379  0.39655  0.69847  1.0000
  C   C23       1.0  0.16304  0.39545  0.80219  1.0000
  C   C24       1.0  0.33863  0.60044  0.30025  1.0000
  C   C25       1.0  0.99509  0.80815  0.29546  1.0000
  C   C26       1.0  0.50044  0.19202  0.79459  1.0000
  C   C27       1.0  0.00077  0.19131  0.70562  1.0000
  C   C28       1.0  0.49611  0.80757  0.20492  1.0000
  C   C29       1.0  0.88541  0.69561  0.32721  1.0000
  C   C30       1.0  0.61514  0.30290  0.82625  1.0000
  C   C31       1.0  0.11409  0.30286  0.67413  1.0000
  C   C32       1.0  0.38658  0.69517  0.17296  1.0000
  C   C33       1.0  0.83352  0.68062  0.41103  1.0000
  C   C34       1.0  0.66460  0.31745  0.91073  1.0000
  C   C35       1.0  0.16372  0.31866  0.58974  1.0000
  C   C36       1.0  0.33588  0.68035  0.08901  1.0000
  C   C37       1.0  0.13838  0.93828  0.17993  1.0000
  C   C38       1.0  0.35544  0.06245  0.67916  1.0000
  C   C39       1.0  0.85590  0.06115  0.82091  1.0000
  C   C40       1.0  0.63784  0.93772  0.32065  1.0000
  C   C41       1.0  0.93618  0.71675  0.16748  1.0000
  C   C42       1.0  0.56040  0.28264  0.66640  1.0000
  C   C43       1.0  0.06200  0.28075  0.83415  1.0000
  C   C44       1.0  0.43592  0.71599  0.33279  1.0000
  C   C45       1.0  0.95214  0.22960  0.08068  1.0000
  C   C46       1.0  0.54296  0.77009  0.58077  1.0000
  C   C47       1.0  0.04349  0.76881  0.91974  1.0000
  C   C48       1.0  0.45432  0.23099  0.41987  1.0000
  C   C49       1.0  0.33561  0.15336  0.18851  1.0000
  C   C50       1.0  0.15380  0.84949  0.68853  1.0000
  C   C51       1.0  0.65415  0.84823  0.81164  1.0000
  C   C52       1.0  0.83775  0.15190  0.31177  1.0000
  C   C53       1.0  0.21208  0.05033  0.22273  1.0000
  C   C54       1.0  0.27802  0.95198  0.72270  1.0000
  C   C55       1.0  0.77883  0.95048  0.77747  1.0000
  C   C56       1.0  0.71342  0.04922  0.27762  1.0000
  N   N1        1.0  0.39053  0.15204  0.11431  1.0000
  N   N2        1.0  0.10210  0.84996  0.61383  1.0000
  N   N3        1.0  0.60183  0.84903  0.88620  1.0000
  N   N4        1.0  0.89174  0.15072  0.38615  1.0000
  O   O1        1.0  0.68390  0.59797  0.42349  1.0000
  O   O2        1.0  0.81417  0.40094  0.92342  1.0000
  O   O3        1.0  0.30920  0.40642  0.57713  1.0000
  O   O4        1.0  0.18349  0.60096  0.07630  1.0000
  O   O5        1.0  0.05087  0.32844  0.04676  1.0000
  O   O6        1.0  0.44770  0.67566  0.54212  1.0000
  O   O7        1.0  0.94636  0.67140  0.95526  1.0000
  O   O8        1.0  0.55019  0.32820  0.45627  1.0000
  O   O9        1.0  0.78461  0.48593  0.07798  1.0000
  O   O10       1.0  0.71190  0.51448  0.57769  1.0000
  O   O11       1.0  0.21258  0.51326  0.92311  1.0000
  O   O12       1.0  0.28545  0.48483  0.42186  1.0000
  O   O13       1.0  0.65556  0.38824  0.18316  1.0000
  O   O14       1.0  0.85986  0.60492  0.68108  1.0000
  O   O15       1.0  0.35527  0.60520  0.81914  1.0000
  O   O16       1.0  0.15637  0.38723  0.31667  1.0000
  O   O17       1.0  0.78232  0.19862  0.09206  1.0000
  O   O18       1.0  0.71076  0.79701  0.59675  1.0000
  O   O19       1.0  0.21253  0.79804  0.90617  1.0000
  O   O20       1.0  0.28499  0.19927  0.40730  1.0000
  O   O21       1.0  0.93787  0.75050  0.46103  1.0000
  O   O22       1.0  0.55810  0.24925  0.96003  1.0000
  O   O23       1.0  0.06140  0.24768  0.54028  1.0000
  O   O24       1.0  0.44392  0.74741  0.03912  1.0000
  O   O25       1.0  0.41746  0.41521  0.05944  1.0000
  O   O26       1.0  0.09079  0.59162  0.55307  1.0000
  O   O27       1.0  0.59072  0.58800  0.94212  1.0000
  O   O28       1.0  0.91707  0.41299  0.44002  1.0000
