data_image0
_chemical_formula_structural       Cd2H48C72N28
_chemical_formula_sum              "Cd2 H48 C72 N28"
_cell_length_a       8.14924
_cell_length_b       13.0544
_cell_length_c       16.332
_cell_angle_alpha    85.1936
_cell_angle_beta     75.5455
_cell_angle_gamma    71.8333

_space_group_name_H-M_alt    "P 1"
_space_group_IT_number       1

loop_
  _space_group_symop_operation_xyz
  'x, y, z'

loop_
  _atom_site_type_symbol
  _atom_site_label
  _atom_site_symmetry_multiplicity
  _atom_site_fract_x
  _atom_site_fract_y
  _atom_site_fract_z
  _atom_site_occupancy
  Cd  Cd1       1.0  1.00000  0.50000  0.50000  1.0000
  Cd  Cd2       1.0  1.00000  0.00000  1.00000  1.0000
  H   H1        1.0  0.19884  0.21513  0.46343  1.0000
  H   H2        1.0  0.87708  0.28463  0.03665  1.0000
  H   H3        1.0  0.80116  0.78487  0.53657  1.0000
  H   H4        1.0  0.12291  0.71537  0.96335  1.0000
  H   H5        1.0  0.75424  0.15546  0.63444  1.0000
  H   H6        1.0  0.54436  0.34446  0.86546  1.0000
  H   H7        1.0  0.24576  0.84454  0.36556  1.0000
  H   H8        1.0  0.45564  0.65554  0.13454  1.0000
  H   H9        1.0  0.67728  0.37472  0.59920  1.0000
  H   H10       1.0  0.65100  0.12517  0.90063  1.0000
  H   H11       1.0  0.32272  0.62528  0.40080  1.0000
  H   H12       1.0  0.34900  0.87483  0.09937  1.0000
  H   H13       1.0  0.15077  0.82965  0.68965  1.0000
  H   H14       1.0  0.67050  0.67025  0.81045  1.0000
  H   H15       1.0  0.84923  0.17035  0.31035  1.0000
  H   H16       1.0  0.32950  0.32975  0.18955  1.0000
  H   H17       1.0  0.95315  0.01200  0.67351  1.0000
  H   H18       1.0  0.63919  0.48785  0.82649  1.0000
  H   H19       1.0  0.04685  0.98800  0.32649  1.0000
  H   H20       1.0  0.36081  0.51215  0.17351  1.0000
  H   H21       1.0  0.60730  0.68215  0.46187  1.0000
  H   H22       1.0  0.75116  0.81795  0.03825  1.0000
  H   H23       1.0  0.39270  0.31785  0.53813  1.0000
  H   H24       1.0  0.24884  0.18205  0.96175  1.0000
  H   H25       1.0  0.70047  0.55079  0.69711  1.0000
  H   H26       1.0  0.94872  0.94921  0.80300  1.0000
  H   H27       1.0  0.29953  0.44922  0.30289  1.0000
  H   H28       1.0  0.05129  0.05078  0.19700  1.0000
  H   H29       1.0  0.40912  0.73550  0.72494  1.0000
  H   H30       1.0  0.86979  0.76446  0.77517  1.0000
  H   H31       1.0  0.59088  0.26450  0.27506  1.0000
  H   H32       1.0  0.13022  0.23554  0.22483  1.0000
  H   H33       1.0  0.40957  0.11503  0.25876  1.0000
  H   H34       1.0  0.78348  0.38482  0.24142  1.0000
  H   H35       1.0  0.59043  0.88497  0.74124  1.0000
  H   H36       1.0  0.21652  0.61518  0.75858  1.0000
  H   H37       1.0  0.61466  0.12277  0.11633  1.0000
  H   H38       1.0  0.85393  0.37719  0.38381  1.0000
  H   H39       1.0  0.38533  0.87723  0.88367  1.0000
  H   H40       1.0  0.14606  0.62281  0.61619  1.0000
  H   H41       1.0  0.98720  0.84125  0.16554  1.0000
  H   H42       1.0  0.99404  0.65886  0.33451  1.0000
  H   H43       1.0  0.01280  0.15875  0.83446  1.0000
  H   H44       1.0  0.00597  0.34114  0.66549  1.0000
  H   H45       1.0  0.79536  0.82225  0.30908  1.0000
  H   H46       1.0  0.92670  0.67778  0.19098  1.0000
  H   H47       1.0  0.20464  0.17775  0.69092  1.0000
  H   H48       1.0  0.07331  0.32222  0.80902  1.0000
  C   C1        1.0  0.06743  0.23294  0.50511  1.0000
  C   C2        1.0  0.80535  0.26684  0.99487  1.0000
  C   C3        1.0  0.93257  0.76706  0.49489  1.0000
  C   C4        1.0  0.19464  0.73316  0.00513  1.0000
  C   C5        1.0  0.83521  0.20160  0.59597  1.0000
  C   C6        1.0  0.63294  0.29827  0.90391  1.0000
  C   C7        1.0  0.16479  0.79840  0.40403  1.0000
  C   C8        1.0  0.36706  0.70173  0.09609  1.0000
  C   C9        1.0  0.79840  0.30968  0.57721  1.0000
  C   C10       1.0  0.68505  0.19020  0.92272  1.0000
  C   C11       1.0  0.20160  0.69032  0.42279  1.0000
  C   C12       1.0  0.31495  0.80981  0.07728  1.0000
  C   C13       1.0  0.11079  0.04396  0.55336  1.0000
  C   C14       1.0  0.70849  0.45583  0.94664  1.0000
  C   C15       1.0  0.88921  0.95604  0.44664  1.0000
  C   C16       1.0  0.29151  0.54417  0.05336  1.0000
  C   C17       1.0  0.26131  0.99904  0.48804  1.0000
  C   C18       1.0  0.74864  0.50077  0.01202  1.0000
  C   C19       1.0  0.73869  0.00096  0.51197  1.0000
  C   C20       1.0  0.25136  0.49923  0.98798  1.0000
  C   C21       1.0  0.37902  0.89295  0.49808  1.0000
  C   C22       1.0  0.77036  0.60686  0.00199  1.0000
  C   C23       1.0  0.62098  0.10705  0.50192  1.0000
  C   C24       1.0  0.22964  0.39314  0.99801  1.0000
  C   C25       1.0  0.34150  0.83301  0.57251  1.0000
  C   C26       1.0  0.74738  0.66686  0.92758  1.0000
  C   C27       1.0  0.65849  0.16699  0.42749  1.0000
  C   C28       1.0  0.25262  0.33314  0.07242  1.0000
  C   C29       1.0  0.18466  0.87598  0.63282  1.0000
  C   C30       1.0  0.69397  0.62386  0.86723  1.0000
  C   C31       1.0  0.81534  0.12402  0.36718  1.0000
  C   C32       1.0  0.30603  0.37614  0.13277  1.0000
  C   C33       1.0  0.07175  0.98020  0.62370  1.0000
  C   C34       1.0  0.67617  0.51961  0.87631  1.0000
  C   C35       1.0  0.92824  0.01980  0.37631  1.0000
  C   C36       1.0  0.32383  0.48039  0.12368  1.0000
  C   C37       1.0  0.59361  0.66651  0.52906  1.0000
  C   C38       1.0  0.78930  0.83349  0.97105  1.0000
  C   C39       1.0  0.40638  0.33350  0.47094  1.0000
  C   C40       1.0  0.21070  0.16651  0.02895  1.0000
  C   C41       1.0  0.63588  0.60384  0.65227  1.0000
  C   C42       1.0  0.89226  0.89614  0.84783  1.0000
  C   C43       1.0  0.36411  0.39616  0.34773  1.0000
  C   C44       1.0  0.10775  0.10385  0.15217  1.0000
  C   C45       1.0  0.49134  0.69439  0.66721  1.0000
  C   C46       1.0  0.85312  0.80560  0.83290  1.0000
  C   C47       1.0  0.50866  0.30561  0.33279  1.0000
  C   C48       1.0  0.14688  0.19440  0.16710  1.0000
  C   C49       1.0  0.47464  0.95855  0.37826  1.0000
  C   C50       1.0  0.81172  0.54127  0.12180  1.0000
  C   C51       1.0  0.52536  0.04145  0.62174  1.0000
  C   C52       1.0  0.18828  0.45873  0.87820  1.0000
  C   C53       1.0  0.58684  0.96713  0.29511  1.0000
  C   C54       1.0  0.84927  0.53276  0.20497  1.0000
  C   C55       1.0  0.41316  0.03287  0.70489  1.0000
  C   C56       1.0  0.15073  0.46724  0.79502  1.0000
  C   C57       1.0  0.53666  0.05306  0.23957  1.0000
  C   C58       1.0  0.82947  0.44683  0.26055  1.0000
  C   C59       1.0  0.46334  0.94694  0.76044  1.0000
  C   C60       1.0  0.17053  0.55317  0.73945  1.0000
  C   C61       1.0  0.64972  0.05737  0.16107  1.0000
  C   C62       1.0  0.86824  0.44262  0.33905  1.0000
  C   C63       1.0  0.35027  0.94264  0.83893  1.0000
  C   C64       1.0  0.13176  0.55738  0.66095  1.0000
  C   C65       1.0  0.85725  0.89988  0.18813  1.0000
  C   C66       1.0  0.94530  0.60017  0.31195  1.0000
  C   C67       1.0  0.14274  0.10012  0.81188  1.0000
  C   C68       1.0  0.05470  0.39982  0.68805  1.0000
  C   C69       1.0  0.75209  0.88928  0.26736  1.0000
  C   C70       1.0  0.90887  0.61070  0.23271  1.0000
  C   C71       1.0  0.24791  0.11072  0.73264  1.0000
  C   C72       1.0  0.09113  0.38930  0.76729  1.0000
  N   N1        1.0  0.94458  0.32846  0.52079  1.0000
  N   N2        1.0  0.79358  0.17136  0.97912  1.0000
  N   N3        1.0  0.05542  0.67154  0.47921  1.0000
  N   N4        1.0  0.20641  0.82864  0.02088  1.0000
  N   N5        1.0  0.00684  0.15326  0.54969  1.0000
  N   N6        1.0  0.70997  0.34657  0.95023  1.0000
  N   N7        1.0  0.99317  0.84674  0.45031  1.0000
  N   N8        1.0  0.29003  0.65344  0.04977  1.0000
  N   N9        1.0  0.46545  0.73406  0.58827  1.0000
  N   N10       1.0  0.78795  0.76590  0.91184  1.0000
  N   N11       1.0  0.53455  0.26595  0.41173  1.0000
  N   N12       1.0  0.21205  0.23410  0.08816  1.0000
  N   N13       1.0  0.69878  0.58720  0.56613  1.0000
  N   N14       1.0  0.85238  0.91276  0.93397  1.0000
  N   N15       1.0  0.30122  0.41280  0.43387  1.0000
  N   N16       1.0  0.14762  0.08724  0.06603  1.0000
  N   N17       1.0  0.32454  0.03926  0.41090  1.0000
  N   N18       1.0  0.77494  0.46054  0.08915  1.0000
  N   N19       1.0  0.67546  0.96074  0.58910  1.0000
  N   N20       1.0  0.22506  0.53946  0.91085  1.0000
  N   N21       1.0  0.51515  0.86895  0.42764  1.0000
  N   N22       1.0  0.81208  0.63086  0.07242  1.0000
  N   N23       1.0  0.48485  0.13105  0.57236  1.0000
  N   N24       1.0  0.18793  0.36914  0.92758  1.0000
  N   N25       1.0  0.80869  0.98235  0.13488  1.0000
  N   N26       1.0  0.92601  0.51768  0.36519  1.0000
  N   N27       1.0  0.19131  0.01765  0.86511  1.0000
  N   N28       1.0  0.07399  0.48232  0.63481  1.0000
