data_image0
_chemical_formula_structural       Cd2H36C56N12O12
_chemical_formula_sum              "Cd2 H36 C56 N12 O12"
_cell_length_a       9.0973
_cell_length_b       10.5049
_cell_length_c       13.7479
_cell_angle_alpha    76.3448
_cell_angle_beta     82.5902
_cell_angle_gamma    86.6025

_space_group_name_H-M_alt    "P 1"
_space_group_IT_number       1

loop_
  _space_group_symop_operation_xyz
  'x, y, z'

loop_
  _atom_site_type_symbol
  _atom_site_label
  _atom_site_symmetry_multiplicity
  _atom_site_fract_x
  _atom_site_fract_y
  _atom_site_fract_z
  _atom_site_occupancy
  Cd  Cd1       1.0  0.68384  0.01302  0.84192  1.0000
  Cd  Cd2       1.0  0.31616  0.98698  0.15807  1.0000
  H   H1        1.0  0.67713  0.09254  0.06269  1.0000
  H   H2        1.0  0.32287  0.90747  0.93731  1.0000
  H   H3        1.0  0.92896  0.78277  0.96682  1.0000
  H   H4        1.0  0.07104  0.21723  0.03317  1.0000
  H   H5        1.0  0.99420  0.79073  0.15757  1.0000
  H   H6        1.0  0.00580  0.20927  0.84242  1.0000
  H   H7        1.0  0.99201  0.13735  0.18157  1.0000
  H   H8        1.0  0.00799  0.86265  0.81842  1.0000
  H   H9        1.0  0.98943  0.18956  0.34345  1.0000
  H   H10       1.0  0.01058  0.81045  0.65654  1.0000
  H   H11       1.0  0.43741  0.75508  0.61453  1.0000
  H   H12       1.0  0.56260  0.24492  0.38547  1.0000
  H   H13       1.0  0.24439  0.59004  0.69235  1.0000
  H   H14       1.0  0.75562  0.40996  0.30766  1.0000
  H   H15       1.0  0.27265  0.46510  0.41305  1.0000
  H   H16       1.0  0.72735  0.53490  0.58695  1.0000
  H   H17       1.0  0.46077  0.62963  0.33539  1.0000
  H   H18       1.0  0.53924  0.37037  0.66461  1.0000
  H   H19       1.0  0.11481  0.35397  0.55177  1.0000
  H   H20       1.0  0.88520  0.64603  0.44824  1.0000
  H   H21       1.0  0.97259  0.24446  0.47634  1.0000
  H   H22       1.0  0.02742  0.75554  0.52366  1.0000
  H   H23       1.0  0.91059  0.24041  0.67942  1.0000
  H   H24       1.0  0.08941  0.75958  0.32058  1.0000
  H   H25       1.0  0.68839  0.93130  0.61629  1.0000
  H   H26       1.0  0.31161  0.06871  0.38371  1.0000
  H   H27       1.0  0.71479  0.51027  0.83975  1.0000
  H   H28       1.0  0.28520  0.48973  0.16025  1.0000
  H   H29       1.0  0.30371  0.73019  0.87348  1.0000
  H   H30       1.0  0.69628  0.26980  0.12653  1.0000
  H   H31       1.0  0.29697  0.31996  0.87691  1.0000
  H   H32       1.0  0.70303  0.68003  0.12309  1.0000
  H   H33       1.0  0.58627  0.80698  0.26626  1.0000
  H   H34       1.0  0.41373  0.19302  0.73374  1.0000
  H   H35       1.0  0.08732  0.45869  0.88537  1.0000
  H   H36       1.0  0.91268  0.54130  0.11463  1.0000
  C   C1        1.0  0.75636  0.01185  0.05869  1.0000
  C   C2        1.0  0.24364  0.98816  0.94130  1.0000
  C   C3        1.0  0.88869  0.85000  0.01393  1.0000
  C   C4        1.0  0.11130  0.15001  0.98607  1.0000
  C   C5        1.0  0.91984  0.85085  0.10871  1.0000
  C   C6        1.0  0.08016  0.14915  0.89128  1.0000
  C   C7        1.0  0.82709  0.98959  0.23053  1.0000
  C   C8        1.0  0.17291  0.01041  0.76947  1.0000
  C   C9        1.0  0.91631  0.08528  0.24403  1.0000
  C   C10       1.0  0.08369  0.91472  0.75597  1.0000
  C   C11       1.0  0.91512  0.11465  0.33849  1.0000
  C   C12       1.0  0.08489  0.88536  0.66150  1.0000
  C   C13       1.0  0.82725  0.04732  0.42356  1.0000
  C   C14       1.0  0.17275  0.95269  0.57644  1.0000
  C   C15       1.0  0.73351  0.95081  0.41160  1.0000
  C   C16       1.0  0.26649  0.04920  0.58840  1.0000
  C   C17       1.0  0.73311  0.92566  0.31433  1.0000
  C   C18       1.0  0.26689  0.07435  0.68567  1.0000
  C   C19       1.0  0.57283  0.80184  0.42649  1.0000
  C   C20       1.0  0.42717  0.19816  0.57351  1.0000
  C   C21       1.0  0.46022  0.70489  0.46961  1.0000
  C   C22       1.0  0.53978  0.29511  0.53038  1.0000
  C   C23       1.0  0.39944  0.69173  0.57115  1.0000
  C   C24       1.0  0.60056  0.30827  0.42885  1.0000
  C   C25       1.0  0.29290  0.60002  0.61440  1.0000
  C   C26       1.0  0.70711  0.39998  0.38561  1.0000
  C   C27       1.0  0.24650  0.51739  0.55787  1.0000
  C   C28       1.0  0.75350  0.48260  0.44213  1.0000
  C   C29       1.0  0.30738  0.52975  0.45697  1.0000
  C   C30       1.0  0.69262  0.47024  0.54303  1.0000
  C   C31       1.0  0.41274  0.62305  0.41300  1.0000
  C   C32       1.0  0.58725  0.37695  0.58700  1.0000
  C   C33       1.0  0.13741  0.41685  0.60309  1.0000
  C   C34       1.0  0.86259  0.58315  0.39691  1.0000
  C   C35       1.0  0.90696  0.17860  0.53615  1.0000
  C   C36       1.0  0.09304  0.82140  0.46385  1.0000
  C   C37       1.0  0.87500  0.17552  0.63669  1.0000
  C   C38       1.0  0.12500  0.82448  0.36332  1.0000
  C   C39       1.0  0.75671  0.01493  0.60875  1.0000
  C   C40       1.0  0.24330  0.98507  0.39125  1.0000
  C   C41       1.0  0.59039  0.27402  0.85116  1.0000
  C   C42       1.0  0.40961  0.72598  0.14884  1.0000
  C   C43       1.0  0.51333  0.40244  0.85737  1.0000
  C   C44       1.0  0.48666  0.59756  0.14263  1.0000
  C   C45       1.0  0.59408  0.51454  0.84990  1.0000
  C   C46       1.0  0.40591  0.48546  0.15010  1.0000
  C   C47       1.0  0.51787  0.63303  0.85501  1.0000
  C   C48       1.0  0.48212  0.36697  0.14499  1.0000
  C   C49       1.0  0.36271  0.63814  0.86967  1.0000
  C   C50       1.0  0.63728  0.36185  0.13033  1.0000
  C   C51       1.0  0.28255  0.52613  0.87785  1.0000
  C   C52       1.0  0.71744  0.47386  0.12216  1.0000
  C   C53       1.0  0.35780  0.40832  0.87077  1.0000
  C   C54       1.0  0.64219  0.59168  0.12923  1.0000
  C   C55       1.0  0.59986  0.75686  0.84378  1.0000
  C   C56       1.0  0.40013  0.24313  0.15622  1.0000
  N   N1        1.0  0.78756  0.95089  0.98387  1.0000
  N   N2        1.0  0.21244  0.04911  0.01613  1.0000
  N   N3        1.0  0.83425  0.95367  0.13616  1.0000
  N   N4        1.0  0.16575  0.04633  0.86383  1.0000
  N   N5        1.0  0.63023  0.83113  0.32611  1.0000
  N   N6        1.0  0.36977  0.16887  0.67389  1.0000
  N   N7        1.0  0.63430  0.87121  0.47988  1.0000
  N   N8        1.0  0.36570  0.12880  0.52012  1.0000
  N   N9        1.0  0.83083  0.07699  0.51837  1.0000
  N   N10       1.0  0.16918  0.92301  0.48162  1.0000
  N   N11       1.0  0.78231  0.07285  0.68064  1.0000
  N   N12       1.0  0.21769  0.92715  0.31936  1.0000
  O   O1        1.0  0.50958  0.18429  0.83480  1.0000
  O   O2        1.0  0.49041  0.81571  0.16520  1.0000
  O   O3        1.0  0.72577  0.25458  0.86137  1.0000
  O   O4        1.0  0.27423  0.74542  0.13862  1.0000
  O   O5        1.0  0.13076  0.53908  0.89077  1.0000
  O   O6        1.0  0.86923  0.46091  0.10924  1.0000
  O   O7        1.0  0.73908  0.75886  0.82609  1.0000
  O   O8        1.0  0.26092  0.24113  0.17392  1.0000
  O   O9        1.0  0.51735  0.85959  0.85244  1.0000
  O   O10       1.0  0.48265  0.14041  0.14756  1.0000
  O   O11       1.0  0.07322  0.39794  0.68965  1.0000
  O   O12       1.0  0.92678  0.60207  0.31036  1.0000
