data_image0
_chemical_formula_structural       Ag2H50C60N8O8
_chemical_formula_sum              "Ag2 H50 C60 N8 O8"
_cell_length_a       8.42263
_cell_length_b       12.0032
_cell_length_c       14.2108
_cell_angle_alpha    80.5555
_cell_angle_beta     80.0521
_cell_angle_gamma    70.7175

_space_group_name_H-M_alt    "P 1"
_space_group_IT_number       1

loop_
  _space_group_symop_operation_xyz
  'x, y, z'

loop_
  _atom_site_type_symbol
  _atom_site_label
  _atom_site_symmetry_multiplicity
  _atom_site_fract_x
  _atom_site_fract_y
  _atom_site_fract_z
  _atom_site_occupancy
  Ag  Ag1       1.0  0.95408  0.24374  0.23512  1.0000
  Ag  Ag2       1.0  0.04592  0.75626  0.76488  1.0000
  H   H1        1.0  0.24104  0.34421  0.10030  1.0000
  H   H2        1.0  0.75896  0.65579  0.89969  1.0000
  H   H3        1.0  0.94437  0.78884  0.06318  1.0000
  H   H4        1.0  0.05562  0.21116  0.93682  1.0000
  H   H5        1.0  0.64522  0.86193  0.14099  1.0000
  H   H6        1.0  0.35477  0.13807  0.85901  1.0000
  H   H7        1.0  0.49048  0.72401  0.22312  1.0000
  H   H8        1.0  0.50951  0.27599  0.77688  1.0000
  H   H9        1.0  0.63360  0.50295  0.23656  1.0000
  H   H10       1.0  0.36639  0.49705  0.76344  1.0000
  H   H11       1.0  0.26880  0.64536  0.07262  1.0000
  H   H12       1.0  0.73120  0.35464  0.92738  1.0000
  H   H13       1.0  0.22844  0.61936  0.96117  1.0000
  H   H14       1.0  0.77156  0.38064  0.03883  1.0000
  H   H15       1.0  0.41886  0.40807  0.98559  1.0000
  H   H16       1.0  0.58114  0.59193  0.01441  1.0000
  H   H17       1.0  0.45729  0.43340  0.09800  1.0000
  H   H18       1.0  0.54271  0.56660  0.90200  1.0000
  H   H19       1.0  0.17946  0.96974  0.02871  1.0000
  H   H20       1.0  0.82054  0.03026  0.97128  1.0000
  H   H21       1.0  0.23758  0.07991  0.14524  1.0000
  H   H22       1.0  0.76243  0.92009  0.85476  1.0000
  H   H23       1.0  0.43139  0.16149  0.20267  1.0000
  H   H24       1.0  0.56862  0.83851  0.79733  1.0000
  H   H25       1.0  0.12655  0.18670  0.43909  1.0000
  H   H26       1.0  0.87345  0.81330  0.56092  1.0000
  H   H27       1.0  0.00911  0.96749  0.20154  1.0000
  H   H28       1.0  0.99089  0.03251  0.79846  1.0000
  H   H29       1.0  0.08057  0.74586  0.23287  1.0000
  H   H30       1.0  0.91943  0.25414  0.76714  1.0000
  H   H31       1.0  0.21967  0.63454  0.37453  1.0000
  H   H32       1.0  0.78033  0.36547  0.62547  1.0000
  H   H33       1.0  0.28999  0.73786  0.49251  1.0000
  H   H34       1.0  0.71001  0.26214  0.50749  1.0000
  H   H35       1.0  0.25017  0.89962  0.59632  1.0000
  H   H36       1.0  0.74983  0.10038  0.40368  1.0000
  H   H37       1.0  0.22350  0.05337  0.58853  1.0000
  H   H38       1.0  0.77650  0.94664  0.41147  1.0000
  H   H39       1.0  0.52903  0.86825  0.49114  1.0000
  H   H40       1.0  0.47097  0.13176  0.50886  1.0000
  H   H41       1.0  0.52320  0.92558  0.59897  1.0000
  H   H42       1.0  0.47680  0.07442  0.40103  1.0000
  H   H43       1.0  0.54550  0.26915  0.24082  1.0000
  H   H44       1.0  0.45450  0.73084  0.75919  1.0000
  H   H45       1.0  0.87293  0.60635  0.66925  1.0000
  H   H46       1.0  0.12708  0.39365  0.33075  1.0000
  H   H47       1.0  0.18660  0.52965  0.63296  1.0000
  H   H48       1.0  0.81341  0.47035  0.36704  1.0000
  H   H49       1.0  0.44167  0.42426  0.52795  1.0000
  H   H50       1.0  0.55833  0.57574  0.47204  1.0000
  C   C1        1.0  0.12760  0.41878  0.11287  1.0000
  C   C2        1.0  0.87240  0.58122  0.88713  1.0000
  C   C3        1.0  0.95683  0.60430  0.11222  1.0000
  C   C4        1.0  0.04317  0.39570  0.88779  1.0000
  C   C5        1.0  0.87894  0.72728  0.10279  1.0000
  C   C6        1.0  0.12106  0.27272  0.89722  1.0000
  C   C7        1.0  0.71075  0.76692  0.14494  1.0000
  C   C8        1.0  0.28924  0.23308  0.85506  1.0000
  C   C9        1.0  0.62222  0.68792  0.19202  1.0000
  C   C10       1.0  0.37778  0.31207  0.80798  1.0000
  C   C11       1.0  0.69964  0.56532  0.19970  1.0000
  C   C12       1.0  0.30035  0.43468  0.80030  1.0000
  C   C13       1.0  0.86958  0.52394  0.15992  1.0000
  C   C14       1.0  0.13042  0.47606  0.84008  1.0000
  C   C15       1.0  0.26044  0.57634  0.03297  1.0000
  C   C16       1.0  0.73956  0.42366  0.96703  1.0000
  C   C17       1.0  0.42830  0.47636  0.02561  1.0000
  C   C18       1.0  0.57170  0.52364  0.97439  1.0000
  C   C19       1.0  0.30811  0.95743  0.99220  1.0000
  C   C20       1.0  0.69190  0.04257  0.00779  1.0000
  C   C21       1.0  0.41659  0.00653  0.02535  1.0000
  C   C22       1.0  0.58341  0.99347  0.97464  1.0000
  C   C23       1.0  0.36504  0.06913  0.10745  1.0000
  C   C24       1.0  0.63496  0.93087  0.89255  1.0000
  C   C25       1.0  0.47334  0.11568  0.13852  1.0000
  C   C26       1.0  0.52666  0.88432  0.86147  1.0000
  C   C27       1.0  0.63900  0.10290  0.08842  1.0000
  C   C28       1.0  0.36101  0.89710  0.91157  1.0000
  C   C29       1.0  0.76105  0.15087  0.12156  1.0000
  C   C30       1.0  0.23895  0.84912  0.87844  1.0000
  C   C31       1.0  0.13353  0.10439  0.41381  1.0000
  C   C32       1.0  0.86647  0.89561  0.58619  1.0000
  C   C33       1.0  0.10854  0.97590  0.33041  1.0000
  C   C34       1.0  0.89145  0.02410  0.66960  1.0000
  C   C35       1.0  0.06993  0.91750  0.26403  1.0000
  C   C36       1.0  0.93007  0.08250  0.73598  1.0000
  C   C37       1.0  0.11171  0.79427  0.28192  1.0000
  C   C38       1.0  0.88829  0.20573  0.71808  1.0000
  C   C39       1.0  0.19053  0.73072  0.36297  1.0000
  C   C40       1.0  0.80947  0.26928  0.63703  1.0000
  C   C41       1.0  0.23107  0.78745  0.42932  1.0000
  C   C42       1.0  0.76893  0.21255  0.57068  1.0000
  C   C43       1.0  0.18839  0.91110  0.41135  1.0000
  C   C44       1.0  0.81161  0.08890  0.58865  1.0000
  C   C45       1.0  0.28191  0.97416  0.55034  1.0000
  C   C46       1.0  0.71809  0.02584  0.44966  1.0000
  C   C47       1.0  0.47383  0.94811  0.52911  1.0000
  C   C48       1.0  0.52617  0.05189  0.47089  1.0000
  C   C49       1.0  0.86082  0.57795  0.60243  1.0000
  C   C50       1.0  0.13918  0.42205  0.39757  1.0000
  C   C51       1.0  0.00873  0.51974  0.54336  1.0000
  C   C52       1.0  0.99127  0.48026  0.45664  1.0000
  C   C53       1.0  0.17350  0.49846  0.56781  1.0000
  C   C54       1.0  0.82650  0.50154  0.43219  1.0000
  C   C55       1.0  0.31506  0.44084  0.50948  1.0000
  C   C56       1.0  0.68494  0.55916  0.49052  1.0000
  C   C57       1.0  0.29860  0.40313  0.42299  1.0000
  C   C58       1.0  0.70141  0.59688  0.57700  1.0000
  C   C59       1.0  0.45559  0.34787  0.35878  1.0000
  C   C60       1.0  0.54441  0.65213  0.64122  1.0000
  N   N1        1.0  0.98061  0.40877  0.15877  1.0000
  N   N2        1.0  0.01938  0.59123  0.84123  1.0000
  N   N3        1.0  0.12082  0.53389  0.08319  1.0000
  N   N4        1.0  0.87918  0.46611  0.91681  1.0000
  N   N5        1.0  0.20157  0.99601  0.46297  1.0000
  N   N6        1.0  0.79843  0.00399  0.53703  1.0000
  N   N7        1.0  0.07580  0.09675  0.33458  1.0000
  N   N8        1.0  0.92420  0.90325  0.66543  1.0000
  O   O1        1.0  0.91209  0.12585  0.08284  1.0000
  O   O2        1.0  0.08791  0.87416  0.91716  1.0000
  O   O3        1.0  0.70500  0.21700  0.19149  1.0000
  O   O4        1.0  0.29501  0.78298  0.80853  1.0000
  O   O5        1.0  0.59877  0.33850  0.37664  1.0000
  O   O6        1.0  0.40123  0.66150  0.62335  1.0000
  O   O7        1.0  0.42724  0.31193  0.28160  1.0000
  O   O8        1.0  0.57276  0.68806  0.71840  1.0000
