data_image0
_chemical_formula_structural       Gd2Cu2H44C36I2N10O18
_chemical_formula_sum              "Gd2 Cu2 H44 C36 I2 N10 O18"
_cell_length_a       10.8789
_cell_length_b       12.7787
_cell_length_c       14.548
_cell_angle_alpha    92.3174
_cell_angle_beta     95.4558
_cell_angle_gamma    120.792

_space_group_name_H-M_alt    "P 1"
_space_group_IT_number       1

loop_
  _space_group_symop_operation_xyz
  'x, y, z'

loop_
  _atom_site_type_symbol
  _atom_site_label
  _atom_site_symmetry_multiplicity
  _atom_site_fract_x
  _atom_site_fract_y
  _atom_site_fract_z
  _atom_site_occupancy
  Gd  Gd1       1.0  0.77879  0.37622  0.96407  1.0000
  Gd  Gd2       1.0  0.22121  0.62377  0.03593  1.0000
  Cu  Cu1       1.0  0.01113  0.99669  0.58759  1.0000
  Cu  Cu2       1.0  0.98885  0.00330  0.41240  1.0000
  H   H1        1.0  0.23516  0.79727  0.77639  1.0000
  H   H2        1.0  0.76484  0.20274  0.22363  1.0000
  H   H3        1.0  0.30091  0.35102  0.83985  1.0000
  H   H4        1.0  0.69906  0.64894  0.16015  1.0000
  H   H5        1.0  0.77251  0.61349  0.75273  1.0000
  H   H6        1.0  0.22748  0.38651  0.24727  1.0000
  H   H7        1.0  0.84214  0.21105  0.79851  1.0000
  H   H8        1.0  0.15785  0.78895  0.20148  1.0000
  H   H9        1.0  0.26069  0.20390  0.70515  1.0000
  H   H10       1.0  0.73928  0.79608  0.29484  1.0000
  H   H11       1.0  0.22769  0.93479  0.65906  1.0000
  H   H12       1.0  0.77231  0.06521  0.34096  1.0000
  H   H13       1.0  0.81963  0.06473  0.66823  1.0000
  H   H14       1.0  0.18036  0.93527  0.33176  1.0000
  H   H15       1.0  0.67403  0.34978  0.18831  1.0000
  H   H16       1.0  0.32596  0.65021  0.81169  1.0000
  H   H17       1.0  0.78351  0.76152  0.63804  1.0000
  H   H18       1.0  0.21650  0.23849  0.36197  1.0000
  H   H19       1.0  0.60478  0.09735  0.07174  1.0000
  H   H20       1.0  0.39517  0.90261  0.92825  1.0000
  H   H21       1.0  0.61183  0.43126  0.29213  1.0000
  H   H22       1.0  0.38815  0.56874  0.70785  1.0000
  H   H23       1.0  0.42084  0.34717  0.29087  1.0000
  H   H24       1.0  0.57916  0.65284  0.70912  1.0000
  H   H25       1.0  0.50845  0.49787  0.25415  1.0000
  H   H26       1.0  0.49154  0.50213  0.74584  1.0000
  H   H27       1.0  0.59042  0.94897  0.14530  1.0000
  H   H28       1.0  0.40958  0.05101  0.85469  1.0000
  H   H29       1.0  0.75709  0.95134  0.16006  1.0000
  H   H30       1.0  0.24289  0.04865  0.83995  1.0000
  H   H31       1.0  0.60713  0.83743  0.07954  1.0000
  H   H32       1.0  0.39289  0.16258  0.92046  1.0000
  H   H33       1.0  0.39347  0.32967  0.02307  1.0000
  H   H34       1.0  0.60652  0.67032  0.97692  1.0000
  H   H35       1.0  0.38151  0.43909  0.09657  1.0000
  H   H36       1.0  0.61849  0.56090  0.90340  1.0000
  H   H37       1.0  0.27124  0.28008  0.10836  1.0000
  H   H38       1.0  0.72875  0.71992  0.89162  1.0000
  H   H39       1.0  0.85092  0.07530  0.93368  1.0000
  H   H40       1.0  0.14916  0.92478  0.06638  1.0000
  H   H41       1.0  0.75501  0.91281  0.93899  1.0000
  H   H42       1.0  0.24514  0.08727  0.06105  1.0000
  H   H43       1.0  0.90318  0.01089  0.02608  1.0000
  H   H44       1.0  0.09692  0.98921  0.97397  1.0000
  C   C1        1.0  0.00383  0.69767  0.77614  1.0000
  C   C2        1.0  0.99618  0.30233  0.22385  1.0000
  C   C3        1.0  0.13302  0.78713  0.74761  1.0000
  C   C4        1.0  0.86698  0.21287  0.25241  1.0000
  C   C5        1.0  0.09358  0.38378  0.90651  1.0000
  C   C6        1.0  0.90641  0.61620  0.09349  1.0000
  C   C7        1.0  0.00262  0.61983  0.85110  1.0000
  C   C8        1.0  0.99737  0.38015  0.14889  1.0000
  C   C9        1.0  0.07382  0.29212  0.83046  1.0000
  C   C10       1.0  0.92617  0.70787  0.16953  1.0000
  C   C11       1.0  0.19243  0.28899  0.80376  1.0000
  C   C12       1.0  0.80755  0.71100  0.19623  1.0000
  C   C13       1.0  0.87505  0.68546  0.73469  1.0000
  C   C14       1.0  0.12495  0.31455  0.26532  1.0000
  C   C15       1.0  0.93696  0.21034  0.78134  1.0000
  C   C16       1.0  0.06303  0.78966  0.21865  1.0000
  C   C17       1.0  0.17034  0.20601  0.72999  1.0000
  C   C18       1.0  0.82964  0.79397  0.27000  1.0000
  C   C19       1.0  0.12974  0.86368  0.68352  1.0000
  C   C20       1.0  0.87025  0.13631  0.31649  1.0000
  C   C21       1.0  0.92380  0.12923  0.70913  1.0000
  C   C22       1.0  0.07619  0.87077  0.29085  1.0000
  C   C23       1.0  0.58513  0.33039  0.13366  1.0000
  C   C24       1.0  0.41484  0.66961  0.86632  1.0000
  C   C25       1.0  0.88061  0.76608  0.67176  1.0000
  C   C26       1.0  0.11939  0.23391  0.32824  1.0000
  C   C27       1.0  0.67399  0.09492  0.02192  1.0000
  C   C28       1.0  0.32600  0.90507  0.97807  1.0000
  C   C29       1.0  0.50911  0.41221  0.25456  1.0000
  C   C30       1.0  0.49088  0.58779  0.74543  1.0000
  C   C31       1.0  0.66482  0.93329  0.10971  1.0000
  C   C32       1.0  0.33518  0.06669  0.89031  1.0000
  C   C33       1.0  0.37767  0.35157  0.09279  1.0000
  C   C34       1.0  0.62232  0.64842  0.90720  1.0000
  C   C35       1.0  0.81176  0.00279  0.98010  1.0000
  C   C36       1.0  0.18835  0.99728  0.01994  1.0000
  I   I1        1.0  0.25077  0.09711  0.50737  1.0000
  I   I2        1.0  0.74918  0.90287  0.49260  1.0000
  N   N1        1.0  0.00601  0.85655  0.64788  1.0000
  N   N2        1.0  0.99399  0.14345  0.35213  1.0000
  N   N3        1.0  0.03796  0.12582  0.68333  1.0000
  N   N4        1.0  0.96202  0.87417  0.31665  1.0000
  N   N5        1.0  0.49277  0.36114  0.15959  1.0000
  N   N6        1.0  0.50721  0.63885  0.84040  1.0000
  N   N7        1.0  0.58915  0.32573  0.79328  1.0000
  N   N8        1.0  0.41084  0.67427  0.20672  1.0000
  N   N9        1.0  0.71492  0.01404  0.03654  1.0000
  N   N10       1.0  0.28512  0.98596  0.96348  1.0000
  O   O1        1.0  0.88063  0.54081  0.87227  1.0000
  O   O2        1.0  0.11936  0.45916  0.12772  1.0000
  O   O3        1.0  0.98227  0.38230  0.92891  1.0000
  O   O4        1.0  0.01772  0.61769  0.07108  1.0000
  O   O5        1.0  0.12507  0.64168  0.88916  1.0000
  O   O6        1.0  0.87493  0.35832  0.11084  1.0000
  O   O7        1.0  0.22079  0.46218  0.94481  1.0000
  O   O8        1.0  0.77921  0.53780  0.05518  1.0000
  O   O9        1.0  0.70821  0.16311  0.95760  1.0000
  O   O10       1.0  0.29181  0.83690  0.04240  1.0000
  O   O11       1.0  0.57676  0.28365  0.05368  1.0000
  O   O12       1.0  0.42323  0.71634  0.94632  1.0000
  O   O13       1.0  0.67818  0.28795  0.80053  1.0000
  O   O14       1.0  0.32181  0.71206  0.19947  1.0000
  O   O15       1.0  0.56994  0.36592  0.87089  1.0000
  O   O16       1.0  0.43005  0.63407  0.12911  1.0000
  O   O17       1.0  0.52536  0.32448  0.71826  1.0000
  O   O18       1.0  0.47463  0.67549  0.28173  1.0000
