data_image0
_chemical_formula_structural       Sm2Cu2H44C36I2N10O18
_chemical_formula_sum              "Sm2 Cu2 H44 C36 I2 N10 O18"
_cell_length_a       10.8541
_cell_length_b       11.8572
_cell_length_c       14.6655
_cell_angle_alpha    82.4879
_cell_angle_beta     85.1415
_cell_angle_gamma    68.063

_space_group_name_H-M_alt    "P 1"
_space_group_IT_number       1

loop_
  _space_group_symop_operation_xyz
  'x, y, z'

loop_
  _atom_site_type_symbol
  _atom_site_label
  _atom_site_symmetry_multiplicity
  _atom_site_fract_x
  _atom_site_fract_y
  _atom_site_fract_z
  _atom_site_occupancy
  Sm  Sm1       1.0  0.90291  0.38107  0.03588  1.0000
  Sm  Sm2       1.0  0.09708  0.61893  0.96412  1.0000
  Cu  Cu1       1.0  0.51361  0.99799  0.41331  1.0000
  Cu  Cu2       1.0  0.48640  0.00201  0.58669  1.0000
  H   H1        1.0  0.56111  0.20023  0.29720  1.0000
  H   H2        1.0  0.43892  0.79976  0.70278  1.0000
  H   H3        1.0  0.45741  0.34760  0.16196  1.0000
  H   H4        1.0  0.54260  0.65240  0.83803  1.0000
  H   H5        1.0  0.13087  0.21881  0.19973  1.0000
  H   H6        1.0  0.86912  0.78121  0.80029  1.0000
  H   H7        1.0  0.25205  0.07165  0.33043  1.0000
  H   H8        1.0  0.74796  0.92836  0.66958  1.0000
  H   H9        1.0  0.78823  0.94114  0.33754  1.0000
  H   H10       1.0  0.21178  0.05885  0.66247  1.0000
  H   H11       1.0  0.93065  0.80593  0.21945  1.0000
  H   H12       1.0  0.06936  0.19407  0.78056  1.0000
  H   H13       1.0  0.65828  0.61662  0.24881  1.0000
  H   H14       1.0  0.34172  0.38337  0.75121  1.0000
  H   H15       1.0  0.52319  0.76252  0.36396  1.0000
  H   H16       1.0  0.47681  0.23747  0.63606  1.0000
  H   H17       1.0  0.27903  0.06768  0.07655  1.0000
  H   H18       1.0  0.72096  0.93231  0.92345  1.0000
  H   H19       1.0  0.39826  0.99422  0.98938  1.0000
  H   H20       1.0  0.60173  0.00578  0.01062  1.0000
  H   H21       1.0  0.33541  0.90530  0.07444  1.0000
  H   H22       1.0  0.66458  0.09470  0.92555  1.0000
  H   H23       1.0  0.14262  0.95320  0.86065  1.0000
  H   H24       1.0  0.85739  0.04679  0.13934  1.0000
  H   H25       1.0  0.26669  0.83661  0.92777  1.0000
  H   H26       1.0  0.73331  0.16340  0.07222  1.0000
  H   H27       1.0  0.31002  0.94800  0.85096  1.0000
  H   H28       1.0  0.68998  0.05200  0.14904  1.0000
  H   H29       1.0  0.01011  0.10323  0.93327  1.0000
  H   H30       1.0  0.98988  0.89679  0.06672  1.0000
  H   H31       1.0  0.56454  0.33505  0.97632  1.0000
  H   H32       1.0  0.43546  0.66496  0.02368  1.0000
  H   H33       1.0  0.48603  0.28917  0.89264  1.0000
  H   H34       1.0  0.51397  0.71084  0.10736  1.0000
  H   H35       1.0  0.44493  0.44726  0.90222  1.0000
  H   H36       1.0  0.55507  0.55275  0.09778  1.0000
  H   H37       1.0  0.68277  0.42435  0.70788  1.0000
  H   H38       1.0  0.31722  0.57565  0.29212  1.0000
  H   H39       1.0  0.51277  0.49681  0.74432  1.0000
  H   H40       1.0  0.48722  0.50319  0.25568  1.0000
  H   H41       1.0  0.57180  0.34460  0.71161  1.0000
  H   H42       1.0  0.42819  0.65540  0.28839  1.0000
  H   H43       1.0  0.82706  0.34291  0.81170  1.0000
  H   H44       1.0  0.17293  0.65711  0.18830  1.0000
  C   C1        1.0  0.46772  0.20487  0.27141  1.0000
  C   C2        1.0  0.53230  0.79513  0.72858  1.0000
  C   C3        1.0  0.40864  0.28795  0.19729  1.0000
  C   C4        1.0  0.59138  0.71205  0.80271  1.0000
  C   C5        1.0  0.28544  0.29463  0.16942  1.0000
  C   C6        1.0  0.71456  0.70537  0.83059  1.0000
  C   C7        1.0  0.22732  0.21583  0.21769  1.0000
  C   C8        1.0  0.77268  0.78417  0.78232  1.0000
  C   C9        1.0  0.29383  0.13413  0.29029  1.0000
  C   C10       1.0  0.70618  0.86588  0.70972  1.0000
  C   C11       1.0  0.21665  0.38755  0.09313  1.0000
  C   C12       1.0  0.78335  0.61245  0.90687  1.0000
  C   C13       1.0  0.76214  0.86935  0.31419  1.0000
  C   C14       1.0  0.23787  0.13064  0.68582  1.0000
  C   C15       1.0  0.84051  0.79422  0.24970  1.0000
  C   C16       1.0  0.15950  0.20578  0.75031  1.0000
  C   C17       1.0  0.80197  0.70367  0.22277  1.0000
  C   C18       1.0  0.19803  0.29633  0.77723  1.0000
  C   C19       1.0  0.68782  0.68929  0.26576  1.0000
  C   C20       1.0  0.31219  0.31069  0.73425  1.0000
  C   C21       1.0  0.61391  0.76861  0.32898  1.0000
  C   C22       1.0  0.38609  0.23138  0.67102  1.0000
  C   C23       1.0  0.87757  0.62647  0.14827  1.0000
  C   C24       1.0  0.12242  0.37353  0.85174  1.0000
  C   C25       1.0  0.31001  0.99390  0.03200  1.0000
  C   C26       1.0  0.68998  0.00610  0.96799  1.0000
  C   C27       1.0  0.23257  0.93276  0.89859  1.0000
  C   C28       1.0  0.76742  0.06724  0.10140  1.0000
  C   C29       1.0  0.08208  0.09654  0.98446  1.0000
  C   C30       1.0  0.91792  0.90348  0.01552  1.0000
  C   C31       1.0  0.52587  0.35746  0.90708  1.0000
  C   C32       1.0  0.47412  0.64255  0.09292  1.0000
  C   C33       1.0  0.59771  0.40943  0.74576  1.0000
  C   C34       1.0  0.40228  0.59057  0.25424  1.0000
  C   C35       1.0  0.75694  0.32738  0.86649  1.0000
  C   C36       1.0  0.24305  0.67263  0.13350  1.0000
  I   I1        1.0  0.65585  0.09359  0.49516  1.0000
  I   I2        1.0  0.34415  0.90642  0.50485  1.0000
  N   N1        1.0  0.41236  0.12786  0.31746  1.0000
  N   N2        1.0  0.58766  0.87214  0.68253  1.0000
  N   N3        1.0  0.64812  0.85950  0.35186  1.0000
  N   N4        1.0  0.35190  0.14048  0.64815  1.0000
  N   N5        1.0  0.20270  0.01167  0.97211  1.0000
  N   N6        1.0  0.79729  0.98833  0.02788  1.0000
  N   N7        1.0  0.63263  0.36083  0.84059  1.0000
  N   N8        1.0  0.36736  0.63918  0.15941  1.0000
  N   N9        1.0  0.76689  0.32654  0.20790  1.0000
  N   N10       1.0  0.23311  0.67345  0.79211  1.0000
  O   O1        1.0  0.27072  0.46113  0.05517  1.0000
  O   O2        1.0  0.72926  0.53888  0.94484  1.0000
  O   O3        1.0  0.10336  0.39374  0.06938  1.0000
  O   O4        1.0  0.89665  0.60625  0.93063  1.0000
  O   O5        1.0  0.97769  0.64798  0.11015  1.0000
  O   O6        1.0  0.02229  0.35203  0.88984  1.0000
  O   O7        1.0  0.83418  0.54789  0.12753  1.0000
  O   O8        1.0  0.16583  0.45210  0.87248  1.0000
  O   O9        1.0  0.04925  0.16425  0.04835  1.0000
  O   O10       1.0  0.95075  0.83575  0.95164  1.0000
  O   O11       1.0  0.79556  0.28240  0.94641  1.0000
  O   O12       1.0  0.20444  0.71761  0.05359  1.0000
  O   O13       1.0  0.89353  0.29602  0.20201  1.0000
  O   O14       1.0  0.10648  0.70395  0.79799  1.0000
  O   O15       1.0  0.70684  0.36215  0.13031  1.0000
  O   O16       1.0  0.29316  0.63786  0.86969  1.0000
  O   O17       1.0  0.70471  0.32297  0.28182  1.0000
  O   O18       1.0  0.29530  0.67700  0.71818  1.0000
