data_image0
_chemical_formula_structural       Tb2Cu2H44C36I2N10O18
_chemical_formula_sum              "Tb2 Cu2 H44 C36 I2 N10 O18"
_cell_length_a       10.8791
_cell_length_b       12.769
_cell_length_c       14.507
_cell_angle_alpha    92.1739
_cell_angle_beta     95.6241
_cell_angle_gamma    120.803

_space_group_name_H-M_alt    "P 1"
_space_group_IT_number       1

loop_
  _space_group_symop_operation_xyz
  'x, y, z'

loop_
  _atom_site_type_symbol
  _atom_site_label
  _atom_site_symmetry_multiplicity
  _atom_site_fract_x
  _atom_site_fract_y
  _atom_site_fract_z
  _atom_site_occupancy
  Tb  Tb1       1.0  0.72199  0.12443  0.03617  1.0000
  Tb  Tb2       1.0  0.27800  0.87556  0.96382  1.0000
  Cu  Cu1       1.0  0.48833  0.50307  0.41224  1.0000
  Cu  Cu2       1.0  0.51167  0.49693  0.58776  1.0000
  H   H1        1.0  0.26552  0.70514  0.22413  1.0000
  H   H2        1.0  0.73449  0.29488  0.77587  1.0000
  H   H3        1.0  0.19952  0.14750  0.15974  1.0000
  H   H4        1.0  0.80049  0.85251  0.84025  1.0000
  H   H5        1.0  0.72778  0.88616  0.24622  1.0000
  H   H6        1.0  0.27223  0.11384  0.75377  1.0000
  H   H7        1.0  0.65901  0.29045  0.20145  1.0000
  H   H8        1.0  0.34098  0.70952  0.79856  1.0000
  H   H9        1.0  0.23874  0.29463  0.29445  1.0000
  H   H10       1.0  0.76125  0.70538  0.70554  1.0000
  H   H11       1.0  0.27265  0.56677  0.34154  1.0000
  H   H12       1.0  0.72735  0.43324  0.65846  1.0000
  H   H13       1.0  0.68056  0.43673  0.33164  1.0000
  H   H14       1.0  0.31943  0.56324  0.66838  1.0000
  H   H15       1.0  0.82447  0.14760  0.81223  1.0000
  H   H16       1.0  0.17554  0.85241  0.18777  1.0000
  H   H17       1.0  0.89568  0.40166  0.92731  1.0000
  H   H18       1.0  0.10433  0.59834  0.07269  1.0000
  H   H19       1.0  0.71644  0.73729  0.36094  1.0000
  H   H20       1.0  0.28357  0.26272  0.63906  1.0000
  H   H21       1.0  0.88776  0.06785  0.70814  1.0000
  H   H22       1.0  0.11224  0.93216  0.29185  1.0000
  H   H23       1.0  0.99250  0.00228  0.74611  1.0000
  H   H24       1.0  0.00750  0.99773  0.25387  1.0000
  H   H25       1.0  0.07864  0.15320  0.70919  1.0000
  H   H26       1.0  0.92136  0.84681  0.29080  1.0000
  H   H27       1.0  0.90992  0.55087  0.85318  1.0000
  H   H28       1.0  0.09010  0.44913  0.14683  1.0000
  H   H29       1.0  0.89311  0.66205  0.91942  1.0000
  H   H30       1.0  0.10690  0.33795  0.08059  1.0000
  H   H31       1.0  0.74300  0.54828  0.83854  1.0000
  H   H32       1.0  0.25701  0.45173  0.16147  1.0000
  H   H33       1.0  0.10771  0.17124  0.97784  1.0000
  H   H34       1.0  0.89228  0.82874  0.02215  1.0000
  H   H35       1.0  0.22949  0.22196  0.89213  1.0000
  H   H36       1.0  0.77050  0.77803  0.10787  1.0000
  H   H37       1.0  0.12121  0.06270  0.90427  1.0000
  H   H38       1.0  0.87878  0.93729  0.09572  1.0000
  H   H39       1.0  0.64956  0.42303  0.06519  1.0000
  H   H40       1.0  0.35045  0.57696  0.93482  1.0000
  H   H41       1.0  0.59730  0.48811  0.97272  1.0000
  H   H42       1.0  0.40270  0.51189  0.02729  1.0000
  H   H43       1.0  0.74544  0.58574  0.06037  1.0000
  H   H44       1.0  0.25456  0.41425  0.93964  1.0000
  C   C1        1.0  0.49662  0.80345  0.22359  1.0000
  C   C2        1.0  0.50338  0.19656  0.77641  1.0000
  C   C3        1.0  0.36750  0.71449  0.25264  1.0000
  C   C4        1.0  0.63251  0.28552  0.74736  1.0000
  C   C5        1.0  0.40858  0.11676  0.09310  1.0000
  C   C6        1.0  0.59142  0.88323  0.90691  1.0000
  C   C7        1.0  0.49780  0.88148  0.14850  1.0000
  C   C8        1.0  0.50220  0.11852  0.85150  1.0000
  C   C9        1.0  0.42706  0.20791  0.16928  1.0000
  C   C10       1.0  0.57294  0.79208  0.83073  1.0000
  C   C11       1.0  0.30796  0.21018  0.19588  1.0000
  C   C12       1.0  0.69204  0.78982  0.80412  1.0000
  C   C13       1.0  0.62526  0.81467  0.26462  1.0000
  C   C14       1.0  0.37474  0.18533  0.73537  1.0000
  C   C15       1.0  0.56385  0.29050  0.21857  1.0000
  C   C16       1.0  0.43615  0.70948  0.78145  1.0000
  C   C17       1.0  0.32943  0.29311  0.26964  1.0000
  C   C18       1.0  0.67058  0.70689  0.73036  1.0000
  C   C19       1.0  0.37053  0.63747  0.31674  1.0000
  C   C20       1.0  0.62947  0.36254  0.68325  1.0000
  C   C21       1.0  0.57648  0.37157  0.29067  1.0000
  C   C22       1.0  0.42352  0.62841  0.70934  1.0000
  C   C23       1.0  0.91419  0.16833  0.86688  1.0000
  C   C24       1.0  0.08581  0.83168  0.13312  1.0000
  C   C25       1.0  0.82701  0.40452  0.97729  1.0000
  C   C26       1.0  0.17299  0.59547  0.02271  1.0000
  C   C27       1.0  0.61950  0.73355  0.32752  1.0000
  C   C28       1.0  0.38051  0.26645  0.67247  1.0000
  C   C29       1.0  0.99099  0.08763  0.74579  1.0000
  C   C30       1.0  0.00902  0.91237  0.25420  1.0000
  C   C31       1.0  0.83545  0.56618  0.88900  1.0000
  C   C32       1.0  0.16455  0.43382  0.11101  1.0000
  C   C33       1.0  0.12361  0.14969  0.90790  1.0000
  C   C34       1.0  0.87638  0.85031  0.09209  1.0000
  C   C35       1.0  0.68876  0.49596  0.01886  1.0000
  C   C36       1.0  0.31125  0.50404  0.98114  1.0000
  I   I1        1.0  0.24895  0.40298  0.49243  1.0000
  I   I2        1.0  0.75105  0.59703  0.50758  1.0000
  N   N1        1.0  0.49403  0.64367  0.35194  1.0000
  N   N2        1.0  0.50597  0.35633  0.64806  1.0000
  N   N3        1.0  0.46173  0.37400  0.31639  1.0000
  N   N4        1.0  0.53826  0.62598  0.68362  1.0000
  N   N5        1.0  0.00735  0.13861  0.84097  1.0000
  N   N6        1.0  0.99265  0.86139  0.15903  1.0000
  N   N7        1.0  0.91072  0.17390  0.20676  1.0000
  N   N8        1.0  0.08927  0.82609  0.79323  1.0000
  N   N9        1.0  0.78570  0.48518  0.96235  1.0000
  N   N10       1.0  0.21431  0.51483  0.03765  1.0000
  O   O1        1.0  0.61985  0.96037  0.12725  1.0000
  O   O2        1.0  0.38016  0.03964  0.87275  1.0000
  O   O3        1.0  0.37530  0.85994  0.11034  1.0000
  O   O4        1.0  0.62470  0.14006  0.88966  1.0000
  O   O5        1.0  0.52088  0.11987  0.07118  1.0000
  O   O6        1.0  0.47912  0.88014  0.92883  1.0000
  O   O7        1.0  0.28163  0.03765  0.05444  1.0000
  O   O8        1.0  0.71837  0.96235  0.94556  1.0000
  O   O9        1.0  0.79350  0.33674  0.04218  1.0000
  O   O10       1.0  0.20650  0.66326  0.95782  1.0000
  O   O11       1.0  0.92296  0.21566  0.94685  1.0000
  O   O12       1.0  0.07705  0.78435  0.05314  1.0000
  O   O13       1.0  0.82205  0.21215  0.19904  1.0000
  O   O14       1.0  0.17795  0.78783  0.80094  1.0000
  O   O15       1.0  0.92928  0.13303  0.12914  1.0000
  O   O16       1.0  0.07073  0.86699  0.87088  1.0000
  O   O17       1.0  0.97460  0.17531  0.28214  1.0000
  O   O18       1.0  0.02536  0.82469  0.71785  1.0000
