data_image0
_chemical_formula_structural       Dy2Cu2H44C36I2N10O18
_chemical_formula_sum              "Dy2 Cu2 H44 C36 I2 N10 O18"
_cell_length_a       10.8755
_cell_length_b       11.7681
_cell_length_c       14.51
_cell_angle_alpha    82.4075
_cell_angle_beta     84.1443
_cell_angle_gamma    68.3252

_space_group_name_H-M_alt    "P 1"
_space_group_IT_number       1

loop_
  _space_group_symop_operation_xyz
  'x, y, z'

loop_
  _atom_site_type_symbol
  _atom_site_label
  _atom_site_symmetry_multiplicity
  _atom_site_fract_x
  _atom_site_fract_y
  _atom_site_fract_z
  _atom_site_occupancy
  Dy  Dy1       1.0  0.90178  0.87510  0.03671  1.0000
  Dy  Dy2       1.0  0.09822  0.12490  0.96330  1.0000
  Cu  Cu1       1.0  0.51470  0.49727  0.41229  1.0000
  Cu  Cu2       1.0  0.48528  0.50273  0.58770  1.0000
  H   H1        1.0  0.55470  0.70616  0.29370  1.0000
  H   H2        1.0  0.44529  0.29383  0.70632  1.0000
  H   H3        1.0  0.44511  0.85377  0.15962  1.0000
  H   H4        1.0  0.55490  0.14622  0.84038  1.0000
  H   H5        1.0  0.12956  0.70909  0.20353  1.0000
  H   H6        1.0  0.87043  0.29091  0.79646  1.0000
  H   H7        1.0  0.25557  0.56287  0.33330  1.0000
  H   H8        1.0  0.74442  0.43712  0.66668  1.0000
  H   H9        1.0  0.79306  0.43441  0.33945  1.0000
  H   H10       1.0  0.20693  0.56561  0.66054  1.0000
  H   H11       1.0  0.93848  0.29529  0.22156  1.0000
  H   H12       1.0  0.06150  0.70473  0.77844  1.0000
  H   H13       1.0  0.65792  0.11294  0.24607  1.0000
  H   H14       1.0  0.34209  0.88705  0.75394  1.0000
  H   H15       1.0  0.52094  0.26194  0.36158  1.0000
  H   H16       1.0  0.47906  0.73805  0.63842  1.0000
  H   H17       1.0  0.26866  0.57476  0.07050  1.0000
  H   H18       1.0  0.73135  0.42524  0.92949  1.0000
  H   H19       1.0  0.39112  0.50401  0.98188  1.0000
  H   H20       1.0  0.60888  0.49600  0.01811  1.0000
  H   H21       1.0  0.33060  0.41125  0.06795  1.0000
  H   H22       1.0  0.66941  0.58875  0.93205  1.0000
  H   H23       1.0  0.14494  0.44995  0.85285  1.0000
  H   H24       1.0  0.85507  0.55005  0.14714  1.0000
  H   H25       1.0  0.26953  0.33707  0.92085  1.0000
  H   H26       1.0  0.73049  0.66293  0.07914  1.0000
  H   H27       1.0  0.30996  0.45098  0.84233  1.0000
  H   H28       1.0  0.69005  0.54903  0.15766  1.0000
  H   H29       1.0  0.00687  0.60064  0.92662  1.0000
  H   H30       1.0  0.99314  0.39936  0.07339  1.0000
  H   H31       1.0  0.56294  0.82989  0.97868  1.0000
  H   H32       1.0  0.43705  0.17011  0.02133  1.0000
  H   H33       1.0  0.49228  0.77903  0.89296  1.0000
  H   H34       1.0  0.50772  0.22097  0.10704  1.0000
  H   H35       1.0  0.44170  0.93887  0.90475  1.0000
  H   H36       1.0  0.55829  0.06113  0.09526  1.0000
  H   H37       1.0  0.68247  0.92944  0.70817  1.0000
  H   H38       1.0  0.31754  0.07056  0.29184  1.0000
  H   H39       1.0  0.51162  0.99661  0.74542  1.0000
  H   H40       1.0  0.48838  0.00339  0.25458  1.0000
  H   H41       1.0  0.57666  0.84398  0.71063  1.0000
  H   H42       1.0  0.42335  0.15601  0.28938  1.0000
  H   H43       1.0  0.82399  0.85241  0.81273  1.0000
  H   H44       1.0  0.17600  0.14762  0.18729  1.0000
  C   C1        1.0  0.46217  0.70762  0.26962  1.0000
  C   C2        1.0  0.53782  0.29237  0.73039  1.0000
  C   C3        1.0  0.39993  0.79061  0.19614  1.0000
  C   C4        1.0  0.60007  0.20937  0.80386  1.0000
  C   C5        1.0  0.27862  0.79226  0.17015  1.0000
  C   C6        1.0  0.72138  0.20774  0.82985  1.0000
  C   C7        1.0  0.22490  0.70935  0.22001  1.0000
  C   C8        1.0  0.77510  0.29065  0.77998  1.0000
  C   C9        1.0  0.29395  0.62842  0.29192  1.0000
  C   C10       1.0  0.70604  0.37157  0.70808  1.0000
  C   C11       1.0  0.20570  0.88276  0.09367  1.0000
  C   C12       1.0  0.79430  0.11724  0.90633  1.0000
  C   C13       1.0  0.76626  0.36298  0.31523  1.0000
  C   C14       1.0  0.23373  0.63703  0.68477  1.0000
  C   C15       1.0  0.84614  0.28580  0.25082  1.0000
  C   C16       1.0  0.15386  0.71422  0.74917  1.0000
  C   C17       1.0  0.80608  0.19637  0.22232  1.0000
  C   C18       1.0  0.19393  0.80363  0.77768  1.0000
  C   C19       1.0  0.68895  0.18470  0.26415  1.0000
  C   C20       1.0  0.31105  0.81529  0.73586  1.0000
  C   C21       1.0  0.61388  0.26589  0.32747  1.0000
  C   C22       1.0  0.38612  0.73410  0.67254  1.0000
  C   C23       1.0  0.88295  0.11834  0.14693  1.0000
  C   C24       1.0  0.11705  0.88167  0.85307  1.0000
  C   C25       1.0  0.30335  0.50037  0.02524  1.0000
  C   C26       1.0  0.69666  0.49963  0.97475  1.0000
  C   C27       1.0  0.23302  0.43341  0.89087  1.0000
  C   C28       1.0  0.76699  0.56659  0.10912  1.0000
  C   C29       1.0  0.07665  0.59574  0.97841  1.0000
  C   C30       1.0  0.92335  0.40426  0.02159  1.0000
  C   C31       1.0  0.52602  0.85134  0.90869  1.0000
  C   C32       1.0  0.47397  0.14866  0.09131  1.0000
  C   C33       1.0  0.59839  0.91076  0.74612  1.0000
  C   C34       1.0  0.40161  0.08923  0.25389  1.0000
  C   C35       1.0  0.75474  0.83200  0.86761  1.0000
  C   C36       1.0  0.24526  0.16801  0.13240  1.0000
  I   I1        1.0  0.65455  0.59685  0.49220  1.0000
  I   I2        1.0  0.34543  0.40315  0.50779  1.0000
  N   N1        1.0  0.41129  0.62632  0.31684  1.0000
  N   N2        1.0  0.58870  0.37367  0.68316  1.0000
  N   N3        1.0  0.64933  0.35624  0.35139  1.0000
  N   N4        1.0  0.35067  0.64376  0.64861  1.0000
  N   N5        1.0  0.19878  0.51383  0.96505  1.0000
  N   N6        1.0  0.80123  0.48616  0.03495  1.0000
  N   N7        1.0  0.63195  0.86160  0.84171  1.0000
  N   N8        1.0  0.36805  0.13841  0.15830  1.0000
  N   N9        1.0  0.76169  0.82787  0.20738  1.0000
  N   N10       1.0  0.23832  0.17212  0.79263  1.0000
  O   O1        1.0  0.25292  0.96243  0.05463  1.0000
  O   O2        1.0  0.74708  0.03756  0.94537  1.0000
  O   O3        1.0  0.09726  0.87819  0.07193  1.0000
  O   O4        1.0  0.90273  0.12182  0.92807  1.0000
  O   O5        1.0  0.98425  0.13958  0.10871  1.0000
  O   O6        1.0  0.01575  0.86044  0.89128  1.0000
  O   O7        1.0  0.83939  0.03972  0.12560  1.0000
  O   O8        1.0  0.16061  0.96028  0.87441  1.0000
  O   O9        1.0  0.04041  0.66280  0.04398  1.0000
  O   O10       1.0  0.95961  0.33720  0.95601  1.0000
  O   O11       1.0  0.79293  0.78508  0.94771  1.0000
  O   O12       1.0  0.20707  0.21493  0.05230  1.0000
  O   O13       1.0  0.88866  0.79033  0.19993  1.0000
  O   O14       1.0  0.11135  0.20966  0.80008  1.0000
  O   O15       1.0  0.70303  0.86774  0.12947  1.0000
  O   O16       1.0  0.29698  0.13225  0.87054  1.0000
  O   O17       1.0  0.69842  0.82679  0.28268  1.0000
  O   O18       1.0  0.30159  0.17320  0.71733  1.0000
