data_image0
_chemical_formula_structural       Er2Cu2H44C36I2N10O18
_chemical_formula_sum              "Er2 Cu2 H44 C36 I2 N10 O18"
_cell_length_a       10.9091
_cell_length_b       12.6799
_cell_length_c       14.5437
_cell_angle_alpha    91.9642
_cell_angle_beta     96.4493
_cell_angle_gamma    120.162

_space_group_name_H-M_alt    "P 1"
_space_group_IT_number       1

loop_
  _space_group_symop_operation_xyz
  'x, y, z'

loop_
  _atom_site_type_symbol
  _atom_site_label
  _atom_site_symmetry_multiplicity
  _atom_site_fract_x
  _atom_site_fract_y
  _atom_site_fract_z
  _atom_site_occupancy
  Er  Er1       1.0  0.22110  0.12405  0.53723  1.0000
  Er  Er2       1.0  0.77893  0.87597  0.46278  1.0000
  Cu  Cu1       1.0  0.01187  0.49689  0.08782  1.0000
  Cu  Cu2       1.0  0.98813  0.50311  0.91219  1.0000
  H   H1        1.0  0.26011  0.70853  0.20564  1.0000
  H   H2        1.0  0.73989  0.29148  0.79434  1.0000
  H   H3        1.0  0.29676  0.85495  0.34039  1.0000
  H   H4        1.0  0.70326  0.14507  0.65959  1.0000
  H   H5        1.0  0.83849  0.70462  0.29931  1.0000
  H   H6        1.0  0.16154  0.29542  0.70070  1.0000
  H   H7        1.0  0.81969  0.55989  0.16866  1.0000
  H   H8        1.0  0.18031  0.44012  0.83136  1.0000
  H   H9        1.0  0.22249  0.42744  0.16023  1.0000
  H   H10       1.0  0.77751  0.57256  0.83976  1.0000
  H   H11       1.0  0.22920  0.28875  0.27862  1.0000
  H   H12       1.0  0.77082  0.71126  0.72136  1.0000
  H   H13       1.0  0.77176  0.11911  0.25861  1.0000
  H   H14       1.0  0.22826  0.88090  0.74140  1.0000
  H   H15       1.0  0.78333  0.26778  0.14265  1.0000
  H   H16       1.0  0.21668  0.73222  0.85736  1.0000
  H   H17       1.0  0.60508  0.17111  0.48355  1.0000
  H   H18       1.0  0.39491  0.82887  0.51645  1.0000
  H   H19       1.0  0.72516  0.22425  0.39869  1.0000
  H   H20       1.0  0.27482  0.77573  0.60131  1.0000
  H   H21       1.0  0.62394  0.06467  0.41083  1.0000
  H   H22       1.0  0.37603  0.93531  0.58917  1.0000
  H   H23       1.0  0.38705  0.06518  0.21242  1.0000
  H   H24       1.0  0.61290  0.93479  0.78759  1.0000
  H   H25       1.0  0.49514  0.00190  0.25170  1.0000
  H   H26       1.0  0.50482  0.99809  0.74830  1.0000
  H   H27       1.0  0.57660  0.15353  0.21606  1.0000
  H   H28       1.0  0.42335  0.84644  0.78393  1.0000
  H   H29       1.0  0.31800  0.14008  0.31559  1.0000
  H   H30       1.0  0.68199  0.85993  0.68441  1.0000
  H   H31       1.0  0.14683  0.42027  0.56041  1.0000
  H   H32       1.0  0.85314  0.57970  0.43960  1.0000
  H   H33       1.0  0.09838  0.48859  0.46747  1.0000
  H   H34       1.0  0.90157  0.51136  0.53252  1.0000
  H   H35       1.0  0.24225  0.58349  0.55840  1.0000
  H   H36       1.0  0.75770  0.41648  0.44160  1.0000
  H   H37       1.0  0.41156  0.54897  0.35492  1.0000
  H   H38       1.0  0.58837  0.45097  0.64506  1.0000
  H   H39       1.0  0.39695  0.66189  0.42103  1.0000
  H   H40       1.0  0.60300  0.33807  0.57894  1.0000
  H   H41       1.0  0.24774  0.55109  0.33814  1.0000
  H   H42       1.0  0.75219  0.44885  0.66185  1.0000
  H   H43       1.0  0.39691  0.39953  0.42983  1.0000
  H   H44       1.0  0.60307  0.60046  0.57017  1.0000
  C   C1        1.0  0.16923  0.70850  0.23047  1.0000
  C   C2        1.0  0.83077  0.29151  0.76953  1.0000
  C   C3        1.0  0.18912  0.79076  0.30441  1.0000
  C   C4        1.0  0.81090  0.20926  0.69559  1.0000
  C   C5        1.0  0.06958  0.79062  0.33118  1.0000
  C   C6        1.0  0.93045  0.20940  0.66882  1.0000
  C   C7        1.0  0.93394  0.70628  0.28201  1.0000
  C   C8        1.0  0.06608  0.29374  0.71800  1.0000
  C   C9        1.0  0.92290  0.62619  0.20968  1.0000
  C   C10       1.0  0.07710  0.37382  0.79033  1.0000
  C   C11       1.0  0.08518  0.88094  0.40729  1.0000
  C   C12       1.0  0.91486  0.11910  0.59271  1.0000
  C   C13       1.0  0.12558  0.35900  0.18560  1.0000
  C   C14       1.0  0.87443  0.64100  0.81440  1.0000
  C   C15       1.0  0.12845  0.28195  0.25032  1.0000
  C   C16       1.0  0.87158  0.71806  0.74968  1.0000
  C   C17       1.0  0.00056  0.19586  0.27990  1.0000
  C   C18       1.0  0.99947  0.80415  0.72012  1.0000
  C   C19       1.0  0.87329  0.18808  0.23941  1.0000
  C   C20       1.0  0.12672  0.81193  0.76061  1.0000
  C   C21       1.0  0.87922  0.26912  0.17583  1.0000
  C   C22       1.0  0.12079  0.73089  0.82418  1.0000
  C   C23       1.0  0.99952  0.11682  0.35465  1.0000
  C   C24       1.0  0.00051  0.88321  0.64536  1.0000
  C   C25       1.0  0.62176  0.15017  0.41404  1.0000
  C   C26       1.0  0.37822  0.84981  0.58596  1.0000
  C   C27       1.0  0.49020  0.08633  0.25125  1.0000
  C   C28       1.0  0.50976  0.91364  0.74875  1.0000
  C   C29       1.0  0.40825  0.16301  0.37088  1.0000
  C   C30       1.0  0.59174  0.83700  0.62912  1.0000
  C   C31       1.0  0.18754  0.49455  0.51552  1.0000
  C   C32       1.0  0.81242  0.50541  0.48447  1.0000
  C   C33       1.0  0.33831  0.56627  0.38966  1.0000
  C   C34       1.0  0.66164  0.43369  0.61032  1.0000
  C   C35       1.0  0.32721  0.40254  0.47802  1.0000
  C   C36       1.0  0.67278  0.59746  0.52198  1.0000
  I   I1        1.0  0.24846  0.59314  0.00975  1.0000
  I   I2        1.0  0.75154  0.40687  0.99027  1.0000
  N   N1        1.0  0.03805  0.62619  0.18367  1.0000
  N   N2        1.0  0.96194  0.37380  0.81633  1.0000
  N   N3        1.0  0.00354  0.35567  0.15030  1.0000
  N   N4        1.0  0.99647  0.64434  0.84969  1.0000
  N   N5        1.0  0.40942  0.17315  0.70604  1.0000
  N   N6        1.0  0.59064  0.82687  0.29396  1.0000
  N   N7        1.0  0.50391  0.13599  0.34623  1.0000
  N   N8        1.0  0.49607  0.86400  0.65376  1.0000
  N   N9        1.0  0.28628  0.48413  0.46173  1.0000
  N   N10       1.0  0.71369  0.51585  0.53826  1.0000
  O   O1        1.0  0.21041  0.96135  0.44676  1.0000
  O   O2        1.0  0.78962  0.03867  0.55322  1.0000
  O   O3        1.0  0.97177  0.87499  0.42787  1.0000
  O   O4        1.0  0.02829  0.12505  0.57214  1.0000
  O   O5        1.0  0.12122  0.13689  0.39318  1.0000
  O   O6        1.0  0.87880  0.86314  0.60685  1.0000
  O   O7        1.0  0.87852  0.03859  0.37494  1.0000
  O   O8        1.0  0.12150  0.96142  0.62506  1.0000
  O   O9        1.0  0.41581  0.21043  0.45036  1.0000
  O   O10       1.0  0.58420  0.78959  0.54963  1.0000
  O   O11       1.0  0.29226  0.33414  0.54223  1.0000
  O   O12       1.0  0.70776  0.66587  0.45779  1.0000
  O   O13       1.0  0.31921  0.21020  0.69823  1.0000
  O   O14       1.0  0.68087  0.78985  0.30177  1.0000
  O   O15       1.0  0.42497  0.13009  0.62856  1.0000
  O   O16       1.0  0.57506  0.86992  0.37145  1.0000
  O   O17       1.0  0.47730  0.17757  0.78109  1.0000
  O   O18       1.0  0.52274  0.82245  0.21891  1.0000
