data_image0
_chemical_formula_structural       Hg4H40C44Br8N16
_chemical_formula_sum              "Hg4 H40 C44 Br8 N16"
_cell_length_a       5.04082
_cell_length_b       15.8608
_cell_length_c       20.7923
_cell_angle_alpha    89.9996
_cell_angle_beta     89.9997
_cell_angle_gamma    94.0932

_space_group_name_H-M_alt    "P 1"
_space_group_IT_number       1

loop_
  _space_group_symop_operation_xyz
  'x, y, z'

loop_
  _atom_site_type_symbol
  _atom_site_label
  _atom_site_symmetry_multiplicity
  _atom_site_fract_x
  _atom_site_fract_y
  _atom_site_fract_z
  _atom_site_occupancy
  Hg  Hg1       1.0  0.99900  0.27037  0.15754  1.0000
  Hg  Hg2       1.0  0.00100  0.22962  0.65754  1.0000
  Hg  Hg3       1.0  0.00096  0.72961  0.84246  1.0000
  Hg  Hg4       1.0  0.99903  0.77039  0.34246  1.0000
  H   H1        1.0  0.18719  0.08832  0.20364  1.0000
  H   H2        1.0  0.81282  0.41168  0.70364  1.0000
  H   H3        1.0  0.81283  0.91168  0.79636  1.0000
  H   H4        1.0  0.18718  0.58832  0.29636  1.0000
  H   H5        1.0  0.51413  0.01972  0.27276  1.0000
  H   H6        1.0  0.48588  0.48028  0.77276  1.0000
  H   H7        1.0  0.48590  0.98029  0.72725  1.0000
  H   H8        1.0  0.51409  0.51972  0.22724  1.0000
  H   H9        1.0  0.77395  0.27029  0.34209  1.0000
  H   H10       1.0  0.22607  0.22972  0.84210  1.0000
  H   H11       1.0  0.22604  0.72973  0.65791  1.0000
  H   H12       1.0  0.77398  0.77027  0.15790  1.0000
  H   H13       1.0  0.42717  0.32607  0.27357  1.0000
  H   H14       1.0  0.57283  0.17394  0.77357  1.0000
  H   H15       1.0  0.57280  0.67395  0.72643  1.0000
  H   H16       1.0  0.42723  0.82606  0.22643  1.0000
  H   H17       1.0  0.97619  0.20188  0.41128  1.0000
  H   H18       1.0  0.02382  0.29812  0.91128  1.0000
  H   H19       1.0  0.02382  0.79813  0.58873  1.0000
  H   H20       1.0  0.97617  0.70186  0.08871  1.0000
  H   H21       1.0  0.43045  0.24446  0.43661  1.0000
  H   H22       1.0  0.56952  0.25554  0.93661  1.0000
  H   H23       1.0  0.56952  0.75555  0.56339  1.0000
  H   H24       1.0  0.43042  0.74444  0.06338  1.0000
  H   H25       1.0  0.74524  0.29055  0.52503  1.0000
  H   H26       1.0  0.25475  0.20945  0.02504  1.0000
  H   H27       1.0  0.25477  0.70947  0.47495  1.0000
  H   H28       1.0  0.74520  0.79052  0.97496  1.0000
  H   H29       1.0  0.58871  0.06655  0.62442  1.0000
  H   H30       1.0  0.41131  0.43346  0.12442  1.0000
  H   H31       1.0  0.41135  0.93347  0.37558  1.0000
  H   H32       1.0  0.58867  0.56653  0.87557  1.0000
  H   H33       1.0  0.25157  0.01277  0.54189  1.0000
  H   H34       1.0  0.74844  0.48724  0.04188  1.0000
  H   H35       1.0  0.74847  0.98725  0.45812  1.0000
  H   H36       1.0  0.25152  0.51274  0.95810  1.0000
  H   H37       1.0  0.87955  0.03745  0.34235  1.0000
  H   H38       1.0  0.12045  0.46256  0.84235  1.0000
  H   H39       1.0  0.12046  0.96257  0.65765  1.0000
  H   H40       1.0  0.87952  0.53742  0.15765  1.0000
  C   C1        1.0  0.31823  0.12574  0.23623  1.0000
  C   C2        1.0  0.68178  0.37426  0.73623  1.0000
  C   C3        1.0  0.68178  0.87427  0.76377  1.0000
  C   C4        1.0  0.31822  0.62574  0.26377  1.0000
  C   C5        1.0  0.50084  0.08794  0.27447  1.0000
  C   C6        1.0  0.49919  0.41207  0.77447  1.0000
  C   C7        1.0  0.49918  0.91207  0.72553  1.0000
  C   C8        1.0  0.50081  0.58793  0.22553  1.0000
  C   C9        1.0  0.66902  0.13866  0.31482  1.0000
  C   C10       1.0  0.33102  0.36135  0.81482  1.0000
  C   C11       1.0  0.33100  0.86135  0.68518  1.0000
  C   C12       1.0  0.66899  0.63864  0.18518  1.0000
  C   C13       1.0  0.64330  0.22631  0.31453  1.0000
  C   C14       1.0  0.35673  0.27369  0.81452  1.0000
  C   C15       1.0  0.35670  0.77370  0.68548  1.0000
  C   C16       1.0  0.64332  0.72630  0.18548  1.0000
  C   C17       1.0  0.45131  0.25827  0.27532  1.0000
  C   C18       1.0  0.54871  0.24173  0.77532  1.0000
  C   C19       1.0  0.54867  0.74174  0.72469  1.0000
  C   C20       1.0  0.45135  0.75827  0.22468  1.0000
  C   C21       1.0  0.00110  0.13499  0.40118  1.0000
  C   C22       1.0  0.99889  0.36501  0.90118  1.0000
  C   C23       1.0  0.99890  0.86502  0.59882  1.0000
  C   C24       1.0  0.00108  0.63496  0.09881  1.0000
  C   C25       1.0  0.31583  0.12350  0.48205  1.0000
  C   C26       1.0  0.68416  0.37650  0.98205  1.0000
  C   C27       1.0  0.68418  0.87651  0.51795  1.0000
  C   C28       1.0  0.31579  0.62348  0.01794  1.0000
  C   C29       1.0  0.45590  0.20345  0.47788  1.0000
  C   C30       1.0  0.54409  0.29656  0.97788  1.0000
  C   C31       1.0  0.54409  0.79657  0.52211  1.0000
  C   C32       1.0  0.45587  0.70342  0.02211  1.0000
  C   C33       1.0  0.63304  0.22906  0.52643  1.0000
  C   C34       1.0  0.36697  0.27094  0.02643  1.0000
  C   C35       1.0  0.36699  0.77095  0.47356  1.0000
  C   C36       1.0  0.63298  0.72904  0.97356  1.0000
  C   C37       1.0  0.54345  0.10412  0.58242  1.0000
  C   C38       1.0  0.45656  0.39589  0.08242  1.0000
  C   C39       1.0  0.45660  0.89590  0.41758  1.0000
  C   C40       1.0  0.54339  0.60409  0.91757  1.0000
  C   C41       1.0  0.36083  0.07403  0.53667  1.0000
  C   C42       1.0  0.63917  0.42597  0.03666  1.0000
  C   C43       1.0  0.63920  0.92598  0.46334  1.0000
  C   C44       1.0  0.36080  0.57401  0.96333  1.0000
  Br  Br1       1.0  0.79418  0.13686  0.10586  1.0000
  Br  Br2       1.0  0.20585  0.36314  0.60588  1.0000
  Br  Br3       1.0  0.20585  0.86312  0.89413  1.0000
  Br  Br4       1.0  0.79420  0.63688  0.39412  1.0000
  Br  Br5       1.0  0.96581  0.41082  0.21909  1.0000
  Br  Br6       1.0  0.03428  0.08918  0.71909  1.0000
  Br  Br7       1.0  0.03408  0.58917  0.78092  1.0000
  Br  Br8       1.0  0.96580  0.91083  0.28091  1.0000
  N   N1        1.0  0.29100  0.20947  0.23677  1.0000
  N   N2        1.0  0.70900  0.29053  0.73678  1.0000
  N   N3        1.0  0.70899  0.79053  0.76323  1.0000
  N   N4        1.0  0.29103  0.70948  0.26322  1.0000
  N   N5        1.0  0.85243  0.09991  0.35229  1.0000
  N   N6        1.0  0.14757  0.40010  0.85229  1.0000
  N   N7        1.0  0.14757  0.90011  0.64772  1.0000
  N   N8        1.0  0.85243  0.59989  0.14771  1.0000
  N   N9        1.0  0.15047  0.08858  0.43442  1.0000
  N   N10       1.0  0.84950  0.41142  0.93441  1.0000
  N   N11       1.0  0.84952  0.91143  0.56559  1.0000
  N   N12       1.0  0.15046  0.58856  0.06558  1.0000
  N   N13       1.0  0.67941  0.18003  0.57733  1.0000
  N   N14       1.0  0.32059  0.31998  0.07734  1.0000
  N   N15       1.0  0.32062  0.82000  0.42266  1.0000
  N   N16       1.0  0.67937  0.68000  0.92266  1.0000
