data_image0
_chemical_formula_structural       Hg2H36C44N16
_chemical_formula_sum              "Hg2 H36 C44 N16"
_cell_length_a       10.3083
_cell_length_b       11.3313
_cell_length_c       12.886
_cell_angle_alpha    90.0003
_cell_angle_beta     90.0006
_cell_angle_gamma    89.5655

_space_group_name_H-M_alt    "P 1"
_space_group_IT_number       1

loop_
  _space_group_symop_operation_xyz
  'x, y, z'

loop_
  _atom_site_type_symbol
  _atom_site_label
  _atom_site_symmetry_multiplicity
  _atom_site_fract_x
  _atom_site_fract_y
  _atom_site_fract_z
  _atom_site_occupancy
  Hg  Hg1       1.0  0.99999  0.00000  0.50001  1.0000
  Hg  Hg2       1.0  0.49999  1.00000  0.00000  1.0000
  H   H1        1.0  0.26669  0.11924  0.82790  1.0000
  H   H2        1.0  0.23331  0.88077  0.32790  1.0000
  H   H3        1.0  0.73333  0.88076  0.17210  1.0000
  H   H4        1.0  0.76669  0.11923  0.67211  1.0000
  H   H5        1.0  0.12997  0.07622  0.67319  1.0000
  H   H6        1.0  0.37004  0.92380  0.17319  1.0000
  H   H7        1.0  0.87004  0.92378  0.32681  1.0000
  H   H8        1.0  0.62997  0.07621  0.82682  1.0000
  H   H9        1.0  0.32481  0.73553  0.65707  1.0000
  H   H10       1.0  0.17517  0.26448  0.15706  1.0000
  H   H11       1.0  0.67518  0.26446  0.34293  1.0000
  H   H12       1.0  0.82482  0.73553  0.84294  1.0000
  H   H13       1.0  0.44893  0.79241  0.80965  1.0000
  H   H14       1.0  0.05107  0.20758  0.30963  1.0000
  H   H15       1.0  0.55106  0.20757  0.19034  1.0000
  H   H16       1.0  0.94893  0.79242  0.69037  1.0000
  H   H17       1.0  0.17466  0.69522  0.55930  1.0000
  H   H18       1.0  0.32535  0.30480  0.05929  1.0000
  H   H19       1.0  0.82534  0.30479  0.44069  1.0000
  H   H20       1.0  0.67466  0.69520  0.94070  1.0000
  H   H21       1.0  0.80310  0.48457  0.26811  1.0000
  H   H22       1.0  0.69690  0.51543  0.76811  1.0000
  H   H23       1.0  0.19690  0.51543  0.73188  1.0000
  H   H24       1.0  0.30310  0.48456  0.23189  1.0000
  H   H25       1.0  0.83193  0.68281  0.34810  1.0000
  H   H26       1.0  0.66807  0.31719  0.84809  1.0000
  H   H27       1.0  0.16807  0.31719  0.65190  1.0000
  H   H28       1.0  0.33193  0.68280  0.15191  1.0000
  H   H29       1.0  0.21897  0.57058  0.43525  1.0000
  H   H30       1.0  0.28105  0.42943  0.93525  1.0000
  H   H31       1.0  0.78103  0.42943  0.56475  1.0000
  H   H32       1.0  0.71896  0.57058  0.06476  1.0000
  H   H33       1.0  0.17141  0.37722  0.35665  1.0000
  H   H34       1.0  0.32861  0.62278  0.85665  1.0000
  H   H35       1.0  0.82860  0.62278  0.64335  1.0000
  H   H36       1.0  0.67141  0.37723  0.14337  1.0000
  C   C1        1.0  0.27532  0.03451  0.78790  1.0000
  C   C2        1.0  0.22468  0.96549  0.28790  1.0000
  C   C3        1.0  0.72469  0.96548  0.21209  1.0000
  C   C4        1.0  0.77531  0.03451  0.71210  1.0000
  C   C5        1.0  0.20007  0.01078  0.70118  1.0000
  C   C6        1.0  0.29993  0.98923  0.20117  1.0000
  C   C7        1.0  0.79993  0.98921  0.29882  1.0000
  C   C8        1.0  0.70007  0.01078  0.79883  1.0000
  C   C9        1.0  0.21264  0.90067  0.65089  1.0000
  C   C10       1.0  0.28736  0.09934  0.15088  1.0000
  C   C11       1.0  0.78735  0.09932  0.34911  1.0000
  C   C12       1.0  0.71264  0.90067  0.84912  1.0000
  C   C13       1.0  0.30545  0.82130  0.69196  1.0000
  C   C14       1.0  0.19454  0.17871  0.19196  1.0000
  C   C15       1.0  0.69453  0.17868  0.30803  1.0000
  C   C16       1.0  0.80545  0.82130  0.80805  1.0000
  C   C17       1.0  0.37608  0.85359  0.77895  1.0000
  C   C18       1.0  0.12393  0.14641  0.27894  1.0000
  C   C19       1.0  0.62392  0.14640  0.22104  1.0000
  C   C20       1.0  0.87607  0.85359  0.72106  1.0000
  C   C21       1.0  0.12144  0.76903  0.52370  1.0000
  C   C22       1.0  0.37856  0.23097  0.02370  1.0000
  C   C23       1.0  0.87856  0.23097  0.47630  1.0000
  C   C24       1.0  0.62143  0.76902  0.97631  1.0000
  C   C25       1.0  0.89430  0.50623  0.30668  1.0000
  C   C26       1.0  0.60571  0.49377  0.80668  1.0000
  C   C27       1.0  0.10570  0.49377  0.69331  1.0000
  C   C28       1.0  0.39431  0.50623  0.19333  1.0000
  C   C29       1.0  0.90996  0.61723  0.35077  1.0000
  C   C30       1.0  0.59005  0.38277  0.85076  1.0000
  C   C31       1.0  0.09004  0.38277  0.64922  1.0000
  C   C32       1.0  0.40995  0.61722  0.14924  1.0000
  C   C33       1.0  0.02709  0.64440  0.40166  1.0000
  C   C34       1.0  0.47291  0.35559  0.90166  1.0000
  C   C35       1.0  0.97290  0.35561  0.59834  1.0000
  C   C36       1.0  0.52709  0.64440  0.09834  1.0000
  C   C37       1.0  0.12384  0.55555  0.40091  1.0000
  C   C38       1.0  0.37617  0.44445  0.90091  1.0000
  C   C39       1.0  0.87615  0.44446  0.59909  1.0000
  C   C40       1.0  0.62385  0.55555  0.09910  1.0000
  C   C41       1.0  0.09757  0.44713  0.35534  1.0000
  C   C42       1.0  0.40244  0.55288  0.85533  1.0000
  C   C43       1.0  0.90243  0.55287  0.64467  1.0000
  C   C44       1.0  0.59758  0.44713  0.14467  1.0000
  N   N1        1.0  0.36191  0.95771  0.82780  1.0000
  N   N2        1.0  0.13809  0.04229  0.32779  1.0000
  N   N3        1.0  0.63809  0.04228  0.17219  1.0000
  N   N4        1.0  0.86191  0.95771  0.67221  1.0000
  N   N5        1.0  0.13577  0.87690  0.56546  1.0000
  N   N6        1.0  0.36423  0.12311  0.06545  1.0000
  N   N7        1.0  0.86423  0.12310  0.43454  1.0000
  N   N8        1.0  0.63576  0.87689  0.93455  1.0000
  N   N9        1.0  0.04009  0.75462  0.44703  1.0000
  N   N10       1.0  0.45992  0.24539  0.94703  1.0000
  N   N11       1.0  0.95990  0.24538  0.55296  1.0000
  N   N12       1.0  0.54008  0.75462  0.05297  1.0000
  N   N13       1.0  0.98515  0.42015  0.30839  1.0000
  N   N14       1.0  0.51486  0.57985  0.80840  1.0000
  N   N15       1.0  0.01485  0.57985  0.69161  1.0000
  N   N16       1.0  0.48516  0.42015  0.19162  1.0000
