data_image0
_chemical_formula_structural       Hg4H40C44I8N16
_chemical_formula_sum              "Hg4 H40 C44 I8 N16"
_cell_length_a       5.37423
_cell_length_b       16.1091
_cell_length_c       19.8363
_cell_angle_alpha    89.9995
_cell_angle_beta     90.0009
_cell_angle_gamma    98.6738

_space_group_name_H-M_alt    "P 1"
_space_group_IT_number       1

loop_
  _space_group_symop_operation_xyz
  'x, y, z'

loop_
  _atom_site_type_symbol
  _atom_site_label
  _atom_site_symmetry_multiplicity
  _atom_site_fract_x
  _atom_site_fract_y
  _atom_site_fract_z
  _atom_site_occupancy
  Hg  Hg1       1.0  0.97421  0.21892  0.70649  1.0000
  Hg  Hg2       1.0  0.02577  0.28108  0.20648  1.0000
  Hg  Hg3       1.0  0.02579  0.78109  0.29352  1.0000
  Hg  Hg4       1.0  0.97422  0.71891  0.79352  1.0000
  H   H1        1.0  0.16835  0.47120  0.53439  1.0000
  H   H2        1.0  0.83165  0.02880  0.03439  1.0000
  H   H3        1.0  0.83165  0.52881  0.46561  1.0000
  H   H4        1.0  0.16837  0.97120  0.96561  1.0000
  H   H5        1.0  0.50401  0.17561  0.59474  1.0000
  H   H6        1.0  0.49598  0.32439  0.09473  1.0000
  H   H7        1.0  0.49602  0.82440  0.40527  1.0000
  H   H8        1.0  0.50400  0.67561  0.90527  1.0000
  H   H9        1.0  0.17984  0.23766  0.53263  1.0000
  H   H10       1.0  0.82015  0.26233  0.03263  1.0000
  H   H11       1.0  0.82020  0.76234  0.46737  1.0000
  H   H12       1.0  0.17983  0.73767  0.96737  1.0000
  H   H13       1.0  0.56252  0.48265  0.59400  1.0000
  H   H14       1.0  0.43748  0.01734  0.09400  1.0000
  H   H15       1.0  0.43746  0.51735  0.40600  1.0000
  H   H16       1.0  0.56255  0.98266  0.90600  1.0000
  H   H17       1.0  0.85244  0.40797  0.66106  1.0000
  H   H18       1.0  0.14756  0.09202  0.16106  1.0000
  H   H19       1.0  0.14755  0.59204  0.33894  1.0000
  H   H20       1.0  0.85246  0.90797  0.83894  1.0000
  H   H21       1.0  0.03652  0.31097  0.45622  1.0000
  H   H22       1.0  0.96347  0.18902  0.95622  1.0000
  H   H23       1.0  0.96348  0.68902  0.54378  1.0000
  H   H24       1.0  0.03654  0.81098  0.04378  1.0000
  H   H25       1.0  0.49099  0.43470  0.23622  1.0000
  H   H26       1.0  0.50899  0.06529  0.73622  1.0000
  H   H27       1.0  0.50897  0.56530  0.76379  1.0000
  H   H28       1.0  0.49102  0.93471  0.26378  1.0000
  H   H29       1.0  0.81096  0.49182  0.32108  1.0000
  H   H30       1.0  0.18903  0.00817  0.82109  1.0000
  H   H31       1.0  0.18902  0.50817  0.67892  1.0000
  H   H32       1.0  0.81098  0.99183  0.17891  1.0000
  H   H33       1.0  0.57787  0.26846  0.44044  1.0000
  H   H34       1.0  0.42207  0.23154  0.94045  1.0000
  H   H35       1.0  0.42213  0.73153  0.55955  1.0000
  H   H36       1.0  0.57791  0.76846  0.05955  1.0000
  H   H37       1.0  0.26914  0.21976  0.34893  1.0000
  H   H38       1.0  0.73080  0.28024  0.84894  1.0000
  H   H39       1.0  0.73084  0.78023  0.65106  1.0000
  H   H40       1.0  0.26918  0.71976  0.15106  1.0000
  C   C1        1.0  0.51121  0.24375  0.59317  1.0000
  C   C2        1.0  0.48877  0.25624  0.09316  1.0000
  C   C3        1.0  0.48880  0.75625  0.40684  1.0000
  C   C4        1.0  0.51122  0.74375  0.90683  1.0000
  C   C5        1.0  0.33186  0.27922  0.55703  1.0000
  C   C6        1.0  0.66814  0.22078  0.05703  1.0000
  C   C7        1.0  0.66816  0.72079  0.44297  1.0000
  C   C8        1.0  0.33187  0.77922  0.94297  1.0000
  C   C9        1.0  0.34774  0.36704  0.55589  1.0000
  C   C10       1.0  0.65226  0.13295  0.05589  1.0000
  C   C11       1.0  0.65228  0.63296  0.44411  1.0000
  C   C12       1.0  0.34775  0.86705  0.94411  1.0000
  C   C13       1.0  0.54181  0.41445  0.59293  1.0000
  C   C14       1.0  0.45818  0.08555  0.09293  1.0000
  C   C15       1.0  0.45819  0.58556  0.40707  1.0000
  C   C16       1.0  0.54184  0.91445  0.90707  1.0000
  C   C17       1.0  0.70582  0.37317  0.62950  1.0000
  C   C18       1.0  0.29418  0.12683  0.12950  1.0000
  C   C19       1.0  0.29419  0.62683  0.37050  1.0000
  C   C20       1.0  0.70583  0.87317  0.87051  1.0000
  C   C21       1.0  0.02606  0.37614  0.47055  1.0000
  C   C22       1.0  0.97394  0.12386  0.97055  1.0000
  C   C23       1.0  0.97394  0.62386  0.52945  1.0000
  C   C24       1.0  0.02609  0.87614  0.02944  1.0000
  C   C25       1.0  0.51657  0.39957  0.28216  1.0000
  C   C26       1.0  0.48341  0.10043  0.78217  1.0000
  C   C27       1.0  0.48341  0.60043  0.71784  1.0000
  C   C28       1.0  0.51661  0.89957  0.21783  1.0000
  C   C29       1.0  0.69459  0.43133  0.32980  1.0000
  C   C30       1.0  0.30539  0.06867  0.82980  1.0000
  C   C31       1.0  0.30540  0.56867  0.67020  1.0000
  C   C32       1.0  0.69463  0.93133  0.17019  1.0000
  C   C33       1.0  0.71969  0.38529  0.38889  1.0000
  C   C34       1.0  0.28029  0.11471  0.88889  1.0000
  C   C35       1.0  0.28029  0.61470  0.61111  1.0000
  C   C36       1.0  0.71972  0.88529  0.11110  1.0000
  C   C37       1.0  0.56641  0.30693  0.39572  1.0000
  C   C38       1.0  0.43356  0.19307  0.89572  1.0000
  C   C39       1.0  0.43357  0.69306  0.60427  1.0000
  C   C40       1.0  0.56645  0.80693  0.10428  1.0000
  C   C41       1.0  0.39330  0.27994  0.34527  1.0000
  C   C42       1.0  0.60666  0.22006  0.84528  1.0000
  C   C43       1.0  0.60668  0.72006  0.65473  1.0000
  C   C44       1.0  0.39333  0.77995  0.15472  1.0000
  I   I1        1.0  0.95366  0.07284  0.63830  1.0000
  I   I2        1.0  0.04634  0.42715  0.13829  1.0000
  I   I3        1.0  0.04636  0.92716  0.36170  1.0000
  I   I4        1.0  0.95365  0.57284  0.86171  1.0000
  I   I5        1.0  0.20324  0.35673  0.77130  1.0000
  I   I6        1.0  0.79673  0.14328  0.27129  1.0000
  I   I7        1.0  0.79677  0.64328  0.22871  1.0000
  I   I8        1.0  0.20327  0.85672  0.72870  1.0000
  N   N1        1.0  0.69505  0.28938  0.62901  1.0000
  N   N2        1.0  0.30493  0.21062  0.12901  1.0000
  N   N3        1.0  0.30496  0.71062  0.37099  1.0000
  N   N4        1.0  0.69506  0.78938  0.87099  1.0000
  N   N5        1.0  0.17976  0.40897  0.52090  1.0000
  N   N6        1.0  0.82022  0.09103  0.02090  1.0000
  N   N7        1.0  0.82023  0.59103  0.47910  1.0000
  N   N8        1.0  0.17979  0.90897  0.97910  1.0000
  N   N9        1.0  0.88296  0.42149  0.43913  1.0000
  N   N10       1.0  0.11701  0.07850  0.93914  1.0000
  N   N11       1.0  0.11704  0.57850  0.56087  1.0000
  N   N12       1.0  0.88298  0.92150  0.06086  1.0000
  N   N13       1.0  0.36529  0.32584  0.29010  1.0000
  N   N14       1.0  0.63466  0.17416  0.79011  1.0000
  N   N15       1.0  0.63466  0.67416  0.70990  1.0000
  N   N16       1.0  0.36533  0.82585  0.20989  1.0000
