data_image0
_chemical_formula_structural       Zn2H28C28N8Cl4
_chemical_formula_sum              "Zn2 H28 C28 N8 Cl4"
_cell_length_a       7.65379
_cell_length_b       8.89975
_cell_length_c       11.0061
_cell_angle_alpha    89.9998
_cell_angle_beta     90.0003
_cell_angle_gamma    97.236

_space_group_name_H-M_alt    "P 1"
_space_group_IT_number       1

loop_
  _space_group_symop_operation_xyz
  'x, y, z'

loop_
  _atom_site_type_symbol
  _atom_site_label
  _atom_site_symmetry_multiplicity
  _atom_site_fract_x
  _atom_site_fract_y
  _atom_site_fract_z
  _atom_site_occupancy
  Zn  Zn1       1.0  0.19485  0.80258  0.50078  1.0000
  Zn  Zn2       1.0  0.80515  0.19742  0.00077  1.0000
  H   H1        1.0  0.84459  0.85997  0.02350  1.0000
  H   H2        1.0  0.15541  0.14003  0.52350  1.0000
  H   H3        1.0  0.65227  0.62768  0.89728  1.0000
  H   H4        1.0  0.34773  0.37232  0.39728  1.0000
  H   H5        1.0  0.44328  0.77973  0.74378  1.0000
  H   H6        1.0  0.55672  0.22026  0.24378  1.0000
  H   H7        1.0  0.48921  0.18377  0.83342  1.0000
  H   H8        1.0  0.51079  0.81622  0.33342  1.0000
  H   H9        1.0  0.37788  0.04672  0.73295  1.0000
  H   H10       1.0  0.62212  0.95328  0.23295  1.0000
  H   H11       1.0  0.65162  0.93561  0.58915  1.0000
  H   H12       1.0  0.34838  0.06440  0.08915  1.0000
  H   H13       1.0  0.85079  0.03763  0.42266  1.0000
  H   H14       1.0  0.14921  0.96238  0.92267  1.0000
  H   H15       1.0  0.94335  0.31124  0.40470  1.0000
  H   H16       1.0  0.05664  0.68876  0.90470  1.0000
  H   H17       1.0  0.63248  0.38949  0.72032  1.0000
  H   H18       1.0  0.36752  0.61051  0.22032  1.0000
  H   H19       1.0  0.77430  0.60201  0.61153  1.0000
  H   H20       1.0  0.22571  0.39798  0.11153  1.0000
  H   H21       1.0  0.99274  0.55972  0.59280  1.0000
  H   H22       1.0  0.00727  0.44028  0.09280  1.0000
  H   H23       1.0  0.64204  0.46714  0.35314  1.0000
  H   H24       1.0  0.35796  0.53286  0.85314  1.0000
  H   H25       1.0  0.02277  0.84142  0.23613  1.0000
  H   H26       1.0  0.97723  0.15858  0.73613  1.0000
  H   H27       1.0  0.73231  0.64967  0.15560  1.0000
  H   H28       1.0  0.26768  0.35033  0.65560  1.0000
  C   C1        1.0  0.74638  0.86466  0.95308  1.0000
  C   C2        1.0  0.25362  0.13534  0.45308  1.0000
  C   C3        1.0  0.64784  0.74853  0.88758  1.0000
  C   C4        1.0  0.35216  0.25147  0.38757  1.0000
  C   C5        1.0  0.54143  0.82199  0.81092  1.0000
  C   C6        1.0  0.45857  0.17800  0.31092  1.0000
  C   C7        1.0  0.50807  0.09489  0.76735  1.0000
  C   C8        1.0  0.49193  0.90511  0.26735  1.0000
  C   C9        1.0  0.62810  0.15671  0.66518  1.0000
  C   C10       1.0  0.37191  0.84329  0.16518  1.0000
  C   C11       1.0  0.69005  0.05751  0.58142  1.0000
  C   C12       1.0  0.30995  0.94249  0.08142  1.0000
  C   C13       1.0  0.80273  0.11420  0.48842  1.0000
  C   C14       1.0  0.19727  0.88580  0.98842  1.0000
  C   C15       1.0  0.85533  0.26950  0.47849  1.0000
  C   C16       1.0  0.14468  0.73050  0.97849  1.0000
  C   C17       1.0  0.79406  0.37005  0.56123  1.0000
  C   C18       1.0  0.20595  0.62995  0.06123  1.0000
  C   C19       1.0  0.67944  0.31263  0.65399  1.0000
  C   C20       1.0  0.32056  0.68737  0.15399  1.0000
  C   C21       1.0  0.85816  0.53726  0.55612  1.0000
  C   C22       1.0  0.14184  0.46274  0.05612  1.0000
  C   C23       1.0  0.74859  0.55787  0.34096  1.0000
  C   C24       1.0  0.25141  0.44212  0.84096  1.0000
  C   C25       1.0  0.94485  0.74887  0.28305  1.0000
  C   C26       1.0  0.05515  0.25113  0.78305  1.0000
  C   C27       1.0  0.79686  0.65261  0.24319  1.0000
  C   C28       1.0  0.20314  0.34739  0.74319  1.0000
  N   N1        1.0  0.70477  0.00058  0.91811  1.0000
  N   N2        1.0  0.29523  0.99942  0.41811  1.0000
  N   N3        1.0  0.57803  0.97245  0.83183  1.0000
  N   N4        1.0  0.42197  0.02755  0.33183  1.0000
  N   N5        1.0  0.86423  0.59648  0.43197  1.0000
  N   N6        1.0  0.13577  0.40352  0.93197  1.0000
  N   N7        1.0  0.98536  0.71394  0.39777  1.0000
  N   N8        1.0  0.01464  0.28605  0.89777  1.0000
  Cl  Cl1       1.0  0.39212  0.63674  0.51996  1.0000
  Cl  Cl2       1.0  0.60787  0.36326  0.01996  1.0000
  Cl  Cl3       1.0  0.08740  0.87343  0.67888  1.0000
  Cl  Cl4       1.0  0.91259  0.12657  0.17887  1.0000
