data_image0
_chemical_formula_structural       Sn2H28C12O6
_chemical_formula_sum              "Sn2 H28 C12 O6"
_cell_length_a       6.34539
_cell_length_b       7.82808
_cell_length_c       9.9513
_cell_angle_alpha    103.351
_cell_angle_beta     104.551
_cell_angle_gamma    97.9783

_space_group_name_H-M_alt    "P 1"
_space_group_IT_number       1

loop_
  _space_group_symop_operation_xyz
  'x, y, z'

loop_
  _atom_site_type_symbol
  _atom_site_label
  _atom_site_symmetry_multiplicity
  _atom_site_fract_x
  _atom_site_fract_y
  _atom_site_fract_z
  _atom_site_occupancy
  Sn  Sn1       1.0  0.21219  0.41775  0.23724  1.0000
  Sn  Sn2       1.0  0.79490  0.57302  0.76145  1.0000
  H   H1        1.0  0.14205  0.85851  0.88228  1.0000
  H   H2        1.0  0.16577  0.70285  0.99052  1.0000
  H   H3        1.0  0.97965  0.85357  0.00419  1.0000
  H   H4        1.0  0.68353  0.97587  0.83285  1.0000
  H   H5        1.0  0.50914  0.08603  0.92319  1.0000
  H   H6        1.0  0.66929  0.01400  0.50322  1.0000
  H   H7        1.0  0.85632  0.90485  0.42615  1.0000
  H   H8        1.0  0.91346  0.59003  0.33558  1.0000
  H   H9        1.0  0.92427  0.62884  0.16702  1.0000
  H   H10       1.0  0.14125  0.75049  0.32904  1.0000
  H   H11       1.0  0.71761  0.29878  0.52329  1.0000
  H   H12       1.0  0.98085  0.30440  0.64628  1.0000
  H   H13       1.0  0.95795  0.45855  0.53766  1.0000
  H   H14       1.0  0.35461  0.56534  0.66900  1.0000
  H   H15       1.0  0.45839  0.68649  0.85636  1.0000
  H   H16       1.0  0.40292  0.44607  0.80348  1.0000
  H   H17       1.0  0.49851  0.55131  0.10921  1.0000
  H   H18       1.0  0.33375  0.33890  0.99259  1.0000
  H   H19       1.0  0.56573  0.34842  0.14354  1.0000
  H   H20       1.0  0.04816  0.19103  0.37190  1.0000
  H   H21       1.0  0.33388  0.28929  0.46950  1.0000
  H   H22       1.0  0.26254  0.10667  0.30767  1.0000
  H   H23       1.0  0.23805  0.05134  0.55622  1.0000
  H   H24       1.0  0.18924  0.04070  0.72424  1.0000
  H   H25       1.0  0.32247  0.88015  0.63758  1.0000
  H   H26       1.0  0.47547  0.92656  0.10702  1.0000
  H   H27       1.0  0.76359  0.93454  0.19240  1.0000
  H   H28       1.0  0.62856  0.10314  0.26617  1.0000
  C   C1        1.0  0.05269  0.77120  0.93054  1.0000
  C   C2        1.0  0.82312  0.24899  0.95290  1.0000
  C   C3        1.0  0.62421  0.10233  0.85780  1.0000
  C   C4        1.0  0.65061  0.74066  0.50519  1.0000
  C   C5        1.0  0.68300  0.88785  0.43166  1.0000
  C   C6        1.0  0.02384  0.62261  0.27221  1.0000
  C   C7        1.0  0.87355  0.38512  0.59717  1.0000
  C   C8        1.0  0.46135  0.56678  0.77466  1.0000
  C   C9        1.0  0.42963  0.41302  0.10375  1.0000
  C   C10       1.0  0.21544  0.22758  0.36215  1.0000
  C   C11       1.0  0.30571  0.02159  0.65888  1.0000
  C   C12       1.0  0.60483  0.95927  0.21086  1.0000
  O   O1        1.0  0.78095  0.78034  0.63477  1.0000
  O   O2        1.0  0.51606  0.14201  0.72935  1.0000
  O   O3        1.0  0.51252  0.59401  0.44424  1.0000
  O   O4        1.0  0.88286  0.39062  0.92053  1.0000
  O   O5        1.0  0.53072  0.84772  0.29184  1.0000
  O   O6        1.0  0.92360  0.21372  0.06931  1.0000
