data_image0
_chemical_formula_structural       H16Pb4C28S4N8O12
_chemical_formula_sum              "H16 Pb4 C28 S4 N8 O12"
_cell_length_a       7.65127
_cell_length_b       9.28631
_cell_length_c       13.4203
_cell_angle_alpha    104.24
_cell_angle_beta     89.9995
_cell_angle_gamma    89.9992

_space_group_name_H-M_alt    "P 1"
_space_group_IT_number       1

loop_
  _space_group_symop_operation_xyz
  'x, y, z'

loop_
  _atom_site_type_symbol
  _atom_site_label
  _atom_site_symmetry_multiplicity
  _atom_site_fract_x
  _atom_site_fract_y
  _atom_site_fract_z
  _atom_site_occupancy
  H   H1        1.0  0.33254  0.55077  0.48692  1.0000
  H   H2        1.0  0.83253  0.44923  0.01308  1.0000
  H   H3        1.0  0.66746  0.44922  0.51307  1.0000
  H   H4        1.0  0.16747  0.55077  0.98692  1.0000
  H   H5        1.0  0.12194  0.88689  0.37175  1.0000
  H   H6        1.0  0.62197  0.11311  0.12825  1.0000
  H   H7        1.0  0.87802  0.11310  0.62825  1.0000
  H   H8        1.0  0.37804  0.88688  0.87174  1.0000
  H   H9        1.0  0.23792  0.08518  0.52088  1.0000
  H   H10       1.0  0.73793  0.91482  0.97911  1.0000
  H   H11       1.0  0.76207  0.91481  0.47911  1.0000
  H   H12       1.0  0.26208  0.08518  0.02088  1.0000
  H   H13       1.0  0.40987  0.00524  0.66060  1.0000
  H   H14       1.0  0.90989  0.99477  0.83939  1.0000
  H   H15       1.0  0.59011  0.99476  0.33939  1.0000
  H   H16       1.0  0.09012  0.00523  0.16060  1.0000
  Pb  Pb1       1.0  0.67275  0.57348  0.80835  1.0000
  Pb  Pb2       1.0  0.17275  0.42653  0.69166  1.0000
  Pb  Pb3       1.0  0.32726  0.42653  0.19165  1.0000
  Pb  Pb4       1.0  0.82726  0.57348  0.30836  1.0000
  C   C1        1.0  0.31740  0.67021  0.50025  1.0000
  C   C2        1.0  0.81740  0.32979  0.99975  1.0000
  C   C3        1.0  0.68260  0.32979  0.49976  1.0000
  C   C4        1.0  0.18260  0.67021  0.00024  1.0000
  C   C5        1.0  0.19777  0.86326  0.43458  1.0000
  C   C6        1.0  0.69778  0.13674  0.06542  1.0000
  C   C7        1.0  0.80221  0.13673  0.56543  1.0000
  C   C8        1.0  0.30222  0.86326  0.93457  1.0000
  C   C9        1.0  0.26281  0.96866  0.51792  1.0000
  C   C10       1.0  0.76283  0.03134  0.98208  1.0000
  C   C11       1.0  0.73716  0.03134  0.48208  1.0000
  C   C12       1.0  0.23718  0.96865  0.01792  1.0000
  C   C13       1.0  0.35812  0.92471  0.59395  1.0000
  C   C14       1.0  0.85813  0.07529  0.90604  1.0000
  C   C15       1.0  0.64186  0.07529  0.40605  1.0000
  C   C16       1.0  0.14187  0.92470  0.09395  1.0000
  C   C17       1.0  0.38599  0.77319  0.58416  1.0000
  C   C18       1.0  0.88599  0.22681  0.91584  1.0000
  C   C19       1.0  0.61400  0.22680  0.41584  1.0000
  C   C20       1.0  0.11401  0.77319  0.08416  1.0000
  C   C21       1.0  0.48599  0.71720  0.66327  1.0000
  C   C22       1.0  0.98601  0.28280  0.83673  1.0000
  C   C23       1.0  0.51400  0.28280  0.33673  1.0000
  C   C24       1.0  0.01401  0.71720  0.16327  1.0000
  C   C25       1.0  0.41357  0.29229  0.89299  1.0000
  C   C26       1.0  0.91358  0.70772  0.60702  1.0000
  C   C27       1.0  0.58643  0.70772  0.10701  1.0000
  C   C28       1.0  0.08643  0.29231  0.39300  1.0000
  S   S1        1.0  0.50256  0.27095  0.77892  1.0000
  S   S2        1.0  0.00256  0.72905  0.72109  1.0000
  S   S3        1.0  0.49745  0.72906  0.22109  1.0000
  S   S4        1.0  0.99744  0.27097  0.27892  1.0000
  N   N1        1.0  0.22567  0.71613  0.42749  1.0000
  N   N2        1.0  0.72567  0.28387  0.07251  1.0000
  N   N3        1.0  0.77432  0.28386  0.57251  1.0000
  N   N4        1.0  0.27434  0.71613  0.92749  1.0000
  N   N5        1.0  0.34933  0.30525  0.97494  1.0000
  N   N6        1.0  0.84933  0.69476  0.52506  1.0000
  N   N7        1.0  0.65067  0.69476  0.02505  1.0000
  N   N8        1.0  0.15066  0.30526  0.47495  1.0000
  O   O1        1.0  0.16020  0.61490  0.34854  1.0000
  O   O2        1.0  0.66021  0.38510  0.15146  1.0000
  O   O3        1.0  0.83979  0.38509  0.65146  1.0000
  O   O4        1.0  0.33980  0.61489  0.84854  1.0000
  O   O5        1.0  0.49259  0.57497  0.65062  1.0000
  O   O6        1.0  0.99261  0.42504  0.84939  1.0000
  O   O7        1.0  0.50741  0.42504  0.34939  1.0000
  O   O8        1.0  0.00742  0.57496  0.15062  1.0000
  O   O9        1.0  0.55681  0.80905  0.73719  1.0000
  O   O10       1.0  0.05681  0.19096  0.76280  1.0000
  O   O11       1.0  0.44318  0.19096  0.26281  1.0000
  O   O12       1.0  0.94320  0.80904  0.23720  1.0000
