data_image0
_chemical_formula_structural       Hg4H32C28S4Br4N20
_chemical_formula_sum              "Hg4 H32 C28 S4 Br4 N20"
_cell_length_a       7.48035
_cell_length_b       8.56344
_cell_length_c       16.8441
_cell_angle_alpha    98.9964
_cell_angle_beta     89.9997
_cell_angle_gamma    89.9997

_space_group_name_H-M_alt    "P 1"
_space_group_IT_number       1

loop_
  _space_group_symop_operation_xyz
  'x, y, z'

loop_
  _atom_site_type_symbol
  _atom_site_label
  _atom_site_symmetry_multiplicity
  _atom_site_fract_x
  _atom_site_fract_y
  _atom_site_fract_z
  _atom_site_occupancy
  Hg  Hg1       1.0  0.34715  0.75449  0.81933  1.0000
  Hg  Hg2       1.0  0.84714  0.74550  0.68067  1.0000
  Hg  Hg3       1.0  0.65287  0.24550  0.18067  1.0000
  Hg  Hg4       1.0  0.15286  0.25450  0.31933  1.0000
  H   H1        1.0  0.69136  0.26716  0.75820  1.0000
  H   H2        1.0  0.19137  0.23283  0.74180  1.0000
  H   H3        1.0  0.30864  0.73283  0.24180  1.0000
  H   H4        1.0  0.80863  0.76717  0.25820  1.0000
  H   H5        1.0  0.77043  0.11378  0.68755  1.0000
  H   H6        1.0  0.27044  0.38622  0.81244  1.0000
  H   H7        1.0  0.22957  0.88622  0.31245  1.0000
  H   H8        1.0  0.72957  0.61378  0.18756  1.0000
  H   H9        1.0  0.44077  0.30186  0.93057  1.0000
  H   H10       1.0  0.94076  0.19813  0.56944  1.0000
  H   H11       1.0  0.55924  0.69813  0.06943  1.0000
  H   H12       1.0  0.05923  0.80187  0.43057  1.0000
  H   H13       1.0  0.35897  0.29180  0.02595  1.0000
  H   H14       1.0  0.85897  0.20819  0.47405  1.0000
  H   H15       1.0  0.64104  0.70819  0.97405  1.0000
  H   H16       1.0  0.14102  0.79182  0.52595  1.0000
  H   H17       1.0  0.15819  0.61091  0.98448  1.0000
  H   H18       1.0  0.65820  0.88909  0.51552  1.0000
  H   H19       1.0  0.84182  0.38909  0.01552  1.0000
  H   H20       1.0  0.34180  0.11092  0.48448  1.0000
  H   H21       1.0  0.02184  0.70918  0.12027  1.0000
  H   H22       1.0  0.52185  0.79082  0.37974  1.0000
  H   H23       1.0  0.97817  0.29082  0.87973  1.0000
  H   H24       1.0  0.47815  0.20918  0.62027  1.0000
  H   H25       1.0  0.03996  0.99764  0.17356  1.0000
  H   H26       1.0  0.53995  0.50236  0.32644  1.0000
  H   H27       1.0  0.96004  0.00236  0.82643  1.0000
  H   H28       1.0  0.46004  0.49764  0.67356  1.0000
  H   H29       1.0  0.18823  0.17862  0.09176  1.0000
  H   H30       1.0  0.68823  0.32137  0.40825  1.0000
  H   H31       1.0  0.81176  0.82138  0.90824  1.0000
  H   H32       1.0  0.31176  0.67863  0.59176  1.0000
  C   C1        1.0  0.16168  0.73607  0.01050  1.0000
  C   C2        1.0  0.66169  0.76393  0.48950  1.0000
  C   C3        1.0  0.83833  0.26393  0.98950  1.0000
  C   C4        1.0  0.33832  0.23608  0.51050  1.0000
  C   C5        1.0  0.08733  0.79007  0.08565  1.0000
  C   C6        1.0  0.58734  0.70993  0.41435  1.0000
  C   C7        1.0  0.91267  0.20993  0.91434  1.0000
  C   C8        1.0  0.41266  0.29008  0.58565  1.0000
  C   C9        1.0  0.09749  0.95126  0.11506  1.0000
  C   C10       1.0  0.59749  0.54874  0.38494  1.0000
  C   C11       1.0  0.90251  0.04874  0.88493  1.0000
  C   C12       1.0  0.40250  0.45127  0.61507  1.0000
  C   C13       1.0  0.18053  0.05236  0.06917  1.0000
  C   C14       1.0  0.68052  0.44764  0.43084  1.0000
  C   C15       1.0  0.81947  0.94764  0.93083  1.0000
  C   C16       1.0  0.31946  0.55236  0.56917  1.0000
  C   C17       1.0  0.25088  0.98844  0.99388  1.0000
  C   C18       1.0  0.75088  0.51155  0.50613  1.0000
  C   C19       1.0  0.74912  0.01155  0.00612  1.0000
  C   C20       1.0  0.24912  0.48845  0.49388  1.0000
  C   C21       1.0  0.33985  0.08803  0.94110  1.0000
  C   C22       1.0  0.83984  0.41196  0.55890  1.0000
  C   C23       1.0  0.66015  0.91197  0.05890  1.0000
  C   C24       1.0  0.16015  0.58804  0.44110  1.0000
  C   C25       1.0  0.56669  0.05830  0.76038  1.0000
  C   C26       1.0  0.06670  0.44169  0.73962  1.0000
  C   C27       1.0  0.43331  0.94169  0.23962  1.0000
  C   C28       1.0  0.93331  0.55831  0.26038  1.0000
  S   S1        1.0  0.53844  0.86573  0.70603  1.0000
  S   S2        1.0  0.03845  0.63426  0.79397  1.0000
  S   S3        1.0  0.46156  0.13427  0.29397  1.0000
  S   S4        1.0  0.96156  0.36573  0.20603  1.0000
  Br  Br1       1.0  0.57431  0.52480  0.85161  1.0000
  Br  Br2       1.0  0.07427  0.97522  0.64840  1.0000
  Br  Br3       1.0  0.42573  0.47521  0.14839  1.0000
  Br  Br4       1.0  0.92571  0.02480  0.35161  1.0000
  N   N1        1.0  0.24122  0.83232  0.96621  1.0000
  N   N2        1.0  0.74122  0.66767  0.53379  1.0000
  N   N3        1.0  0.75879  0.16767  0.03379  1.0000
  N   N4        1.0  0.25878  0.33234  0.46621  1.0000
  N   N5        1.0  0.39362  0.02063  0.86905  1.0000
  N   N6        1.0  0.89363  0.47936  0.63096  1.0000
  N   N7        1.0  0.60637  0.97937  0.13095  1.0000
  N   N8        1.0  0.10637  0.52063  0.36905  1.0000
  N   N9        1.0  0.48960  0.11634  0.82838  1.0000
  N   N10       1.0  0.98961  0.38365  0.67162  1.0000
  N   N11       1.0  0.51040  0.88365  0.17162  1.0000
  N   N12       1.0  0.01040  0.61635  0.32838  1.0000
  N   N13       1.0  0.66843  0.15928  0.72430  1.0000
  N   N14       1.0  0.16845  0.34071  0.77570  1.0000
  N   N15       1.0  0.33156  0.84071  0.27570  1.0000
  N   N16       1.0  0.83156  0.65929  0.22430  1.0000
  N   N17       1.0  0.36312  0.24396  0.96656  1.0000
  N   N18       1.0  0.86312  0.25603  0.53344  1.0000
  N   N19       1.0  0.63688  0.75603  0.03343  1.0000
  N   N20       1.0  0.13688  0.74397  0.46656  1.0000
