data_image0
_chemical_formula_structural       Ag2H14C22S2N6O4F6
_chemical_formula_sum              "Ag2 H14 C22 S2 N6 O4 F6"
_cell_length_a       8.3747
_cell_length_b       8.98389
_cell_length_c       10.5354
_cell_angle_alpha    93.3622
_cell_angle_beta     112.41
_cell_angle_gamma    114.37

_space_group_name_H-M_alt    "P 1"
_space_group_IT_number       1

loop_
  _space_group_symop_operation_xyz
  'x, y, z'

loop_
  _atom_site_type_symbol
  _atom_site_label
  _atom_site_symmetry_multiplicity
  _atom_site_fract_x
  _atom_site_fract_y
  _atom_site_fract_z
  _atom_site_occupancy
  Ag  Ag1       1.0  0.23201  0.45449  0.93569  1.0000
  Ag  Ag2       1.0  0.76799  0.54551  0.06431  1.0000
  H   H1        1.0  0.45528  0.21774  0.01924  1.0000
  H   H2        1.0  0.54472  0.78225  0.98076  1.0000
  H   H3        1.0  0.44417  0.99321  0.15196  1.0000
  H   H4        1.0  0.55583  0.00678  0.84804  1.0000
  H   H5        1.0  0.22754  0.91686  0.27368  1.0000
  H   H6        1.0  0.77246  0.08314  0.72631  1.0000
  H   H7        1.0  0.02011  0.06151  0.25146  1.0000
  H   H8        1.0  0.97990  0.93849  0.74854  1.0000
  H   H9        1.0  0.44658  0.57776  0.58121  1.0000
  H   H10       1.0  0.55341  0.42224  0.41880  1.0000
  H   H11       1.0  0.27883  0.74609  0.61460  1.0000
  H   H12       1.0  0.72117  0.25392  0.38539  1.0000
  H   H13       1.0  0.98671  0.71797  0.39640  1.0000
  H   H14       1.0  0.01329  0.28203  0.60360  1.0000
  C   C1        1.0  0.56881  0.70808  0.23109  1.0000
  C   C2        1.0  0.43118  0.29192  0.76891  1.0000
  C   C3        1.0  0.36167  0.17960  0.07287  1.0000
  C   C4        1.0  0.63833  0.82040  0.92713  1.0000
  C   C5        1.0  0.35708  0.05686  0.14826  1.0000
  C   C6        1.0  0.64293  0.94313  0.85174  1.0000
  C   C7        1.0  0.23446  0.01310  0.21475  1.0000
  C   C8        1.0  0.76555  0.98690  0.78525  1.0000
  C   C9        1.0  0.11929  0.09254  0.20278  1.0000
  C   C10       1.0  0.88071  0.90746  0.79722  1.0000
  C   C11       1.0  0.13314  0.21398  0.12519  1.0000
  C   C12       1.0  0.86687  0.78602  0.87482  1.0000
  C   C13       1.0  0.09362  0.45588  0.26171  1.0000
  C   C14       1.0  0.90637  0.54411  0.73829  1.0000
  C   C15       1.0  0.31714  0.57002  0.49419  1.0000
  C   C16       1.0  0.68285  0.42998  0.50581  1.0000
  C   C17       1.0  0.22635  0.66376  0.51226  1.0000
  C   C18       1.0  0.77365  0.33624  0.48774  1.0000
  C   C19       1.0  0.06724  0.64968  0.39319  1.0000
  C   C20       1.0  0.93276  0.35033  0.60681  1.0000
  C   C21       1.0  0.67295  0.86078  0.36318  1.0000
  C   C22       1.0  0.32705  0.13922  0.63682  1.0000
  S   S1        1.0  0.98164  0.31320  0.09503  1.0000
  S   S2        1.0  0.01836  0.68679  0.90497  1.0000
  N   N1        1.0  0.25076  0.25691  0.06068  1.0000
  N   N2        1.0  0.74925  0.74309  0.93933  1.0000
  N   N3        1.0  0.25106  0.46549  0.36872  1.0000
  N   N4        1.0  0.74893  0.53450  0.63128  1.0000
  N   N5        1.0  0.99998  0.54654  0.26622  1.0000
  N   N6        1.0  0.00001  0.45345  0.73378  1.0000
  O   O1        1.0  0.42040  0.70384  0.13232  1.0000
  O   O2        1.0  0.57960  0.29616  0.86768  1.0000
  O   O3        1.0  0.64900  0.61637  0.23719  1.0000
  O   O4        1.0  0.35099  0.38363  0.76281  1.0000
  F   F1        1.0  0.54703  0.88447  0.40399  1.0000
  F   F2        1.0  0.45298  0.11554  0.59602  1.0000
  F   F3        1.0  0.80825  0.84945  0.47913  1.0000
  F   F4        1.0  0.19175  0.15055  0.52087  1.0000
  F   F5        1.0  0.77124  0.00790  0.33046  1.0000
  F   F6        1.0  0.22876  0.99211  0.66953  1.0000
