data_image0
_chemical_formula_structural       Zn2H14C12N14
_chemical_formula_sum              "Zn2 H14 C12 N14"
_cell_length_a       6.05523
_cell_length_b       7.70719
_cell_length_c       10.0929
_cell_angle_alpha    92.642
_cell_angle_beta     101.558
_cell_angle_gamma    94.3609

_space_group_name_H-M_alt    "P 1"
_space_group_IT_number       1

loop_
  _space_group_symop_operation_xyz
  'x, y, z'

loop_
  _atom_site_type_symbol
  _atom_site_label
  _atom_site_symmetry_multiplicity
  _atom_site_fract_x
  _atom_site_fract_y
  _atom_site_fract_z
  _atom_site_occupancy
  Zn  Zn1       1.0  0.23434  0.05442  0.44929  1.0000
  Zn  Zn2       1.0  0.76566  0.94557  0.55071  1.0000
  H   H1        1.0  0.35911  0.42696  0.05407  1.0000
  H   H2        1.0  0.64089  0.57304  0.94594  1.0000
  H   H3        1.0  0.98089  0.32845  0.90880  1.0000
  H   H4        1.0  0.01912  0.67154  0.09120  1.0000
  H   H5        1.0  0.71427  0.12477  0.00319  1.0000
  H   H6        1.0  0.28575  0.87521  0.99680  1.0000
  H   H7        1.0  0.84943  0.01772  0.23324  1.0000
  H   H8        1.0  0.15056  0.98227  0.76676  1.0000
  H   H9        1.0  0.63507  0.41507  0.26046  1.0000
  H   H10       1.0  0.36492  0.58494  0.73955  1.0000
  H   H11       1.0  0.60790  0.23523  0.36281  1.0000
  H   H12       1.0  0.39209  0.76478  0.63720  1.0000
  H   H13       1.0  0.48484  0.43051  0.39403  1.0000
  H   H14       1.0  0.51515  0.56950  0.60598  1.0000
  C   C1        1.0  0.30335  0.27730  0.22041  1.0000
  C   C2        1.0  0.69664  0.72271  0.77960  1.0000
  C   C3        1.0  0.24122  0.33618  0.09020  1.0000
  C   C4        1.0  0.75878  0.66382  0.90981  1.0000
  C   C5        1.0  0.02989  0.28200  0.01012  1.0000
  C   C6        1.0  0.97012  0.71800  0.98988  1.0000
  C   C7        1.0  0.88209  0.16876  0.06181  1.0000
  C   C8        1.0  0.11792  0.83123  0.93819  1.0000
  C   C9        1.0  0.95512  0.11080  0.18994  1.0000
  C   C10       1.0  0.04488  0.88920  0.81005  1.0000
  C   C11       1.0  0.52089  0.34228  0.31354  1.0000
  C   C12       1.0  0.47909  0.65773  0.68646  1.0000
  N   N1        1.0  0.49904  0.11325  0.60558  1.0000
  N   N2        1.0  0.50096  0.88676  0.39442  1.0000
  N   N3        1.0  0.48408  0.18213  0.71320  1.0000
  N   N4        1.0  0.51592  0.81787  0.28680  1.0000
  N   N5        1.0  0.47121  0.24733  0.81725  1.0000
  N   N6        1.0  0.52879  0.75268  0.18275  1.0000
  N   N7        1.0  0.01488  0.83888  0.44968  1.0000
  N   N8        1.0  0.98512  0.16111  0.55032  1.0000
  N   N9        1.0  0.03737  0.69531  0.40256  1.0000
  N   N10       1.0  0.96263  0.30468  0.59744  1.0000
  N   N11       1.0  0.05999  0.55839  0.35729  1.0000
  N   N12       1.0  0.94000  0.44159  0.64270  1.0000
  N   N13       1.0  0.16057  0.16236  0.26716  1.0000
  N   N14       1.0  0.83943  0.83764  0.73284  1.0000
