data_image0
_chemical_formula_structural       Cd4H24C32O20
_chemical_formula_sum              "Cd4 H24 C32 O20"
_cell_length_a       6.49589
_cell_length_b       7.24954
_cell_length_c       18.2025
_cell_angle_alpha    89.9954
_cell_angle_beta     89.9243
_cell_angle_gamma    89.7246

_space_group_name_H-M_alt    "P 1"
_space_group_IT_number       1

loop_
  _space_group_symop_operation_xyz
  'x, y, z'

loop_
  _atom_site_type_symbol
  _atom_site_label
  _atom_site_symmetry_multiplicity
  _atom_site_fract_x
  _atom_site_fract_y
  _atom_site_fract_z
  _atom_site_occupancy
  Cd  Cd1       1.0  0.83458  0.74951  0.49983  1.0000
  Cd  Cd2       1.0  0.16557  0.24859  0.00003  1.0000
  Cd  Cd3       1.0  0.16546  0.25056  0.50017  1.0000
  Cd  Cd4       1.0  0.83429  0.75132  0.99997  1.0000
  H   H1        1.0  0.39500  0.83830  0.52461  1.0000
  H   H2        1.0  0.60503  0.15921  0.02372  1.0000
  H   H3        1.0  0.60360  0.33516  0.97360  1.0000
  H   H4        1.0  0.39606  0.66232  0.47444  1.0000
  H   H5        1.0  0.60494  0.16166  0.47565  1.0000
  H   H6        1.0  0.39487  0.84085  0.97637  1.0000
  H   H7        1.0  0.39627  0.66489  0.02648  1.0000
  H   H8        1.0  0.60403  0.33762  0.52581  1.0000
  H   H9        1.0  0.52816  0.55951  0.63174  1.0000
  H   H10       1.0  0.47376  0.44032  0.13158  1.0000
  H   H11       1.0  0.46766  0.05955  0.86820  1.0000
  H   H12       1.0  0.53074  0.94037  0.36838  1.0000
  H   H13       1.0  0.47229  0.44059  0.36812  1.0000
  H   H14       1.0  0.52602  0.55966  0.86827  1.0000
  H   H15       1.0  0.53236  0.94047  0.13174  1.0000
  H   H16       1.0  0.46899  0.05973  0.63156  1.0000
  H   H17       1.0  0.34883  0.62244  0.74987  1.0000
  H   H18       1.0  0.65132  0.37757  0.24992  1.0000
  H   H19       1.0  0.64564  0.12292  0.74995  1.0000
  H   H20       1.0  0.35424  0.87713  0.24996  1.0000
  H   H21       1.0  0.05816  0.36008  0.75042  1.0000
  H   H22       1.0  0.94194  0.63987  0.24961  1.0000
  H   H23       1.0  0.93968  0.85933  0.74968  1.0000
  H   H24       1.0  0.06026  0.14058  0.25033  1.0000
  C   C1        1.0  0.91073  0.41485  0.61290  1.0000
  C   C2        1.0  0.09154  0.58484  0.11225  1.0000
  C   C3        1.0  0.08680  0.91390  0.88704  1.0000
  C   C4        1.0  0.91128  0.08578  0.38762  1.0000
  C   C5        1.0  0.08972  0.58518  0.38709  1.0000
  C   C6        1.0  0.90824  0.41517  0.88774  1.0000
  C   C7        1.0  0.91328  0.08608  0.11296  1.0000
  C   C8        1.0  0.08848  0.91420  0.61238  1.0000
  C   C9        1.0  0.80430  0.45552  0.68360  1.0000
  C   C10       1.0  0.19689  0.54440  0.18311  1.0000
  C   C11       1.0  0.19264  0.95503  0.81638  1.0000
  C   C12       1.0  0.80646  0.04486  0.31683  1.0000
  C   C13       1.0  0.19600  0.54453  0.31635  1.0000
  C   C14       1.0  0.80310  0.45562  0.81685  1.0000
  C   C15       1.0  0.80738  0.04491  0.18361  1.0000
  C   C16       1.0  0.19341  0.95514  0.68315  1.0000
  C   C17       1.0  0.60397  0.52917  0.68375  1.0000
  C   C18       1.0  0.39715  0.47068  0.18351  1.0000
  C   C19       1.0  0.39203  0.02904  0.81620  1.0000
  C   C20       1.0  0.60706  0.97084  0.31645  1.0000
  C   C21       1.0  0.39631  0.47090  0.31613  1.0000
  C   C22       1.0  0.60283  0.52934  0.81637  1.0000
  C   C23       1.0  0.60793  0.97095  0.18376  1.0000
  C   C24       1.0  0.39275  0.02921  0.68351  1.0000
  C   C25       1.0  0.50401  0.56508  0.75000  1.0000
  C   C26       1.0  0.49613  0.43496  0.24985  1.0000
  C   C27       1.0  0.49123  0.06517  0.74988  1.0000
  C   C28       1.0  0.50867  0.93486  0.25006  1.0000
  C   C29       1.0  0.90333  0.41834  0.75030  1.0000
  C   C30       1.0  0.09677  0.58166  0.24968  1.0000
  C   C31       1.0  0.09380  0.91777  0.74973  1.0000
  C   C32       1.0  0.90612  0.08218  0.25027  1.0000
  O   O1        1.0  0.81708  0.44618  0.55166  1.0000
  O   O2        1.0  0.18557  0.55167  0.05116  1.0000
  O   O3        1.0  0.18013  0.94433  0.94831  1.0000
  O   O4        1.0  0.81751  0.05351  0.44874  1.0000
  O   O5        1.0  0.18345  0.55375  0.44829  1.0000
  O   O6        1.0  0.81411  0.44837  0.94879  1.0000
  O   O7        1.0  0.81999  0.05570  0.05167  1.0000
  O   O8        1.0  0.18210  0.94646  0.55123  1.0000
  O   O9        1.0  0.09161  0.34662  0.61453  1.0000
  O   O10       1.0  0.91135  0.65455  0.11377  1.0000
  O   O11       1.0  0.90641  0.84604  0.88542  1.0000
  O   O12       1.0  0.09100  0.15507  0.38611  1.0000
  O   O13       1.0  0.90883  0.65347  0.38550  1.0000
  O   O14       1.0  0.08846  0.34543  0.88627  1.0000
  O   O15       1.0  0.09366  0.15394  0.11462  1.0000
  O   O16       1.0  0.90877  0.84490  0.61393  1.0000
  O   O17       1.0  0.48999  0.75062  0.49931  1.0000
  O   O18       1.0  0.51017  0.24265  0.99631  1.0000
  O   O19       1.0  0.51003  0.24895  0.50118  1.0000
  O   O20       1.0  0.48971  0.75755  0.00386  1.0000
