data_image0
_chemical_formula_structural       Dy2H14C16S2O18
_chemical_formula_sum              "Dy2 H14 C16 S2 O18"
_cell_length_a       6.34959
_cell_length_b       8.57813
_cell_length_c       10.5859
_cell_angle_alpha    90.6371
_cell_angle_beta     99.7131
_cell_angle_gamma    107.562

_space_group_name_H-M_alt    "P 1"
_space_group_IT_number       1

loop_
  _space_group_symop_operation_xyz
  'x, y, z'

loop_
  _atom_site_type_symbol
  _atom_site_label
  _atom_site_symmetry_multiplicity
  _atom_site_fract_x
  _atom_site_fract_y
  _atom_site_fract_z
  _atom_site_occupancy
  Dy  Dy1       1.0  0.15294  0.24609  0.61461  1.0000
  Dy  Dy2       1.0  0.84706  0.75391  0.38539  1.0000
  H   H1        1.0  0.61819  0.41339  0.14452  1.0000
  H   H2        1.0  0.38181  0.58661  0.85548  1.0000
  H   H3        1.0  0.65737  0.36594  0.91891  1.0000
  H   H4        1.0  0.34262  0.63406  0.08109  1.0000
  H   H5        1.0  0.17976  0.15245  0.05465  1.0000
  H   H6        1.0  0.82023  0.84754  0.94535  1.0000
  H   H7        1.0  0.52729  0.08412  0.67683  1.0000
  H   H8        1.0  0.47272  0.91588  0.32317  1.0000
  H   H9        1.0  0.30118  0.95352  0.60678  1.0000
  H   H10       1.0  0.69883  0.04649  0.39322  1.0000
  H   H11       1.0  0.65330  0.35509  0.70912  1.0000
  H   H12       1.0  0.34670  0.64491  0.29087  1.0000
  H   H13       1.0  0.58210  0.50627  0.64943  1.0000
  H   H14       1.0  0.41791  0.49373  0.35057  1.0000
  C   C1        1.0  0.02100  0.22438  0.19994  1.0000
  C   C2        1.0  0.97900  0.77562  0.80007  1.0000
  C   C3        1.0  0.86736  0.30378  0.22712  1.0000
  C   C4        1.0  0.13265  0.69622  0.77288  1.0000
  C   C5        1.0  0.73694  0.35207  0.12365  1.0000
  C   C6        1.0  0.26306  0.64793  0.87635  1.0000
  C   C7        1.0  0.75990  0.32609  0.99724  1.0000
  C   C8        1.0  0.24010  0.67391  0.00276  1.0000
  C   C9        1.0  0.92267  0.25603  0.97245  1.0000
  C   C10       1.0  0.07733  0.74396  0.02755  1.0000
  C   C11       1.0  0.05092  0.20410  0.07423  1.0000
  C   C12       1.0  0.94908  0.79589  0.92577  1.0000
  C   C13       1.0  0.84501  0.34722  0.36147  1.0000
  C   C14       1.0  0.15499  0.65277  0.63853  1.0000
  C   C15       1.0  0.98170  0.24615  0.84273  1.0000
  C   C16       1.0  0.01829  0.75384  0.15727  1.0000
  S   S1        1.0  0.21022  0.16447  0.32011  1.0000
  S   S2        1.0  0.78978  0.83553  0.67989  1.0000
  O   O1        1.0  0.08271  0.02576  0.38634  1.0000
  O   O2        1.0  0.91729  0.97425  0.61366  1.0000
  O   O3        1.0  0.30782  0.30717  0.41668  1.0000
  O   O4        1.0  0.69218  0.69283  0.58332  1.0000
  O   O5        1.0  0.37201  0.12535  0.25471  1.0000
  O   O6        1.0  0.62799  0.87464  0.74529  1.0000
  O   O7        1.0  0.85392  0.24499  0.44782  1.0000
  O   O8        1.0  0.14608  0.75501  0.55218  1.0000
  O   O9        1.0  0.81949  0.48455  0.38207  1.0000
  O   O10       1.0  0.18051  0.51545  0.61792  1.0000
  O   O11       1.0  0.16856  0.22253  0.83561  1.0000
  O   O12       1.0  0.83144  0.77747  0.16439  1.0000
  O   O13       1.0  0.85360  0.26410  0.73981  1.0000
  O   O14       1.0  0.14639  0.73590  0.26019  1.0000
  O   O15       1.0  0.37424  0.07181  0.63307  1.0000
  O   O16       1.0  0.62577  0.92819  0.36692  1.0000
  O   O17       1.0  0.52828  0.40448  0.69342  1.0000
  O   O18       1.0  0.47172  0.59552  0.30658  1.0000
