data_image0
_chemical_formula_structural       Ho4H36C32S4O40
_chemical_formula_sum              "Ho4 H36 C32 S4 O40"
_cell_length_a       6.78375
_cell_length_b       11.6208
_cell_length_c       14.7918
_cell_angle_alpha    89.9998
_cell_angle_beta     90.0013
_cell_angle_gamma    96.3614

_space_group_name_H-M_alt    "P 1"
_space_group_IT_number       1

loop_
  _space_group_symop_operation_xyz
  'x, y, z'

loop_
  _atom_site_type_symbol
  _atom_site_label
  _atom_site_symmetry_multiplicity
  _atom_site_fract_x
  _atom_site_fract_y
  _atom_site_fract_z
  _atom_site_occupancy
  Ho  Ho1       1.0  0.67488  0.09852  0.59720  1.0000
  Ho  Ho2       1.0  0.82514  0.40148  0.09720  1.0000
  Ho  Ho3       1.0  0.32513  0.90147  0.40280  1.0000
  Ho  Ho4       1.0  0.17487  0.59853  0.90280  1.0000
  H   H1        1.0  0.93558  0.08575  0.42415  1.0000
  H   H2        1.0  0.56442  0.41425  0.92416  1.0000
  H   H3        1.0  0.06443  0.91424  0.57584  1.0000
  H   H4        1.0  0.43559  0.58576  0.07585  1.0000
  H   H5        1.0  0.80818  0.19365  0.42980  1.0000
  H   H6        1.0  0.69183  0.30636  0.92980  1.0000
  H   H7        1.0  0.19182  0.80635  0.57019  1.0000
  H   H8        1.0  0.30818  0.69365  0.07020  1.0000
  H   H9        1.0  0.35190  0.93631  0.64610  1.0000
  H   H10       1.0  0.14811  0.56369  0.14611  1.0000
  H   H11       1.0  0.64810  0.06367  0.35390  1.0000
  H   H12       1.0  0.85189  0.43632  0.85389  1.0000
  H   H13       1.0  0.51574  0.90598  0.71942  1.0000
  H   H14       1.0  0.98426  0.59403  0.21943  1.0000
  H   H15       1.0  0.48426  0.09402  0.28058  1.0000
  H   H16       1.0  0.01574  0.40598  0.78058  1.0000
  H   H17       1.0  0.70970  0.14667  0.80565  1.0000
  H   H18       1.0  0.79032  0.35333  0.30565  1.0000
  H   H19       1.0  0.29030  0.85331  0.19434  1.0000
  H   H20       1.0  0.20968  0.64668  0.69435  1.0000
  H   H21       1.0  0.88869  0.20139  0.74473  1.0000
  H   H22       1.0  0.61132  0.29862  0.24474  1.0000
  H   H23       1.0  0.11131  0.79860  0.25526  1.0000
  H   H24       1.0  0.38867  0.70140  0.75527  1.0000
  H   H25       1.0  0.71333  0.47417  0.65866  1.0000
  H   H26       1.0  0.78668  0.02583  0.15866  1.0000
  H   H27       1.0  0.28670  0.52583  0.34133  1.0000
  H   H28       1.0  0.21332  0.97417  0.84135  1.0000
  H   H29       1.0  0.70501  0.68649  0.67879  1.0000
  H   H30       1.0  0.79498  0.81351  0.17878  1.0000
  H   H31       1.0  0.29501  0.31351  0.32121  1.0000
  H   H32       1.0  0.20500  0.18649  0.82123  1.0000
  H   H33       1.0  0.80268  0.52742  0.37303  1.0000
  H   H34       1.0  0.69733  0.97258  0.87303  1.0000
  H   H35       1.0  0.19733  0.47258  0.62696  1.0000
  H   H36       1.0  0.30267  0.02742  0.12698  1.0000
  C   C1        1.0  0.75997  0.35925  0.50050  1.0000
  C   C2        1.0  0.74003  0.14075  0.00049  1.0000
  C   C3        1.0  0.24004  0.64075  0.49949  1.0000
  C   C4        1.0  0.25997  0.85925  0.99951  1.0000
  C   C5        1.0  0.75155  0.48620  0.51426  1.0000
  C   C6        1.0  0.74845  0.01380  0.01426  1.0000
  C   C7        1.0  0.24846  0.51380  0.48574  1.0000
  C   C8        1.0  0.25154  0.98621  0.98575  1.0000
  C   C9        1.0  0.72619  0.53192  0.60038  1.0000
  C   C10       1.0  0.77380  0.96809  0.10038  1.0000
  C   C11       1.0  0.27382  0.46809  0.39962  1.0000
  C   C12       1.0  0.22620  0.03192  0.89963  1.0000
  C   C13       1.0  0.72049  0.65068  0.61178  1.0000
  C   C14       1.0  0.77950  0.84932  0.11179  1.0000
  C   C15       1.0  0.27952  0.34932  0.38821  1.0000
  C   C16       1.0  0.22050  0.15069  0.88822  1.0000
  C   C17       1.0  0.73592  0.72568  0.53762  1.0000
  C   C18       1.0  0.76406  0.77432  0.03762  1.0000
  C   C19       1.0  0.26408  0.27432  0.46238  1.0000
  C   C20       1.0  0.23591  0.22568  0.96239  1.0000
  C   C21       1.0  0.76659  0.67868  0.45180  1.0000
  C   C22       1.0  0.73341  0.82132  0.95181  1.0000
  C   C23       1.0  0.23342  0.32132  0.54819  1.0000
  C   C24       1.0  0.26658  0.17868  0.04821  1.0000
  C   C25       1.0  0.77503  0.56089  0.43994  1.0000
  C   C26       1.0  0.72496  0.93911  0.93993  1.0000
  C   C27       1.0  0.22495  0.43911  0.56006  1.0000
  C   C28       1.0  0.27503  0.06090  0.06008  1.0000
  C   C29       1.0  0.71312  0.85190  0.54987  1.0000
  C   C30       1.0  0.78688  0.64810  0.04987  1.0000
  C   C31       1.0  0.28686  0.14810  0.45014  1.0000
  C   C32       1.0  0.21313  0.35191  0.95013  1.0000
  S   S1        1.0  0.81122  0.77314  0.35866  1.0000
  S   S2        1.0  0.68876  0.72686  0.85867  1.0000
  S   S3        1.0  0.18876  0.22686  0.64133  1.0000
  S   S4        1.0  0.31124  0.27314  0.14134  1.0000
  O   O1        1.0  0.80188  0.10591  0.44154  1.0000
  O   O2        1.0  0.69812  0.39409  0.94154  1.0000
  O   O3        1.0  0.19812  0.89409  0.55846  1.0000
  O   O4        1.0  0.30189  0.60591  0.05846  1.0000
  O   O5        1.0  0.46325  0.96924  0.68624  1.0000
  O   O6        1.0  0.03675  0.53077  0.18624  1.0000
  O   O7        1.0  0.53676  0.03076  0.31376  1.0000
  O   O8        1.0  0.96324  0.46924  0.81377  1.0000
  O   O9        1.0  0.76621  0.14666  0.74385  1.0000
  O   O10       1.0  0.73382  0.35334  0.24386  1.0000
  O   O11       1.0  0.23381  0.85332  0.25614  1.0000
  O   O12       1.0  0.26616  0.64668  0.75614  1.0000
  O   O13       1.0  0.72922  0.29251  0.56866  1.0000
  O   O14       1.0  0.77078  0.20749  0.06866  1.0000
  O   O15       1.0  0.27077  0.70748  0.43134  1.0000
  O   O16       1.0  0.22922  0.79252  0.93134  1.0000
  O   O17       1.0  0.79858  0.32373  0.42148  1.0000
  O   O18       1.0  0.70143  0.17627  0.92147  1.0000
  O   O19       1.0  0.20142  0.67627  0.57852  1.0000
  O   O20       1.0  0.29857  0.82373  0.07854  1.0000
  O   O21       1.0  0.62131  0.81166  0.33300  1.0000
  O   O22       1.0  0.87869  0.68834  0.83301  1.0000
  O   O23       1.0  0.37868  0.18835  0.66700  1.0000
  O   O24       1.0  0.12131  0.31166  0.16700  1.0000
  O   O25       1.0  0.95766  0.86791  0.39178  1.0000
  O   O26       1.0  0.54232  0.63209  0.89179  1.0000
  O   O27       1.0  0.04233  0.13209  0.60820  1.0000
  O   O28       1.0  0.45767  0.36790  0.10821  1.0000
  O   O29       1.0  0.89688  0.70731  0.28596  1.0000
  O   O30       1.0  0.60310  0.79268  0.78597  1.0000
  O   O31       1.0  0.10310  0.29268  0.71404  1.0000
  O   O32       1.0  0.39690  0.20731  0.21404  1.0000
  O   O33       1.0  0.57529  0.89541  0.50774  1.0000
  O   O34       1.0  0.92474  0.60461  0.00774  1.0000
  O   O35       1.0  0.42472  0.10459  0.49225  1.0000
  O   O36       1.0  0.07526  0.39542  0.99227  1.0000
  O   O37       1.0  0.82351  0.91504  0.60408  1.0000
  O   O38       1.0  0.67648  0.58495  0.10407  1.0000
  O   O39       1.0  0.17650  0.08495  0.39592  1.0000
  O   O40       1.0  0.32351  0.41504  0.89593  1.0000
