data_image0
_chemical_formula_structural       H20Pb2C44N4O8F24
_chemical_formula_sum              "H20 Pb2 C44 N4 O8 F24"
_cell_length_a       9.41325
_cell_length_b       12.4361
_cell_length_c       12.4368
_cell_angle_alpha    60.137
_cell_angle_beta     71.7386
_cell_angle_gamma    71.7409

_space_group_name_H-M_alt    "P 1"
_space_group_IT_number       1

loop_
  _space_group_symop_operation_xyz
  'x, y, z'

loop_
  _atom_site_type_symbol
  _atom_site_label
  _atom_site_symmetry_multiplicity
  _atom_site_fract_x
  _atom_site_fract_y
  _atom_site_fract_z
  _atom_site_occupancy
  H   H1        1.0  0.89277  0.03626  0.38718  1.0000
  H   H2        1.0  0.60723  0.61282  0.96374  1.0000
  H   H3        1.0  0.10723  0.96374  0.61282  1.0000
  H   H4        1.0  0.39276  0.38718  0.03626  1.0000
  H   H5        1.0  0.37498  0.02073  0.21769  1.0000
  H   H6        1.0  0.12501  0.78231  0.97927  1.0000
  H   H7        1.0  0.62501  0.97927  0.78231  1.0000
  H   H8        1.0  0.87498  0.21769  0.02073  1.0000
  H   H9        1.0  0.43586  0.90305  0.43399  1.0000
  H   H10       1.0  0.06414  0.56601  0.09695  1.0000
  H   H11       1.0  0.56414  0.09695  0.56601  1.0000
  H   H12       1.0  0.93586  0.43399  0.90304  1.0000
  H   H13       1.0  0.39167  0.68002  0.56825  1.0000
  H   H14       1.0  0.10832  0.43175  0.31999  1.0000
  H   H15       1.0  0.60833  0.31999  0.43176  1.0000
  H   H16       1.0  0.89168  0.56825  0.68001  1.0000
  H   H17       1.0  0.30314  0.49891  0.59091  1.0000
  H   H18       1.0  0.19686  0.40909  0.50109  1.0000
  H   H19       1.0  0.69686  0.50109  0.40909  1.0000
  H   H20       1.0  0.80314  0.59091  0.49891  1.0000
  Pb  Pb1       1.0  0.25000  0.99415  0.00584  1.0000
  Pb  Pb2       1.0  0.75000  0.00585  0.99416  1.0000
  C   C1        1.0  0.91757  0.97421  0.24878  1.0000
  C   C2        1.0  0.58243  0.75122  0.02580  1.0000
  C   C3        1.0  0.08243  0.02579  0.75122  1.0000
  C   C4        1.0  0.41758  0.24879  0.97420  1.0000
  C   C5        1.0  0.94915  0.04686  0.29264  1.0000
  C   C6        1.0  0.55084  0.70737  0.95314  1.0000
  C   C7        1.0  0.05084  0.95315  0.70736  1.0000
  C   C8        1.0  0.44916  0.29264  0.04686  1.0000
  C   C9        1.0  0.04286  0.13737  0.21815  1.0000
  C   C10       1.0  0.45714  0.78185  0.86263  1.0000
  C   C11       1.0  0.95714  0.86264  0.78185  1.0000
  C   C12       1.0  0.54286  0.21815  0.13736  1.0000
  C   C13       1.0  0.82022  0.87390  0.34928  1.0000
  C   C14       1.0  0.67978  0.65072  0.12610  1.0000
  C   C15       1.0  0.17978  0.12609  0.65072  1.0000
  C   C16       1.0  0.32022  0.34928  0.87390  1.0000
  C   C17       1.0  0.05207  0.21949  0.27625  1.0000
  C   C18       1.0  0.44793  0.72375  0.78051  1.0000
  C   C19       1.0  0.94792  0.78051  0.72375  1.0000
  C   C20       1.0  0.55207  0.27625  0.21949  1.0000
  C   C21       1.0  0.35657  0.92427  0.27828  1.0000
  C   C22       1.0  0.14343  0.72172  0.07573  1.0000
  C   C23       1.0  0.64343  0.07573  0.72172  1.0000
  C   C24       1.0  0.85657  0.27828  0.92427  1.0000
  C   C25       1.0  0.39113  0.85738  0.39986  1.0000
  C   C26       1.0  0.10887  0.60013  0.14262  1.0000
  C   C27       1.0  0.60887  0.14262  0.60014  1.0000
  C   C28       1.0  0.89113  0.39987  0.85738  1.0000
  C   C29       1.0  0.36732  0.73479  0.47302  1.0000
  C   C30       1.0  0.13268  0.52698  0.26521  1.0000
  C   C31       1.0  0.63268  0.26522  0.52698  1.0000
  C   C32       1.0  0.86732  0.47302  0.73479  1.0000
  C   C33       1.0  0.30906  0.67955  0.42445  1.0000
  C   C34       1.0  0.19094  0.57554  0.32045  1.0000
  C   C35       1.0  0.69095  0.32045  0.57555  1.0000
  C   C36       1.0  0.80906  0.42445  0.67955  1.0000
  C   C37       1.0  0.27840  0.75392  0.30000  1.0000
  C   C38       1.0  0.22160  0.70000  0.24607  1.0000
  C   C39       1.0  0.72160  0.24607  0.70000  1.0000
  C   C40       1.0  0.77840  0.30000  0.75393  1.0000
  C   C41       1.0  0.27905  0.55392  0.49572  1.0000
  C   C42       1.0  0.22095  0.50428  0.44608  1.0000
  C   C43       1.0  0.72096  0.44608  0.50428  1.0000
  C   C44       1.0  0.77905  0.49572  0.55392  1.0000
  N   N1        1.0  0.30153  0.87450  0.23027  1.0000
  N   N2        1.0  0.19847  0.76973  0.12550  1.0000
  N   N3        1.0  0.69847  0.12550  0.76973  1.0000
  N   N4        1.0  0.80153  0.23027  0.87450  1.0000
  O   O1        1.0  0.96221  0.97600  0.14087  1.0000
  O   O2        1.0  0.53778  0.85914  0.02400  1.0000
  O   O3        1.0  0.03778  0.02399  0.85913  1.0000
  O   O4        1.0  0.46222  0.14086  0.97601  1.0000
  O   O5        1.0  0.12273  0.16132  0.10950  1.0000
  O   O6        1.0  0.37726  0.89051  0.83867  1.0000
  O   O7        1.0  0.87727  0.83867  0.89050  1.0000
  O   O8        1.0  0.62274  0.10949  0.16133  1.0000
  F   F1        1.0  0.70867  0.91360  0.42920  1.0000
  F   F2        1.0  0.79133  0.57079  0.08640  1.0000
  F   F3        1.0  0.29133  0.08640  0.57080  1.0000
  F   F4        1.0  0.20867  0.42920  0.91360  1.0000
  F   F5        1.0  0.91328  0.76914  0.42316  1.0000
  F   F6        1.0  0.58672  0.57684  0.23086  1.0000
  F   F7        1.0  0.08672  0.23086  0.57684  1.0000
  F   F8        1.0  0.41328  0.42316  0.76914  1.0000
  F   F9        1.0  0.75484  0.83270  0.29700  1.0000
  F   F10       1.0  0.74516  0.70301  0.16730  1.0000
  F   F11       1.0  0.24516  0.16729  0.70300  1.0000
  F   F12       1.0  0.25484  0.29700  0.83271  1.0000
  F   F13       1.0  0.19389  0.19090  0.30265  1.0000
  F   F14       1.0  0.30611  0.69735  0.80910  1.0000
  F   F15       1.0  0.80611  0.80910  0.69735  1.0000
  F   F16       1.0  0.69389  0.30265  0.19090  1.0000
  F   F17       1.0  0.95019  0.20565  0.38597  1.0000
  F   F18       1.0  0.54981  0.61403  0.79435  1.0000
  F   F19       1.0  0.04981  0.79435  0.61403  1.0000
  F   F20       1.0  0.45019  0.38597  0.20565  1.0000
  F   F21       1.0  0.02674  0.34426  0.19344  1.0000
  F   F22       1.0  0.47326  0.80656  0.65574  1.0000
  F   F23       1.0  0.97326  0.65574  0.80656  1.0000
  F   F24       1.0  0.52674  0.19344  0.34425  1.0000
