data_image0
_chemical_formula_structural       Cu8H24C28I8N8
_chemical_formula_sum              "Cu8 H24 C28 I8 N8"
_cell_length_a       4.05159
_cell_length_b       15.6914
_cell_length_c       16.6762
_cell_angle_alpha    110.326
_cell_angle_beta     89.9987
_cell_angle_gamma    90.0021

_space_group_name_H-M_alt    "P 1"
_space_group_IT_number       1

loop_
  _space_group_symop_operation_xyz
  'x, y, z'

loop_
  _atom_site_type_symbol
  _atom_site_label
  _atom_site_symmetry_multiplicity
  _atom_site_fract_x
  _atom_site_fract_y
  _atom_site_fract_z
  _atom_site_occupancy
  Cu  Cu1       1.0  0.42706  0.67323  0.70931  1.0000
  Cu  Cu2       1.0  0.92705  0.32678  0.79069  1.0000
  Cu  Cu3       1.0  0.57293  0.32677  0.29069  1.0000
  Cu  Cu4       1.0  0.07297  0.67321  0.20932  1.0000
  Cu  Cu5       1.0  0.92382  0.57624  0.73560  1.0000
  Cu  Cu6       1.0  0.42384  0.42377  0.76440  1.0000
  Cu  Cu7       1.0  0.07618  0.42376  0.26441  1.0000
  Cu  Cu8       1.0  0.57618  0.57623  0.23561  1.0000
  H   H1        1.0  0.92304  0.71049  0.44491  1.0000
  H   H2        1.0  0.42301  0.28951  0.05509  1.0000
  H   H3        1.0  0.07698  0.28952  0.55509  1.0000
  H   H4        1.0  0.57696  0.71048  0.94492  1.0000
  H   H5        1.0  0.63985  0.87717  0.72830  1.0000
  H   H6        1.0  0.13982  0.12285  0.77169  1.0000
  H   H7        1.0  0.36015  0.12284  0.27170  1.0000
  H   H8        1.0  0.86019  0.87714  0.22831  1.0000
  H   H9        1.0  0.63129  0.02264  0.69879  1.0000
  H   H10       1.0  0.13130  0.97738  0.80121  1.0000
  H   H11       1.0  0.36866  0.97738  0.30122  1.0000
  H   H12       1.0  0.86867  0.02260  0.19879  1.0000
  H   H13       1.0  0.35292  0.03312  0.57118  1.0000
  H   H14       1.0  0.85295  0.96689  0.92882  1.0000
  H   H15       1.0  0.64702  0.96689  0.42882  1.0000
  H   H16       1.0  0.14701  0.03310  0.07117  1.0000
  H   H17       1.0  0.06824  0.89868  0.46690  1.0000
  H   H18       1.0  0.56823  0.10133  0.03309  1.0000
  H   H19       1.0  0.93174  0.10133  0.53310  1.0000
  H   H20       1.0  0.43174  0.89866  0.96690  1.0000
  H   H21       1.0  0.05068  0.60517  0.52862  1.0000
  H   H22       1.0  0.55063  0.39484  0.97138  1.0000
  H   H23       1.0  0.94936  0.39484  0.47137  1.0000
  H   H24       1.0  0.44936  0.60516  0.02862  1.0000
  C   C1        1.0  0.35216  0.80718  0.61479  1.0000
  C   C2        1.0  0.85211  0.19284  0.88520  1.0000
  C   C3        1.0  0.64788  0.19282  0.38521  1.0000
  C   C4        1.0  0.14790  0.80717  0.11480  1.0000
  C   C5        1.0  0.51385  0.88231  0.67246  1.0000
  C   C6        1.0  0.01383  0.11771  0.82753  1.0000
  C   C7        1.0  0.48617  0.11770  0.32755  1.0000
  C   C8        1.0  0.98619  0.88228  0.17246  1.0000
  C   C9        1.0  0.50782  0.96288  0.65514  1.0000
  C   C10       1.0  0.00782  0.03714  0.84485  1.0000
  C   C11       1.0  0.49215  0.03714  0.34486  1.0000
  C   C12       1.0  0.99216  0.96284  0.15514  1.0000
  C   C13       1.0  0.34856  0.96870  0.58223  1.0000
  C   C14       1.0  0.84857  0.03131  0.91777  1.0000
  C   C15       1.0  0.65140  0.03131  0.41777  1.0000
  C   C16       1.0  0.15140  0.96868  0.08223  1.0000
  C   C17       1.0  0.19026  0.89432  0.52351  1.0000
  C   C18       1.0  0.69026  0.10568  0.97649  1.0000
  C   C19       1.0  0.80974  0.10569  0.47649  1.0000
  C   C20       1.0  0.30975  0.89430  0.02351  1.0000
  C   C21       1.0  0.19296  0.81389  0.54154  1.0000
  C   C22       1.0  0.69292  0.18611  0.95846  1.0000
  C   C23       1.0  0.80707  0.18611  0.45846  1.0000
  C   C24       1.0  0.30706  0.81388  0.04154  1.0000
  C   C25       1.0  0.13241  0.67514  0.54638  1.0000
  C   C26       1.0  0.63235  0.32486  0.95361  1.0000
  C   C27       1.0  0.86764  0.32486  0.45361  1.0000
  C   C28       1.0  0.36765  0.67513  0.04639  1.0000
  I   I1        1.0  0.89862  0.74883  0.81661  1.0000
  I   I2        1.0  0.39863  0.25118  0.68339  1.0000
  I   I3        1.0  0.10136  0.25117  0.18339  1.0000
  I   I4        1.0  0.60133  0.74882  0.31661  1.0000
  I   I5        1.0  0.41704  0.49303  0.63527  1.0000
  I   I6        1.0  0.91707  0.50698  0.86472  1.0000
  I   I7        1.0  0.58295  0.50696  0.36474  1.0000
  I   I8        1.0  0.08294  0.49302  0.13528  1.0000
  N   N1        1.0  0.31011  0.71905  0.61547  1.0000
  N   N2        1.0  0.81008  0.28096  0.88452  1.0000
  N   N3        1.0  0.68992  0.28096  0.38453  1.0000
  N   N4        1.0  0.18994  0.71904  0.11547  1.0000
  N   N5        1.0  0.05850  0.72875  0.50002  1.0000
  N   N6        1.0  0.55846  0.27126  0.99997  1.0000
  N   N7        1.0  0.94153  0.27126  0.49997  1.0000
  N   N8        1.0  0.44154  0.72874  0.00002  1.0000
