data_image0
_chemical_formula_structural       Cu8H32C56I8N16
_chemical_formula_sum              "Cu8 H32 C56 I8 N16"
_cell_length_a       9.52125
_cell_length_b       11.3503
_cell_length_c       13.8116
_cell_angle_alpha    89.9998
_cell_angle_beta     89.9993
_cell_angle_gamma    90.0004

_space_group_name_H-M_alt    "P 1"
_space_group_IT_number       1

loop_
  _space_group_symop_operation_xyz
  'x, y, z'

loop_
  _atom_site_type_symbol
  _atom_site_label
  _atom_site_symmetry_multiplicity
  _atom_site_fract_x
  _atom_site_fract_y
  _atom_site_fract_z
  _atom_site_occupancy
  Cu  Cu1       1.0  0.73454  0.34761  0.50632  1.0000
  Cu  Cu2       1.0  0.26546  0.15239  0.00632  1.0000
  Cu  Cu3       1.0  0.23454  0.65239  0.99369  1.0000
  Cu  Cu4       1.0  0.76546  0.84761  0.49369  1.0000
  Cu  Cu5       1.0  0.26546  0.65239  0.49368  1.0000
  Cu  Cu6       1.0  0.73454  0.84761  0.99369  1.0000
  Cu  Cu7       1.0  0.76546  0.34761  0.00631  1.0000
  Cu  Cu8       1.0  0.23454  0.15239  0.50631  1.0000
  H   H1        1.0  0.98688  0.37016  0.66580  1.0000
  H   H2        1.0  0.01312  0.12983  0.16580  1.0000
  H   H3        1.0  0.48688  0.62984  0.83420  1.0000
  H   H4        1.0  0.51312  0.87016  0.33420  1.0000
  H   H5        1.0  0.01311  0.62984  0.33420  1.0000
  H   H6        1.0  0.98688  0.87017  0.83420  1.0000
  H   H7        1.0  0.51311  0.37016  0.16580  1.0000
  H   H8        1.0  0.48688  0.12984  0.66579  1.0000
  H   H9        1.0  0.17063  0.47926  0.76015  1.0000
  H   H10       1.0  0.82936  0.02074  0.26016  1.0000
  H   H11       1.0  0.67064  0.52074  0.73984  1.0000
  H   H12       1.0  0.32937  0.97926  0.23985  1.0000
  H   H13       1.0  0.82936  0.52074  0.23984  1.0000
  H   H14       1.0  0.17064  0.97926  0.73984  1.0000
  H   H15       1.0  0.32936  0.47926  0.26016  1.0000
  H   H16       1.0  0.67063  0.02075  0.76015  1.0000
  H   H17       1.0  0.19109  0.69558  0.75011  1.0000
  H   H18       1.0  0.80890  0.80442  0.25012  1.0000
  H   H19       1.0  0.69110  0.30442  0.74989  1.0000
  H   H20       1.0  0.30892  0.19557  0.24989  1.0000
  H   H21       1.0  0.80891  0.30442  0.24988  1.0000
  H   H22       1.0  0.19110  0.19558  0.74988  1.0000
  H   H23       1.0  0.30891  0.69557  0.25012  1.0000
  H   H24       1.0  0.69108  0.80443  0.75011  1.0000
  H   H25       1.0  0.02762  0.81309  0.64490  1.0000
  H   H26       1.0  0.97237  0.68691  0.14490  1.0000
  H   H27       1.0  0.52763  0.18690  0.85510  1.0000
  H   H28       1.0  0.47238  0.31309  0.35510  1.0000
  H   H29       1.0  0.97238  0.18691  0.35510  1.0000
  H   H30       1.0  0.02763  0.31309  0.85510  1.0000
  H   H31       1.0  0.47238  0.81309  0.14490  1.0000
  H   H32       1.0  0.52762  0.68691  0.64490  1.0000
  C   C1        1.0  0.90571  0.53148  0.60282  1.0000
  C   C2        1.0  0.09429  0.96852  0.10282  1.0000
  C   C3        1.0  0.40571  0.46852  0.89719  1.0000
  C   C4        1.0  0.59429  0.03148  0.39719  1.0000
  C   C5        1.0  0.09429  0.46852  0.39718  1.0000
  C   C6        1.0  0.90571  0.03148  0.89718  1.0000
  C   C7        1.0  0.59429  0.53148  0.10282  1.0000
  C   C8        1.0  0.40571  0.96852  0.60281  1.0000
  C   C9        1.0  0.99563  0.46583  0.66180  1.0000
  C   C10       1.0  0.00436  0.03417  0.16181  1.0000
  C   C11       1.0  0.49564  0.53417  0.83820  1.0000
  C   C12       1.0  0.50436  0.96583  0.33820  1.0000
  C   C13       1.0  0.00436  0.53417  0.33820  1.0000
  C   C14       1.0  0.99564  0.96583  0.83819  1.0000
  C   C15       1.0  0.50436  0.46582  0.16181  1.0000
  C   C16       1.0  0.49564  0.03417  0.66180  1.0000
  C   C17       1.0  0.09727  0.52736  0.71425  1.0000
  C   C18       1.0  0.90273  0.97264  0.21425  1.0000
  C   C19       1.0  0.59727  0.47264  0.78575  1.0000
  C   C20       1.0  0.40273  0.02736  0.28575  1.0000
  C   C21       1.0  0.90273  0.47264  0.28575  1.0000
  C   C22       1.0  0.09727  0.02736  0.78575  1.0000
  C   C23       1.0  0.40273  0.52736  0.21426  1.0000
  C   C24       1.0  0.59727  0.97265  0.71424  1.0000
  C   C25       1.0  0.10918  0.65128  0.70845  1.0000
  C   C26       1.0  0.89082  0.84872  0.20846  1.0000
  C   C27       1.0  0.60919  0.34872  0.79155  1.0000
  C   C28       1.0  0.39082  0.15128  0.29155  1.0000
  C   C29       1.0  0.89082  0.34872  0.29155  1.0000
  C   C30       1.0  0.10919  0.15128  0.79154  1.0000
  C   C31       1.0  0.39082  0.65128  0.20846  1.0000
  C   C32       1.0  0.60918  0.84873  0.70845  1.0000
  C   C33       1.0  0.01924  0.71752  0.64991  1.0000
  C   C34       1.0  0.98075  0.78248  0.14992  1.0000
  C   C35       1.0  0.51925  0.28248  0.85009  1.0000
  C   C36       1.0  0.48076  0.21751  0.35009  1.0000
  C   C37       1.0  0.98076  0.28248  0.35009  1.0000
  C   C38       1.0  0.01925  0.21752  0.85009  1.0000
  C   C39       1.0  0.48075  0.71752  0.14992  1.0000
  C   C40       1.0  0.51924  0.78249  0.64991  1.0000
  C   C41       1.0  0.91770  0.65641  0.59678  1.0000
  C   C42       1.0  0.08229  0.84359  0.09678  1.0000
  C   C43       1.0  0.41771  0.34359  0.90322  1.0000
  C   C44       1.0  0.58229  0.15640  0.40322  1.0000
  C   C45       1.0  0.08230  0.34359  0.40322  1.0000
  C   C46       1.0  0.91771  0.15641  0.90322  1.0000
  C   C47       1.0  0.58230  0.65641  0.09678  1.0000
  C   C48       1.0  0.41771  0.84360  0.59678  1.0000
  C   C49       1.0  0.74968  0.59805  0.50190  1.0000
  C   C50       1.0  0.25031  0.90194  0.00191  1.0000
  C   C51       1.0  0.24968  0.40195  0.99810  1.0000
  C   C52       1.0  0.75032  0.09805  0.49810  1.0000
  C   C53       1.0  0.25031  0.40195  0.49810  1.0000
  C   C54       1.0  0.74969  0.09806  0.99809  1.0000
  C   C55       1.0  0.75032  0.59805  0.00191  1.0000
  C   C56       1.0  0.24968  0.90195  0.50190  1.0000
  I   I1        1.0  0.59259  0.60337  0.39843  1.0000
  I   I2        1.0  0.40741  0.89662  0.89842  1.0000
  I   I3        1.0  0.09259  0.39662  0.10158  1.0000
  I   I4        1.0  0.90741  0.10338  0.60158  1.0000
  I   I5        1.0  0.40740  0.39662  0.60158  1.0000
  I   I6        1.0  0.59260  0.10338  0.10158  1.0000
  I   I7        1.0  0.90741  0.60338  0.89842  1.0000
  I   I8        1.0  0.09259  0.89662  0.39842  1.0000
  N   N1        1.0  0.79681  0.49671  0.54166  1.0000
  N   N2        1.0  0.20319  0.00329  0.04166  1.0000
  N   N3        1.0  0.29681  0.50329  0.95834  1.0000
  N   N4        1.0  0.70319  0.99670  0.45835  1.0000
  N   N5        1.0  0.20319  0.50329  0.45834  1.0000
  N   N6        1.0  0.79681  0.99671  0.95834  1.0000
  N   N7        1.0  0.70319  0.49671  0.04166  1.0000
  N   N8        1.0  0.29681  0.00330  0.54165  1.0000
  N   N9        1.0  0.81684  0.69629  0.53168  1.0000
  N   N10       1.0  0.18315  0.80371  0.03168  1.0000
  N   N11       1.0  0.31685  0.30371  0.96832  1.0000
  N   N12       1.0  0.68315  0.19628  0.46832  1.0000
  N   N13       1.0  0.18315  0.30371  0.46832  1.0000
  N   N14       1.0  0.81685  0.19629  0.96832  1.0000
  N   N15       1.0  0.68316  0.69629  0.03168  1.0000
  N   N16       1.0  0.31684  0.80372  0.53168  1.0000
