data_image0
_chemical_formula_structural       Cd2H68C64N8O8
_chemical_formula_sum              "Cd2 H68 C64 N8 O8"
_cell_length_a       10.1403
_cell_length_b       12.1137
_cell_length_c       13.2871
_cell_angle_alpha    105.494
_cell_angle_beta     98.277
_cell_angle_gamma    108.094

_space_group_name_H-M_alt    "P 1"
_space_group_IT_number       1

loop_
  _space_group_symop_operation_xyz
  'x, y, z'

loop_
  _atom_site_type_symbol
  _atom_site_label
  _atom_site_symmetry_multiplicity
  _atom_site_fract_x
  _atom_site_fract_y
  _atom_site_fract_z
  _atom_site_occupancy
  Cd  Cd1       1.0  0.24094  0.47333  0.73981  1.0000
  Cd  Cd2       1.0  0.75906  0.52667  0.26019  1.0000
  H   H1        1.0  0.21519  0.86181  0.88243  1.0000
  H   H2        1.0  0.78481  0.13819  0.11757  1.0000
  H   H3        1.0  0.38248  0.85517  0.86907  1.0000
  H   H4        1.0  0.61752  0.14483  0.13093  1.0000
  H   H5        1.0  0.30246  0.07407  0.84822  1.0000
  H   H6        1.0  0.69754  0.92593  0.15178  1.0000
  H   H7        1.0  0.37557  0.06988  0.97413  1.0000
  H   H8        1.0  0.62443  0.93012  0.02587  1.0000
  H   H9        1.0  0.52506  0.04890  0.78873  1.0000
  H   H10       1.0  0.47494  0.95110  0.21127  1.0000
  H   H11       1.0  0.59345  0.05477  0.92077  1.0000
  H   H12       1.0  0.40655  0.94523  0.07923  1.0000
  H   H13       1.0  0.57084  0.26485  0.99201  1.0000
  H   H14       1.0  0.42916  0.73515  0.00799  1.0000
  H   H15       1.0  0.70104  0.26032  0.91680  1.0000
  H   H16       1.0  0.29896  0.73968  0.08320  1.0000
  H   H17       1.0  0.70066  0.18004  0.71727  1.0000
  H   H18       1.0  0.29934  0.81996  0.28273  1.0000
  H   H19       1.0  0.71698  0.21176  0.54221  1.0000
  H   H20       1.0  0.28301  0.78824  0.45779  1.0000
  H   H21       1.0  0.58226  0.32396  0.46831  1.0000
  H   H22       1.0  0.41774  0.67604  0.53169  1.0000
  H   H23       1.0  0.41971  0.40241  0.56530  1.0000
  H   H24       1.0  0.58029  0.59759  0.43470  1.0000
  H   H25       1.0  0.30750  0.41692  0.94841  1.0000
  H   H26       1.0  0.69251  0.58308  0.05159  1.0000
  H   H27       1.0  0.44787  0.38884  0.02450  1.0000
  H   H28       1.0  0.55213  0.61116  0.97550  1.0000
  H   H29       1.0  0.28816  0.26685  0.94878  1.0000
  H   H30       1.0  0.71184  0.73315  0.05122  1.0000
  H   H31       1.0  0.32138  0.88423  0.68124  1.0000
  H   H32       1.0  0.67862  0.11577  0.31876  1.0000
  H   H33       1.0  0.22758  0.74135  0.69490  1.0000
  H   H34       1.0  0.77242  0.25865  0.30510  1.0000
  H   H35       1.0  0.11110  0.95080  0.71846  1.0000
  H   H36       1.0  0.88890  0.04920  0.28154  1.0000
  H   H37       1.0  0.02164  0.80200  0.72295  1.0000
  H   H38       1.0  0.97835  0.19799  0.27705  1.0000
  H   H39       1.0  0.24546  0.05689  0.60393  1.0000
  H   H40       1.0  0.75454  0.94311  0.39608  1.0000
  H   H41       1.0  0.27310  0.12527  0.44578  1.0000
  H   H42       1.0  0.72691  0.87474  0.55422  1.0000
  H   H43       1.0  0.13140  0.98938  0.26114  1.0000
  H   H44       1.0  0.86860  0.01062  0.73886  1.0000
  H   H45       1.0  0.95890  0.77626  0.22845  1.0000
  H   H46       1.0  0.04110  0.22374  0.77155  1.0000
  H   H47       1.0  0.95728  0.58505  0.60971  1.0000
  H   H48       1.0  0.04272  0.41495  0.39029  1.0000
  H   H49       1.0  0.80610  0.62709  0.60232  1.0000
  H   H50       1.0  0.19390  0.37291  0.39767  1.0000
  H   H51       1.0  0.81425  0.51441  0.48916  1.0000
  H   H52       1.0  0.18574  0.48558  0.51084  1.0000
  H   H53       1.0  0.81016  0.44485  0.81539  1.0000
  H   H54       1.0  0.18984  0.55515  0.18461  1.0000
  H   H55       1.0  0.91025  0.50540  0.95164  1.0000
  H   H56       1.0  0.08975  0.49461  0.04836  1.0000
  H   H57       1.0  0.03563  0.73857  0.03804  1.0000
  H   H58       1.0  0.96438  0.26144  0.96196  1.0000
  H   H59       1.0  0.98725  0.93248  0.06372  1.0000
  H   H60       1.0  0.01275  0.06752  0.93628  1.0000
  H   H61       1.0  0.79869  0.94259  0.92921  1.0000
  H   H62       1.0  0.20131  0.05741  0.07079  1.0000
  H   H63       1.0  0.70690  0.56607  0.74209  1.0000
  H   H64       1.0  0.29310  0.43393  0.25791  1.0000
  H   H65       1.0  0.63365  0.73265  0.66336  1.0000
  H   H66       1.0  0.36635  0.26735  0.33664  1.0000
  H   H67       1.0  0.61558  0.85045  0.76686  1.0000
  H   H68       1.0  0.38442  0.14955  0.23314  1.0000
  C   C1        1.0  0.30334  0.89401  0.84492  1.0000
  C   C2        1.0  0.69666  0.10599  0.15508  1.0000
  C   C3        1.0  0.37099  0.03492  0.88779  1.0000
  C   C4        1.0  0.62901  0.96508  0.11221  1.0000
  C   C5        1.0  0.52259  0.08559  0.87349  1.0000
  C   C6        1.0  0.47741  0.91441  0.12651  1.0000
  C   C7        1.0  0.58536  0.22637  0.91151  1.0000
  C   C8        1.0  0.41464  0.77363  0.08849  1.0000
  C   C9        1.0  0.54723  0.27208  0.73806  1.0000
  C   C10       1.0  0.45277  0.72792  0.26194  1.0000
  C   C11       1.0  0.63783  0.22647  0.68448  1.0000
  C   C12       1.0  0.36217  0.77352  0.31552  1.0000
  C   C13       1.0  0.64668  0.24509  0.58617  1.0000
  C   C14       1.0  0.35332  0.75491  0.41383  1.0000
  C   C15       1.0  0.56861  0.30712  0.54347  1.0000
  C   C16       1.0  0.43139  0.69288  0.45653  1.0000
  C   C17       1.0  0.47692  0.35120  0.59673  1.0000
  C   C18       1.0  0.52308  0.64880  0.40327  1.0000
  C   C19       1.0  0.46612  0.33265  0.69526  1.0000
  C   C20       1.0  0.53388  0.66735  0.30474  1.0000
  C   C21       1.0  0.42401  0.33457  0.85294  1.0000
  C   C22       1.0  0.57599  0.66543  0.14706  1.0000
  C   C23       1.0  0.36494  0.35395  0.94892  1.0000
  C   C24       1.0  0.63506  0.64605  0.05108  1.0000
  C   C25       1.0  0.24437  0.83968  0.72224  1.0000
  C   C26       1.0  0.75563  0.16032  0.27776  1.0000
  C   C27       1.0  0.10158  0.85412  0.68858  1.0000
  C   C28       1.0  0.89842  0.14587  0.31142  1.0000
  C   C29       1.0  0.08516  0.87773  0.50397  1.0000
  C   C30       1.0  0.91484  0.12227  0.49603  1.0000
  C   C31       1.0  0.18268  0.99605  0.52328  1.0000
  C   C32       1.0  0.81732  0.00395  0.47672  1.0000
  C   C33       1.0  0.19707  0.03375  0.43371  1.0000
  C   C34       1.0  0.80293  0.96625  0.56629  1.0000
  C   C35       1.0  0.11649  0.95604  0.32889  1.0000
  C   C36       1.0  0.88351  0.04396  0.67111  1.0000
  C   C37       1.0  0.01911  0.83768  0.30963  1.0000
  C   C38       1.0  0.98089  0.16232  0.69037  1.0000
  C   C39       1.0  0.00416  0.79870  0.39889  1.0000
  C   C40       1.0  0.99584  0.20130  0.60111  1.0000
  C   C41       1.0  0.94596  0.69735  0.50980  1.0000
  C   C42       1.0  0.05404  0.30265  0.49020  1.0000
  C   C43       1.0  0.87825  0.60047  0.55464  1.0000
  C   C44       1.0  0.12175  0.39953  0.44536  1.0000
  C   C45       1.0  0.03244  0.51751  0.83248  1.0000
  C   C46       1.0  0.96756  0.48249  0.16752  1.0000
  C   C47       1.0  0.90154  0.52256  0.87431  1.0000
  C   C48       1.0  0.09846  0.47744  0.12569  1.0000
  C   C49       1.0  0.87640  0.64059  0.88662  1.0000
  C   C50       1.0  0.12361  0.35941  0.11338  1.0000
  C   C51       1.0  0.95590  0.74467  0.97730  1.0000
  C   C52       1.0  0.04410  0.25533  0.02270  1.0000
  C   C53       1.0  0.92832  0.85270  0.99194  1.0000
  C   C54       1.0  0.07168  0.14730  0.00806  1.0000
  C   C55       1.0  0.82208  0.85860  0.91605  1.0000
  C   C56       1.0  0.17792  0.14140  0.08394  1.0000
  C   C57       1.0  0.74225  0.75636  0.82500  1.0000
  C   C58       1.0  0.25775  0.24364  0.17500  1.0000
  C   C59       1.0  0.77110  0.64802  0.81136  1.0000
  C   C60       1.0  0.22890  0.35198  0.18864  1.0000
  C   C61       1.0  0.62059  0.75780  0.74610  1.0000
  C   C62       1.0  0.37941  0.24220  0.25390  1.0000
  C   C63       1.0  0.47722  0.66810  0.74838  1.0000
  C   C64       1.0  0.52278  0.33190  0.25162  1.0000
  N   N1        1.0  0.91891  0.68765  0.40580  1.0000
  N   N2        1.0  0.08109  0.31235  0.59420  1.0000
  N   N3        1.0  0.04519  0.81098  0.57202  1.0000
  N   N4        1.0  0.95481  0.18902  0.42798  1.0000
  N   N5        1.0  0.39007  0.36927  0.76848  1.0000
  N   N6        1.0  0.60993  0.63073  0.23152  1.0000
  N   N7        1.0  0.51930  0.27580  0.83805  1.0000
  N   N8        1.0  0.48070  0.72420  0.16195  1.0000
  O   O1        1.0  0.09899  0.45368  0.86413  1.0000
  O   O2        1.0  0.90101  0.54632  0.13587  1.0000
  O   O3        1.0  0.06808  0.57133  0.76516  1.0000
  O   O4        1.0  0.93192  0.42867  0.23484  1.0000
  O   O5        1.0  0.45016  0.66929  0.83877  1.0000
  O   O6        1.0  0.54984  0.33072  0.16123  1.0000
  O   O7        1.0  0.39139  0.59313  0.65846  1.0000
  O   O8        1.0  0.60861  0.40687  0.34154  1.0000
