data_image0
_chemical_formula_structural       Ag4H40C40S16N12O12
_chemical_formula_sum              "Ag4 H40 C40 S16 N12 O12"
_cell_length_a       10.8892
_cell_length_b       10.8892
_cell_length_c       12.8357
_cell_angle_alpha    92.3807
_cell_angle_beta     92.3808
_cell_angle_gamma    100.588

_space_group_name_H-M_alt    "P 1"
_space_group_IT_number       1

loop_
  _space_group_symop_operation_xyz
  'x, y, z'

loop_
  _atom_site_type_symbol
  _atom_site_label
  _atom_site_symmetry_multiplicity
  _atom_site_fract_x
  _atom_site_fract_y
  _atom_site_fract_z
  _atom_site_occupancy
  Ag  Ag1       1.0  0.35285  0.02097  0.52650  1.0000
  Ag  Ag2       1.0  0.97903  0.64715  0.97350  1.0000
  Ag  Ag3       1.0  0.64715  0.97903  0.47350  1.0000
  Ag  Ag4       1.0  0.02097  0.35285  0.02650  1.0000
  H   H1        1.0  0.05386  0.94071  0.60523  1.0000
  H   H2        1.0  0.05929  0.94614  0.89477  1.0000
  H   H3        1.0  0.94614  0.05929  0.39477  1.0000
  H   H4        1.0  0.94070  0.05386  0.10523  1.0000
  H   H5        1.0  0.93854  0.71766  0.66887  1.0000
  H   H6        1.0  0.28234  0.06146  0.83113  1.0000
  H   H7        1.0  0.06146  0.28233  0.33113  1.0000
  H   H8        1.0  0.71766  0.93854  0.16887  1.0000
  H   H9        1.0  0.34574  0.50514  0.58282  1.0000
  H   H10       1.0  0.49486  0.65425  0.91718  1.0000
  H   H11       1.0  0.65425  0.49486  0.41718  1.0000
  H   H12       1.0  0.50514  0.34575  0.08282  1.0000
  H   H13       1.0  0.50500  0.57554  0.56155  1.0000
  H   H14       1.0  0.42446  0.49500  0.93845  1.0000
  H   H15       1.0  0.49500  0.42446  0.43845  1.0000
  H   H16       1.0  0.57554  0.50500  0.06155  1.0000
  H   H17       1.0  0.52197  0.69653  0.73567  1.0000
  H   H18       1.0  0.30347  0.47803  0.76433  1.0000
  H   H19       1.0  0.47803  0.30347  0.26433  1.0000
  H   H20       1.0  0.69653  0.52197  0.23567  1.0000
  H   H21       1.0  0.64323  0.74375  0.30565  1.0000
  H   H22       1.0  0.25625  0.35677  0.19435  1.0000
  H   H23       1.0  0.35677  0.25625  0.69435  1.0000
  H   H24       1.0  0.74375  0.64323  0.80565  1.0000
  H   H25       1.0  0.50141  0.67425  0.13050  1.0000
  H   H26       1.0  0.32575  0.49859  0.36950  1.0000
  H   H27       1.0  0.49859  0.32575  0.86950  1.0000
  H   H28       1.0  0.67425  0.50141  0.63050  1.0000
  H   H29       1.0  0.24866  0.05863  0.18626  1.0000
  H   H30       1.0  0.94138  0.75134  0.31374  1.0000
  H   H31       1.0  0.75134  0.94137  0.81374  1.0000
  H   H32       1.0  0.05863  0.24866  0.68626  1.0000
  H   H33       1.0  0.20828  0.13278  0.30241  1.0000
  H   H34       1.0  0.86722  0.79172  0.19759  1.0000
  H   H35       1.0  0.79172  0.86722  0.69759  1.0000
  H   H36       1.0  0.13278  0.20828  0.80241  1.0000
  H   H37       1.0  0.11506  0.91749  0.37021  1.0000
  H   H38       1.0  0.08251  0.88494  0.12979  1.0000
  H   H39       1.0  0.88494  0.08251  0.62979  1.0000
  H   H40       1.0  0.91749  0.11506  0.87021  1.0000
  C   C1        1.0  0.09042  0.85432  0.60563  1.0000
  C   C2        1.0  0.14568  0.90958  0.89436  1.0000
  C   C3        1.0  0.90958  0.14568  0.39437  1.0000
  C   C4        1.0  0.85432  0.09042  0.10563  1.0000
  C   C5        1.0  0.03065  0.74168  0.63785  1.0000
  C   C6        1.0  0.25832  0.96935  0.86216  1.0000
  C   C7        1.0  0.96935  0.25832  0.36216  1.0000
  C   C8        1.0  0.74168  0.03065  0.13784  1.0000
  C   C9        1.0  0.23994  0.74220  0.57800  1.0000
  C   C10       1.0  0.25780  0.76006  0.92200  1.0000
  C   C11       1.0  0.76006  0.25780  0.42200  1.0000
  C   C12       1.0  0.74220  0.23994  0.07800  1.0000
  C   C13       1.0  0.41928  0.58821  0.59976  1.0000
  C   C14       1.0  0.41179  0.58072  0.90024  1.0000
  C   C15       1.0  0.58072  0.41179  0.40024  1.0000
  C   C16       1.0  0.58821  0.41928  0.09976  1.0000
  C   C17       1.0  0.44568  0.61845  0.71328  1.0000
  C   C18       1.0  0.38155  0.55431  0.78672  1.0000
  C   C19       1.0  0.55431  0.38155  0.28672  1.0000
  C   C20       1.0  0.61845  0.44569  0.21328  1.0000
  C   C21       1.0  0.56499  0.78449  0.27744  1.0000
  C   C22       1.0  0.21551  0.43501  0.22256  1.0000
  C   C23       1.0  0.43501  0.21551  0.72256  1.0000
  C   C24       1.0  0.78449  0.56499  0.77744  1.0000
  C   C25       1.0  0.49278  0.74714  0.18815  1.0000
  C   C26       1.0  0.25286  0.50722  0.31185  1.0000
  C   C27       1.0  0.50722  0.25286  0.81185  1.0000
  C   C28       1.0  0.74714  0.49278  0.68815  1.0000
  C   C29       1.0  0.43581  0.92129  0.28752  1.0000
  C   C30       1.0  0.07871  0.56419  0.21248  1.0000
  C   C31       1.0  0.56419  0.07871  0.71248  1.0000
  C   C32       1.0  0.92129  0.43581  0.78752  1.0000
  C   C33       1.0  0.23207  0.04562  0.26936  1.0000
  C   C34       1.0  0.95438  0.76793  0.23065  1.0000
  C   C35       1.0  0.76793  0.95438  0.73065  1.0000
  C   C36       1.0  0.04562  0.23207  0.76935  1.0000
  C   C37       1.0  0.13346  0.93621  0.28864  1.0000
  C   C38       1.0  0.06379  0.86654  0.21136  1.0000
  C   C39       1.0  0.86654  0.06379  0.71136  1.0000
  C   C40       1.0  0.93621  0.13346  0.78864  1.0000
  S   S1        1.0  0.12351  0.63094  0.62464  1.0000
  S   S2        1.0  0.36906  0.87649  0.87536  1.0000
  S   S3        1.0  0.87649  0.36906  0.37536  1.0000
  S   S4        1.0  0.63094  0.12351  0.12464  1.0000
  S   S5        1.0  0.38021  0.71920  0.52860  1.0000
  S   S6        1.0  0.28079  0.61979  0.97140  1.0000
  S   S7        1.0  0.61979  0.28080  0.47140  1.0000
  S   S8        1.0  0.71921  0.38021  0.02861  1.0000
  S   S9        1.0  0.38040  0.83743  0.17261  1.0000
  S   S10       1.0  0.16257  0.61959  0.32739  1.0000
  S   S11       1.0  0.61959  0.16257  0.82739  1.0000
  S   S12       1.0  0.83743  0.38041  0.67261  1.0000
  S   S13       1.0  0.38347  0.05197  0.33873  1.0000
  S   S14       1.0  0.94802  0.61653  0.16127  1.0000
  S   S15       1.0  0.61653  0.94803  0.66127  1.0000
  S   S16       1.0  0.05197  0.38347  0.83873  1.0000
  N   N1        1.0  0.20899  0.85422  0.57287  1.0000
  N   N2        1.0  0.14578  0.79101  0.92713  1.0000
  N   N3        1.0  0.79101  0.14578  0.42713  1.0000
  N   N4        1.0  0.85422  0.20899  0.07287  1.0000
  N   N5        1.0  0.53232  0.88294  0.33375  1.0000
  N   N6        1.0  0.11706  0.46768  0.16625  1.0000
  N   N7        1.0  0.46768  0.11706  0.66625  1.0000
  N   N8        1.0  0.88294  0.53232  0.83375  1.0000
  N   N9        1.0  0.22122  0.26345  0.52024  1.0000
  N   N10       1.0  0.73655  0.77878  0.97976  1.0000
  N   N11       1.0  0.77878  0.73655  0.47976  1.0000
  N   N12       1.0  0.26345  0.22122  0.02023  1.0000
  O   O1        1.0  0.18179  0.15253  0.54854  1.0000
  O   O2        1.0  0.84747  0.81821  0.95146  1.0000
  O   O3        1.0  0.81821  0.84747  0.45146  1.0000
  O   O4        1.0  0.15253  0.18179  0.04854  1.0000
  O   O5        1.0  0.30101  0.28151  0.45024  1.0000
  O   O6        1.0  0.71849  0.69899  0.04976  1.0000
  O   O7        1.0  0.69899  0.71849  0.54976  1.0000
  O   O8        1.0  0.28151  0.30101  0.95024  1.0000
  O   O9        1.0  0.18120  0.35430  0.56243  1.0000
  O   O10       1.0  0.64570  0.81880  0.93757  1.0000
  O   O11       1.0  0.81880  0.64570  0.43758  1.0000
  O   O12       1.0  0.35430  0.18120  0.06243  1.0000
