data_image0
_chemical_formula_structural       Na4H24C12N28O8
_chemical_formula_sum              "Na4 H24 C12 N28 O8"
_cell_length_a       8.44705
_cell_length_b       8.44605
_cell_length_c       12.3744
_cell_angle_alpha    105.462
_cell_angle_beta     106.648
_cell_angle_gamma    100.944

_space_group_name_H-M_alt    "P 1"
_space_group_IT_number       1

loop_
  _space_group_symop_operation_xyz
  'x, y, z'

loop_
  _atom_site_type_symbol
  _atom_site_label
  _atom_site_symmetry_multiplicity
  _atom_site_fract_x
  _atom_site_fract_y
  _atom_site_fract_z
  _atom_site_occupancy
  Na  Na1       1.0  0.25401  0.00400  0.74995  1.0000
  Na  Na2       1.0  0.74599  0.99600  0.25005  1.0000
  Na  Na3       1.0  0.50000  1.00000  0.00000  1.0000
  Na  Na4       1.0  1.00000  1.00000  0.50000  1.0000
  H   H1        1.0  0.43206  0.31100  0.96072  1.0000
  H   H2        1.0  0.35023  0.97132  0.53925  1.0000
  H   H3        1.0  0.56794  0.68900  0.03928  1.0000
  H   H4        1.0  0.64977  0.02868  0.46075  1.0000
  H   H5        1.0  0.57627  0.28733  0.90514  1.0000
  H   H6        1.0  0.38215  0.17113  0.59484  1.0000
  H   H7        1.0  0.42373  0.71267  0.09486  1.0000
  H   H8        1.0  0.61785  0.82887  0.40516  1.0000
  H   H9        1.0  0.10397  0.85267  0.91485  1.0000
  H   H10       1.0  0.93779  0.68901  0.58502  1.0000
  H   H11       1.0  0.89603  0.14733  0.08515  1.0000
  H   H12       1.0  0.06221  0.31099  0.41498  1.0000
  H   H13       1.0  0.17718  0.05466  0.95877  1.0000
  H   H14       1.0  0.09587  0.71824  0.54108  1.0000
  H   H15       1.0  0.82282  0.94534  0.04123  1.0000
  H   H16       1.0  0.90413  0.28176  0.45892  1.0000
  H   H17       1.0  0.79833  0.85626  0.68410  1.0000
  H   H18       1.0  0.17213  0.61416  0.81595  1.0000
  H   H19       1.0  0.20167  0.14374  0.31589  1.0000
  H   H20       1.0  0.82787  0.38584  0.18405  1.0000
  H   H21       1.0  0.37726  0.54295  0.72151  1.0000
  H   H22       1.0  0.82133  0.15559  0.77834  1.0000
  H   H23       1.0  0.62274  0.45705  0.27849  1.0000
  H   H24       1.0  0.17867  0.84441  0.22167  1.0000
  C   C1        1.0  0.68761  0.81934  0.70919  1.0000
  C   C2        1.0  0.11011  0.47833  0.79081  1.0000
  C   C3        1.0  0.31239  0.18066  0.29080  1.0000
  C   C4        1.0  0.88989  0.52168  0.20919  1.0000
  C   C5        1.0  0.46964  0.65778  0.72854  1.0000
  C   C6        1.0  0.92912  0.24096  0.77133  1.0000
  C   C7        1.0  0.53036  0.34222  0.27146  1.0000
  C   C8        1.0  0.07088  0.75904  0.22867  1.0000
  C   C9        1.0  0.63875  0.50721  0.62240  1.0000
  C   C10       1.0  0.88473  0.51626  0.87752  1.0000
  C   C11       1.0  0.36125  0.49279  0.37759  1.0000
  C   C12       1.0  0.11528  0.48374  0.12248  1.0000
  N   N1        1.0  0.47876  0.81955  0.77950  1.0000
  N   N2        1.0  0.03999  0.19913  0.72041  1.0000
  N   N3        1.0  0.52125  0.18045  0.22050  1.0000
  N   N4        1.0  0.96001  0.80087  0.27959  1.0000
  N   N5        1.0  0.61802  0.92225  0.76703  1.0000
  N   N6        1.0  0.15520  0.35092  0.73298  1.0000
  N   N7        1.0  0.38198  0.07775  0.23297  1.0000
  N   N8        1.0  0.84480  0.64908  0.26702  1.0000
  N   N9        1.0  0.59921  0.65078  0.68265  1.0000
  N   N10       1.0  0.96802  0.41642  0.81726  1.0000
  N   N11       1.0  0.40079  0.34923  0.31735  1.0000
  N   N12       1.0  0.03198  0.58358  0.18274  1.0000
  N   N13       1.0  0.77237  0.52234  0.58433  1.0000
  N   N14       1.0  0.93796  0.68795  0.91561  1.0000
  N   N15       1.0  0.22763  0.47766  0.41567  1.0000
  N   N16       1.0  0.06204  0.31205  0.08439  1.0000
  N   N17       1.0  0.76831  0.35964  0.53224  1.0000
  N   N18       1.0  0.82743  0.73604  0.96774  1.0000
  N   N19       1.0  0.23169  0.64036  0.46776  1.0000
  N   N20       1.0  0.17257  0.26396  0.03226  1.0000
  N   N21       1.0  0.63858  0.25317  0.53908  1.0000
  N   N22       1.0  0.71410  0.59946  0.96088  1.0000
  N   N23       1.0  0.36142  0.74683  0.46092  1.0000
  N   N24       1.0  0.28590  0.40055  0.03912  1.0000
  N   N25       1.0  0.55268  0.34332  0.59630  1.0000
  N   N26       1.0  0.74696  0.45630  0.90363  1.0000
  N   N27       1.0  0.44732  0.65668  0.40370  1.0000
  N   N28       1.0  0.25304  0.54371  0.09637  1.0000
  O   O1        1.0  0.47829  0.22331  0.92008  1.0000
  O   O2        1.0  0.30320  0.05821  0.57990  1.0000
  O   O3        1.0  0.52171  0.77669  0.07992  1.0000
  O   O4        1.0  0.69680  0.94179  0.42010  1.0000
  O   O5        1.0  0.19362  0.94613  0.91307  1.0000
  O   O6        1.0  0.03297  0.78040  0.58672  1.0000
  O   O7        1.0  0.80639  0.05387  0.08693  1.0000
  O   O8        1.0  0.96703  0.21960  0.41328  1.0000
