data_image0
_chemical_formula_structural       Li2H8C6N14O2
_chemical_formula_sum              "Li2 H8 C6 N14 O2"
_cell_length_a       3.44309
_cell_length_b       9.85001
_cell_length_c       10.5699
_cell_angle_alpha    115.814
_cell_angle_beta     92.3897
_cell_angle_gamma    98.3197

_space_group_name_H-M_alt    "P 1"
_space_group_IT_number       1

loop_
  _space_group_symop_operation_xyz
  'x, y, z'

loop_
  _atom_site_type_symbol
  _atom_site_label
  _atom_site_symmetry_multiplicity
  _atom_site_fract_x
  _atom_site_fract_y
  _atom_site_fract_z
  _atom_site_occupancy
  Li  Li1       1.0  0.97978  0.67882  0.99976  1.0000
  Li  Li2       1.0  0.02022  0.32118  0.00024  1.0000
  H   H1        1.0  0.57947  0.88552  0.08567  1.0000
  H   H2        1.0  0.42054  0.11448  0.91433  1.0000
  H   H3        1.0  0.51778  0.80233  0.91363  1.0000
  H   H4        1.0  0.48222  0.19767  0.08636  1.0000
  H   H5        1.0  0.69700  0.52936  0.64864  1.0000
  H   H6        1.0  0.30300  0.47064  0.35137  1.0000
  H   H7        1.0  0.96698  0.12001  0.64636  1.0000
  H   H8        1.0  0.03302  0.87999  0.35364  1.0000
  C   C1        1.0  0.71939  0.22410  0.44960  1.0000
  C   C2        1.0  0.28061  0.77590  0.55040  1.0000
  C   C3        1.0  0.78435  0.44930  0.68526  1.0000
  C   C4        1.0  0.21565  0.55071  0.31473  1.0000
  C   C5        1.0  0.91974  0.23773  0.68393  1.0000
  C   C6        1.0  0.08026  0.76227  0.31607  1.0000
  N   N1        1.0  0.64165  0.05362  0.23883  1.0000
  N   N2        1.0  0.35835  0.94638  0.76117  1.0000
  N   N3        1.0  0.55111  0.17983  0.23986  1.0000
  N   N4        1.0  0.44889  0.82017  0.76014  1.0000
  N   N5        1.0  0.59728  0.29171  0.37320  1.0000
  N   N6        1.0  0.40272  0.70829  0.62680  1.0000
  N   N7        1.0  0.75053  0.07750  0.37138  1.0000
  N   N8        1.0  0.24947  0.92250  0.62861  1.0000
  N   N9        1.0  0.80535  0.29946  0.59724  1.0000
  N   N10       1.0  0.19465  0.70054  0.40276  1.0000
  N   N11       1.0  0.87974  0.47693  0.81722  1.0000
  N   N12       1.0  0.12026  0.52307  0.18278  1.0000
  N   N13       1.0  0.96547  0.34338  0.81639  1.0000
  N   N14       1.0  0.03454  0.65662  0.18361  1.0000
  O   O1        1.0  0.53015  0.78257  0.99957  1.0000
  O   O2        1.0  0.46985  0.21743  0.00043  1.0000
