data_image0
_chemical_formula_structural       Cd2H28C32N4O12
_chemical_formula_sum              "Cd2 H28 C32 N4 O12"
_cell_length_a       8.76099
_cell_length_b       8.76103
_cell_length_c       11.0299
_cell_angle_alpha    105.218
_cell_angle_beta     105.218
_cell_angle_gamma    97.8336

_space_group_name_H-M_alt    "P 1"
_space_group_IT_number       1

loop_
  _space_group_symop_operation_xyz
  'x, y, z'

loop_
  _atom_site_type_symbol
  _atom_site_label
  _atom_site_symmetry_multiplicity
  _atom_site_fract_x
  _atom_site_fract_y
  _atom_site_fract_z
  _atom_site_occupancy
  Cd  Cd1       1.0  0.56414  0.43587  0.75000  1.0000
  Cd  Cd2       1.0  0.43586  0.56413  0.25000  1.0000
  H   H1        1.0  0.67258  0.72112  0.72534  1.0000
  H   H2        1.0  0.27888  0.32742  0.77466  1.0000
  H   H3        1.0  0.32742  0.27888  0.27466  1.0000
  H   H4        1.0  0.72112  0.67258  0.22534  1.0000
  H   H5        1.0  0.68083  0.59945  0.58553  1.0000
  H   H6        1.0  0.40055  0.31917  0.91447  1.0000
  H   H7        1.0  0.31917  0.40055  0.41447  1.0000
  H   H8        1.0  0.59945  0.68083  0.08553  1.0000
  H   H9        1.0  0.76671  0.49584  0.06573  1.0000
  H   H10       1.0  0.50417  0.23330  0.43427  1.0000
  H   H11       1.0  0.23329  0.50416  0.93427  1.0000
  H   H12       1.0  0.49583  0.76670  0.56573  1.0000
  H   H13       1.0  0.98858  0.40247  0.20067  1.0000
  H   H14       1.0  0.59753  0.01142  0.29933  1.0000
  H   H15       1.0  0.01142  0.59752  0.79933  1.0000
  H   H16       1.0  0.40247  0.98858  0.70067  1.0000
  H   H17       1.0  0.11196  0.19041  0.08445  1.0000
  H   H18       1.0  0.80958  0.88804  0.41555  1.0000
  H   H19       1.0  0.88804  0.80959  0.91555  1.0000
  H   H20       1.0  0.19042  0.11196  0.58445  1.0000
  H   H21       1.0  0.11528  0.00064  0.87178  1.0000
  H   H22       1.0  0.99936  0.88472  0.62822  1.0000
  H   H23       1.0  0.88472  0.99936  0.12822  1.0000
  H   H24       1.0  0.00064  0.11528  0.37178  1.0000
  H   H25       1.0  0.12763  0.55917  0.44006  1.0000
  H   H26       1.0  0.44083  0.87237  0.05993  1.0000
  H   H27       1.0  0.87237  0.44083  0.55994  1.0000
  H   H28       1.0  0.55917  0.12763  0.94007  1.0000
  C   C1        1.0  0.82255  0.40413  0.01788  1.0000
  C   C2        1.0  0.59588  0.17745  0.48212  1.0000
  C   C3        1.0  0.17745  0.59587  0.98212  1.0000
  C   C4        1.0  0.40412  0.82255  0.51788  1.0000
  C   C5        1.0  0.94647  0.35026  0.09354  1.0000
  C   C6        1.0  0.64974  0.05353  0.40646  1.0000
  C   C7        1.0  0.05353  0.64974  0.90646  1.0000
  C   C8        1.0  0.35026  0.94647  0.59354  1.0000
  C   C9        1.0  0.01435  0.23376  0.02885  1.0000
  C   C10       1.0  0.76624  0.98565  0.47115  1.0000
  C   C11       1.0  0.98565  0.76624  0.97116  1.0000
  C   C12       1.0  0.23376  0.01435  0.52884  1.0000
  C   C13       1.0  0.95647  0.16974  0.88964  1.0000
  C   C14       1.0  0.83026  0.04353  0.61036  1.0000
  C   C15       1.0  0.04353  0.83026  0.11036  1.0000
  C   C16       1.0  0.16974  0.95647  0.38964  1.0000
  C   C17       1.0  0.01800  0.04531  0.81708  1.0000
  C   C18       1.0  0.95468  0.98200  0.68292  1.0000
  C   C19       1.0  0.98200  0.95468  0.18293  1.0000
  C   C20       1.0  0.04531  0.01800  0.31708  1.0000
  C   C21       1.0  0.83060  0.23166  0.82132  1.0000
  C   C22       1.0  0.76834  0.16940  0.67868  1.0000
  C   C23       1.0  0.16940  0.76834  0.17867  1.0000
  C   C24       1.0  0.23166  0.83060  0.32132  1.0000
  C   C25       1.0  0.19042  0.43957  0.59495  1.0000
  C   C26       1.0  0.56043  0.80959  0.90505  1.0000
  C   C27       1.0  0.80958  0.56043  0.40505  1.0000
  C   C28       1.0  0.43957  0.19042  0.09495  1.0000
  C   C29       1.0  0.07810  0.50420  0.50343  1.0000
  C   C30       1.0  0.49579  0.92190  0.99657  1.0000
  C   C31       1.0  0.92190  0.49579  0.49657  1.0000
  C   C32       1.0  0.50421  0.07811  0.00343  1.0000
  N   N1        1.0  0.76741  0.34788  0.88633  1.0000
  N   N2        1.0  0.65213  0.23259  0.61367  1.0000
  N   N3        1.0  0.23259  0.65212  0.11367  1.0000
  N   N4        1.0  0.34787  0.76741  0.38633  1.0000
  O   O1        1.0  0.33174  0.43885  0.57944  1.0000
  O   O2        1.0  0.56115  0.66827  0.92056  1.0000
  O   O3        1.0  0.66826  0.56115  0.42056  1.0000
  O   O4        1.0  0.43885  0.33174  0.07944  1.0000
  O   O5        1.0  0.14282  0.38982  0.67935  1.0000
  O   O6        1.0  0.61018  0.85718  0.82065  1.0000
  O   O7        1.0  0.85718  0.61017  0.32065  1.0000
  O   O8        1.0  0.38983  0.14282  0.17935  1.0000
  O   O9        1.0  0.70775  0.62077  0.68297  1.0000
  O   O10       1.0  0.37923  0.29226  0.81703  1.0000
  O   O11       1.0  0.29225  0.37923  0.31703  1.0000
  O   O12       1.0  0.62077  0.70774  0.18297  1.0000
