data_image0
_chemical_formula_structural       Cd2H20C16S4N10Cl2O4
_chemical_formula_sum              "Cd2 H20 C16 S4 N10 Cl2 O4"
_cell_length_a       6.97747
_cell_length_b       9.28602
_cell_length_c       10.3316
_cell_angle_alpha    90.0003
_cell_angle_beta     90.0006
_cell_angle_gamma    106.136

_space_group_name_H-M_alt    "P 1"
_space_group_IT_number       1

loop_
  _space_group_symop_operation_xyz
  'x, y, z'

loop_
  _atom_site_type_symbol
  _atom_site_label
  _atom_site_symmetry_multiplicity
  _atom_site_fract_x
  _atom_site_fract_y
  _atom_site_fract_z
  _atom_site_occupancy
  Cd  Cd1       1.0  0.42520  0.56690  0.90054  1.0000
  Cd  Cd2       1.0  0.57480  0.43310  0.40054  1.0000
  H   H1        1.0  0.80476  0.64120  0.10732  1.0000
  H   H2        1.0  0.19525  0.35880  0.60732  1.0000
  H   H3        1.0  0.06552  0.70579  0.08428  1.0000
  H   H4        1.0  0.93449  0.29421  0.58428  1.0000
  H   H5        1.0  0.95653  0.62876  0.60883  1.0000
  H   H6        1.0  0.04346  0.37125  0.10883  1.0000
  H   H7        1.0  0.03475  0.55271  0.74783  1.0000
  H   H8        1.0  0.96525  0.44730  0.24784  1.0000
  H   H9        1.0  0.74058  0.43428  0.94600  1.0000
  H   H10       1.0  0.25942  0.56572  0.44600  1.0000
  H   H11       1.0  0.53121  0.32691  0.00474  1.0000
  H   H12       1.0  0.46879  0.67309  0.50474  1.0000
  H   H13       1.0  0.95165  0.07462  0.72411  1.0000
  H   H14       1.0  0.04835  0.92538  0.22410  1.0000
  H   H15       1.0  0.60872  0.06689  0.60394  1.0000
  H   H16       1.0  0.39128  0.93311  0.10394  1.0000
  H   H17       1.0  0.44170  0.19486  0.81775  1.0000
  H   H18       1.0  0.55830  0.80515  0.31776  1.0000
  H   H19       1.0  0.70523  0.23049  0.81644  1.0000
  H   H20       1.0  0.29477  0.76952  0.31644  1.0000
  C   C1        1.0  0.72331  0.87945  0.80745  1.0000
  C   C2        1.0  0.27669  0.12055  0.30745  1.0000
  C   C3        1.0  0.90544  0.98281  0.79254  1.0000
  C   C4        1.0  0.09456  0.01719  0.29253  1.0000
  C   C5        1.0  0.89118  0.79560  0.96306  1.0000
  C   C6        1.0  0.10882  0.20440  0.46307  1.0000
  C   C7        1.0  0.54119  0.86766  0.73369  1.0000
  C   C8        1.0  0.45881  0.13233  0.23369  1.0000
  C   C9        1.0  0.50983  0.96239  0.63915  1.0000
  C   C10       1.0  0.49017  0.03761  0.13915  1.0000
  C   C11       1.0  0.22165  0.74768  0.68492  1.0000
  C   C12       1.0  0.77834  0.25232  0.18492  1.0000
  C   C13       1.0  0.58486  0.36273  0.68353  1.0000
  C   C14       1.0  0.41515  0.63729  0.18353  1.0000
  C   C15       1.0  0.58351  0.28396  0.81361  1.0000
  C   C16       1.0  0.41649  0.71604  0.31362  1.0000
  S   S1        1.0  0.07298  0.95214  0.90414  1.0000
  S   S2        1.0  0.92701  0.04786  0.40414  1.0000
  S   S3        1.0  0.26951  0.90149  0.58052  1.0000
  S   S4        1.0  0.73048  0.09851  0.08052  1.0000
  N   N1        1.0  0.71719  0.77394  0.90382  1.0000
  N   N2        1.0  0.28282  0.22606  0.40382  1.0000
  N   N3        1.0  0.92476  0.71360  0.06379  1.0000
  N   N4        1.0  0.07525  0.28640  0.56379  1.0000
  N   N5        1.0  0.37682  0.74650  0.75845  1.0000
  N   N6        1.0  0.62318  0.25350  0.25846  1.0000
  N   N7        1.0  0.04221  0.64468  0.69086  1.0000
  N   N8        1.0  0.95778  0.35532  0.19086  1.0000
  N   N9        1.0  0.59333  0.38528  0.92424  1.0000
  N   N10       1.0  0.40667  0.61472  0.42424  1.0000
  Cl  Cl1       1.0  0.07814  0.37580  0.88939  1.0000
  Cl  Cl2       1.0  0.92186  0.62420  0.38940  1.0000
  O   O1        1.0  0.48929  0.45970  0.67205  1.0000
  O   O2        1.0  0.51072  0.54030  0.17205  1.0000
  O   O3        1.0  0.67683  0.32066  0.58972  1.0000
  O   O4        1.0  0.32318  0.67935  0.08971  1.0000
