data_image0
_chemical_formula_structural       Ag2H22C22S2N4O6
_chemical_formula_sum              "Ag2 H22 C22 S2 N4 O6"
_cell_length_a       7.08593
_cell_length_b       8.19886
_cell_length_c       11.2549
_cell_angle_alpha    81.4119
_cell_angle_beta     73.8007
_cell_angle_gamma    66.7923

_space_group_name_H-M_alt    "P 1"
_space_group_IT_number       1

loop_
  _space_group_symop_operation_xyz
  'x, y, z'

loop_
  _atom_site_type_symbol
  _atom_site_label
  _atom_site_symmetry_multiplicity
  _atom_site_fract_x
  _atom_site_fract_y
  _atom_site_fract_z
  _atom_site_occupancy
  Ag  Ag1       1.0  0.47121  0.37998  0.62662  1.0000
  Ag  Ag2       1.0  0.52879  0.62003  0.37339  1.0000
  H   H1        1.0  0.95071  0.08479  0.89073  1.0000
  H   H2        1.0  0.04929  0.91520  0.10927  1.0000
  H   H3        1.0  0.01975  0.27957  0.00902  1.0000
  H   H4        1.0  0.98024  0.72042  0.99099  1.0000
  H   H5        1.0  0.67618  0.08564  0.80789  1.0000
  H   H6        1.0  0.32381  0.91437  0.19211  1.0000
  H   H7        1.0  0.60610  0.89551  0.69176  1.0000
  H   H8        1.0  0.39391  0.10450  0.30824  1.0000
  H   H9        1.0  0.56241  0.30273  0.95903  1.0000
  H   H10       1.0  0.43758  0.69728  0.04097  1.0000
  H   H11       1.0  0.35618  0.28518  0.08557  1.0000
  H   H12       1.0  0.64381  0.71483  0.91443  1.0000
  H   H13       1.0  0.30093  0.45965  0.96963  1.0000
  H   H14       1.0  0.69906  0.54036  0.03038  1.0000
  H   H15       1.0  0.99981  0.57138  0.76113  1.0000
  H   H16       1.0  0.00019  0.42863  0.23887  1.0000
  H   H17       1.0  0.64417  0.55696  0.76620  1.0000
  H   H18       1.0  0.35584  0.44303  0.23380  1.0000
  H   H19       1.0  0.94705  0.17016  0.50378  1.0000
  H   H20       1.0  0.05296  0.82985  0.49621  1.0000
  H   H21       1.0  0.30024  0.18044  0.50241  1.0000
  H   H22       1.0  0.69977  0.81956  0.49759  1.0000
  C   C1        1.0  0.27316  0.97783  0.78411  1.0000
  C   C2        1.0  0.72684  0.02217  0.21589  1.0000
  C   C3        1.0  0.10853  0.08778  0.87251  1.0000
  C   C4        1.0  0.89147  0.91222  0.12748  1.0000
  C   C5        1.0  0.14823  0.19795  0.93772  1.0000
  C   C6        1.0  0.85176  0.80206  0.06227  1.0000
  C   C7        1.0  0.35161  0.20182  0.91517  1.0000
  C   C8        1.0  0.64839  0.79818  0.08484  1.0000
  C   C9        1.0  0.51436  0.09168  0.82529  1.0000
  C   C10       1.0  0.48563  0.90833  0.17471  1.0000
  C   C11       1.0  0.47637  0.97994  0.76046  1.0000
  C   C12       1.0  0.52363  0.02006  0.23953  1.0000
  C   C13       1.0  0.39500  0.31908  0.98596  1.0000
  C   C14       1.0  0.60499  0.68092  0.01404  1.0000
  C   C15       1.0  0.98622  0.48103  0.70497  1.0000
  C   C16       1.0  0.01379  0.51896  0.29503  1.0000
  C   C17       1.0  0.79238  0.47386  0.70747  1.0000
  C   C18       1.0  0.20763  0.52614  0.29254  1.0000
  C   C19       1.0  0.95831  0.25821  0.56269  1.0000
  C   C20       1.0  0.04170  0.74178  0.43731  1.0000
  C   C21       1.0  0.15260  0.26509  0.56055  1.0000
  C   C22       1.0  0.84740  0.73490  0.43945  1.0000
  S   S1        1.0  0.22903  0.82571  0.70709  1.0000
  S   S2        1.0  0.77098  0.17429  0.29291  1.0000
  N   N1        1.0  0.16556  0.37961  0.62888  1.0000
  N   N2        1.0  0.83444  0.62038  0.37112  1.0000
  N   N3        1.0  0.77829  0.36572  0.63407  1.0000
  N   N4        1.0  0.22172  0.63427  0.36593  1.0000
  O   O1        1.0  0.28200  0.65772  0.78337  1.0000
  O   O2        1.0  0.71800  0.34227  0.21662  1.0000
  O   O3        1.0  0.00549  0.90170  0.70312  1.0000
  O   O4        1.0  0.99452  0.09830  0.29687  1.0000
  O   O5        1.0  0.37628  0.80940  0.58343  1.0000
  O   O6        1.0  0.62373  0.19060  0.41657  1.0000
