data_image0
_chemical_formula_structural       K2H24C16N4O6
_chemical_formula_sum              "K2 H24 C16 N4 O6"
_cell_length_a       7.07067
_cell_length_b       6.82922
_cell_length_c       11.6449
_cell_angle_alpha    97.1094
_cell_angle_beta     90.229
_cell_angle_gamma    116.971

_space_group_name_H-M_alt    "P 1"
_space_group_IT_number       1

loop_
  _space_group_symop_operation_xyz
  'x, y, z'

loop_
  _atom_site_type_symbol
  _atom_site_label
  _atom_site_symmetry_multiplicity
  _atom_site_fract_x
  _atom_site_fract_y
  _atom_site_fract_z
  _atom_site_occupancy
  K   K1        1.0  0.24979  0.00232  0.50504  1.0000
  K   K2        1.0  0.75021  0.99766  0.49496  1.0000
  H   H1        1.0  0.73791  0.01202  0.22101  1.0000
  H   H2        1.0  0.26210  0.98797  0.77899  1.0000
  H   H3        1.0  0.83407  0.15015  0.09780  1.0000
  H   H4        1.0  0.16593  0.84986  0.90220  1.0000
  H   H5        1.0  0.83307  0.30291  0.23441  1.0000
  H   H6        1.0  0.16693  0.69709  0.76560  1.0000
  H   H7        1.0  0.97588  0.84433  0.20322  1.0000
  H   H8        1.0  0.02412  0.15567  0.79677  1.0000
  H   H9        1.0  0.25534  0.99896  0.20523  1.0000
  H   H10       1.0  0.74466  0.00103  0.79476  1.0000
  H   H11       1.0  0.09521  0.97250  0.07977  1.0000
  H   H12       1.0  0.90480  0.02751  0.92022  1.0000
  H   H13       1.0  0.59984  0.59049  0.17747  1.0000
  H   H14       1.0  0.40016  0.40952  0.82254  1.0000
  H   H15       1.0  0.46670  0.31800  0.09816  1.0000
  H   H16       1.0  0.53332  0.68202  0.90184  1.0000
  H   H17       1.0  0.52293  0.35688  0.25193  1.0000
  H   H18       1.0  0.47707  0.64313  0.74807  1.0000
  H   H19       1.0  0.06318  0.53974  0.11480  1.0000
  H   H20       1.0  0.93682  0.46026  0.88520  1.0000
  H   H21       1.0  0.19081  0.42163  0.01813  1.0000
  H   H22       1.0  0.80919  0.57838  0.98187  1.0000
  H   H23       1.0  0.33988  0.69099  0.09772  1.0000
  H   H24       1.0  0.66012  0.30902  0.90229  1.0000
  C   C1        1.0  0.08253  0.19656  0.22597  1.0000
  C   C2        1.0  0.91747  0.80344  0.77403  1.0000
  C   C3        1.0  0.85838  0.16456  0.19233  1.0000
  C   C4        1.0  0.14163  0.83544  0.80767  1.0000
  C   C5        1.0  0.10511  0.99183  0.17504  1.0000
  C   C6        1.0  0.89490  0.00818  0.82495  1.0000
  C   C7        1.0  0.26225  0.42296  0.19793  1.0000
  C   C8        1.0  0.73775  0.57704  0.80208  1.0000
  C   C9        1.0  0.47615  0.42025  0.18056  1.0000
  C   C10       1.0  0.52385  0.57976  0.81945  1.0000
  C   C11       1.0  0.20941  0.52476  0.10162  1.0000
  C   C12       1.0  0.79059  0.47524  0.89838  1.0000
  C   C13       1.0  0.20624  0.42531  0.39740  1.0000
  C   C14       1.0  0.79375  0.57467  0.60260  1.0000
  C   C15       1.0  0.24235  0.50095  0.52882  1.0000
  C   C16       1.0  0.75765  0.49904  0.47118  1.0000
  N   N1        1.0  0.09806  0.21681  0.35378  1.0000
  N   N2        1.0  0.90194  0.78318  0.64621  1.0000
  N   N3        1.0  0.29076  0.56378  0.31319  1.0000
  N   N4        1.0  0.70923  0.43622  0.68682  1.0000
  O   O1        1.0  0.39284  0.77487  0.32569  1.0000
  O   O2        1.0  0.60715  0.22513  0.67431  1.0000
  O   O3        1.0  0.13456  0.35112  0.58907  1.0000
  O   O4        1.0  0.86544  0.64887  0.41093  1.0000
  O   O5        1.0  0.37642  0.69939  0.56363  1.0000
  O   O6        1.0  0.62358  0.30060  0.43637  1.0000
