data_image0
_chemical_formula_structural       Hg2H28C30N4Cl4O8
_chemical_formula_sum              "Hg2 H28 C30 N4 Cl4 O8"
_cell_length_a       7.79562
_cell_length_b       7.83642
_cell_length_c       15.0877
_cell_angle_alpha    77.3657
_cell_angle_beta     80.3941
_cell_angle_gamma    77.0751

_space_group_name_H-M_alt    "P 1"
_space_group_IT_number       1

loop_
  _space_group_symop_operation_xyz
  'x, y, z'

loop_
  _atom_site_type_symbol
  _atom_site_label
  _atom_site_symmetry_multiplicity
  _atom_site_fract_x
  _atom_site_fract_y
  _atom_site_fract_z
  _atom_site_occupancy
  Hg  Hg1       1.0  0.02609  0.90291  0.27282  1.0000
  Hg  Hg2       1.0  0.97391  0.09709  0.72718  1.0000
  H   H1        1.0  0.94572  0.49986  0.34785  1.0000
  H   H2        1.0  0.05428  0.50014  0.65215  1.0000
  H   H3        1.0  0.78659  0.30812  0.47591  1.0000
  H   H4        1.0  0.21341  0.69188  0.52409  1.0000
  H   H5        1.0  0.60340  0.76695  0.60532  1.0000
  H   H6        1.0  0.39660  0.23305  0.39468  1.0000
  H   H7        1.0  0.77277  0.93998  0.47286  1.0000
  H   H8        1.0  0.22723  0.06002  0.52714  1.0000
  H   H9        1.0  0.49812  0.30072  0.80245  1.0000
  H   H10       1.0  0.50188  0.69928  0.19755  1.0000
  H   H11       1.0  0.31634  0.32114  0.74046  1.0000
  H   H12       1.0  0.68365  0.67886  0.25954  1.0000
  H   H13       1.0  0.36492  0.61107  0.83635  1.0000
  H   H14       1.0  0.63508  0.38893  0.16365  1.0000
  H   H15       1.0  0.17503  0.61131  0.78605  1.0000
  H   H16       1.0  0.82497  0.38869  0.21395  1.0000
  H   H17       1.0  0.11056  0.52908  0.95037  1.0000
  H   H18       1.0  0.88944  0.47092  0.04963  1.0000
  H   H19       1.0  0.12640  0.33304  0.90547  1.0000
  H   H20       1.0  0.87360  0.66695  0.09453  1.0000
  H   H21       1.0  0.65652  0.17847  0.97665  1.0000
  H   H22       1.0  0.34348  0.82153  0.02335  1.0000
  H   H23       1.0  0.91158  0.04470  0.06720  1.0000
  H   H24       1.0  0.08842  0.95530  0.93279  1.0000
  H   H25       1.0  0.57923  0.00486  0.31233  1.0000
  H   H26       1.0  0.42079  0.99513  0.68767  1.0000
  H   H27       1.0  0.30879  0.13895  0.23325  1.0000
  H   H28       1.0  0.69122  0.86106  0.76675  1.0000
  C   C1        1.0  0.86692  0.55418  0.40591  1.0000
  C   C2        1.0  0.13307  0.44581  0.59409  1.0000
  C   C3        1.0  0.77863  0.44810  0.47687  1.0000
  C   C4        1.0  0.22136  0.55190  0.52313  1.0000
  C   C5        1.0  0.67992  0.52449  0.54963  1.0000
  C   C6        1.0  0.32008  0.47551  0.45037  1.0000
  C   C7        1.0  0.67570  0.70397  0.54908  1.0000
  C   C8        1.0  0.32430  0.29603  0.45092  1.0000
  C   C9        1.0  0.76872  0.80056  0.47551  1.0000
  C   C10       1.0  0.23128  0.19943  0.52449  1.0000
  C   C11       1.0  0.58523  0.40884  0.62514  1.0000
  C   C12       1.0  0.41476  0.59117  0.37486  1.0000
  C   C13       1.0  0.39568  0.39589  0.76543  1.0000
  C   C14       1.0  0.60431  0.60410  0.23457  1.0000
  C   C15       1.0  0.28257  0.52496  0.82305  1.0000
  C   C16       1.0  0.71742  0.47504  0.17696  1.0000
  C   C17       1.0  0.20045  0.43166  0.91340  1.0000
  C   C18       1.0  0.79955  0.56834  0.08660  1.0000
  C   C19       1.0  0.30144  0.24493  0.05005  1.0000
  C   C20       1.0  0.69857  0.75507  0.94995  1.0000
  C   C21       1.0  0.46164  0.16631  0.09851  1.0000
  C   C22       1.0  0.53836  0.83369  0.90149  1.0000
  C   C23       1.0  0.63303  0.14025  0.05089  1.0000
  C   C24       1.0  0.36697  0.85976  0.94911  1.0000
  C   C25       1.0  0.77546  0.06595  0.10081  1.0000
  C   C26       1.0  0.22455  0.93405  0.89919  1.0000
  C   C27       1.0  0.59047  0.04612  0.23810  1.0000
  C   C28       1.0  0.40954  0.95389  0.76190  1.0000
  C   C29       1.0  0.43997  0.11819  0.19394  1.0000
  C   C30       1.0  0.56004  0.88181  0.80606  1.0000
  N   N1        1.0  0.86089  0.72723  0.40509  1.0000
  N   N2        1.0  0.13911  0.27277  0.59491  1.0000
  N   N3        1.0  0.75459  0.01994  0.19260  1.0000
  N   N4        1.0  0.24541  0.98006  0.80739  1.0000
  Cl  Cl1       1.0  0.15521  0.67890  0.18290  1.0000
  Cl  Cl2       1.0  0.84480  0.32110  0.81710  1.0000
  Cl  Cl3       1.0  0.02249  0.13964  0.34965  1.0000
  Cl  Cl4       1.0  0.97751  0.86036  0.65035  1.0000
  O   O1        1.0  0.59781  0.24858  0.62893  1.0000
  O   O2        1.0  0.40219  0.75143  0.37107  1.0000
  O   O3        1.0  0.48552  0.50083  0.68727  1.0000
  O   O4        1.0  0.51447  0.49917  0.31274  1.0000
  O   O5        1.0  0.34515  0.34152  0.96742  1.0000
  O   O6        1.0  0.65485  0.65848  0.03259  1.0000
  O   O7        1.0  0.15073  0.22372  0.08215  1.0000
  O   O8        1.0  0.84927  0.77628  0.91786  1.0000
