data_image0
_chemical_formula_structural       Ga2P4H22C24N4O16
_chemical_formula_sum              "Ga2 P4 H22 C24 N4 O16"
_cell_length_a       7.83563
_cell_length_b       8.68833
_cell_length_c       12.0752
_cell_angle_alpha    108.381
_cell_angle_beta     106.05
_cell_angle_gamma    97.2471

_space_group_name_H-M_alt    "P 1"
_space_group_IT_number       1

loop_
  _space_group_symop_operation_xyz
  'x, y, z'

loop_
  _atom_site_type_symbol
  _atom_site_label
  _atom_site_symmetry_multiplicity
  _atom_site_fract_x
  _atom_site_fract_y
  _atom_site_fract_z
  _atom_site_occupancy
  Ga  Ga1       1.0  0.06298  0.31666  0.62778  1.0000
  Ga  Ga2       1.0  0.93707  0.68329  0.37223  1.0000
  P   P1        1.0  0.85581  0.60723  0.60964  1.0000
  P   P2        1.0  0.25291  0.00364  0.60842  1.0000
  P   P3        1.0  0.14416  0.39267  0.39035  1.0000
  P   P4        1.0  0.74708  0.99630  0.39160  1.0000
  H   H1        1.0  0.00362  0.21134  0.08400  1.0000
  H   H2        1.0  0.57874  0.87103  0.08227  1.0000
  H   H3        1.0  0.99639  0.78867  0.91602  1.0000
  H   H4        1.0  0.42127  0.12895  0.91772  1.0000
  H   H5        1.0  0.81196  0.99567  0.87372  1.0000
  H   H6        1.0  0.56265  0.87648  0.87195  1.0000
  H   H7        1.0  0.18805  0.00434  0.12630  1.0000
  H   H8        1.0  0.43734  0.12351  0.12804  1.0000
  H   H9        1.0  0.83057  0.04037  0.68305  1.0000
  H   H10       1.0  0.35329  0.64245  0.68159  1.0000
  H   H11       1.0  0.16943  0.95962  0.31697  1.0000
  H   H12       1.0  0.64669  0.35754  0.31840  1.0000
  H   H13       1.0  0.24533  0.48496  0.20484  1.0000
  H   H14       1.0  0.45737  0.71796  0.20451  1.0000
  H   H15       1.0  0.75469  0.51505  0.79517  1.0000
  H   H16       1.0  0.54265  0.28203  0.79548  1.0000
  H   H17       1.0  0.11709  0.86556  0.71198  1.0000
  H   H18       1.0  0.88287  0.13443  0.28803  1.0000
  H   H19       1.0  0.58078  0.62376  0.52602  1.0000
  H   H20       1.0  0.44680  0.89559  0.53109  1.0000
  H   H21       1.0  0.41953  0.37698  0.47411  1.0000
  H   H22       1.0  0.55327  0.10485  0.46872  1.0000
  C   C1        1.0  0.13458  0.37617  0.89024  1.0000
  C   C2        1.0  0.25531  0.51447  0.89007  1.0000
  C   C3        1.0  0.86543  0.62382  0.10976  1.0000
  C   C4        1.0  0.74470  0.48553  0.10993  1.0000
  C   C5        1.0  0.13189  0.36410  0.00397  1.0000
  C   C6        1.0  0.37105  0.63935  0.00350  1.0000
  C   C7        1.0  0.86811  0.63590  0.99603  1.0000
  C   C8        1.0  0.62896  0.36065  0.99650  1.0000
  C   C9        1.0  0.01130  0.22382  0.99798  1.0000
  C   C10       1.0  0.48566  0.77302  0.99672  1.0000
  C   C11       1.0  0.98870  0.77619  0.00203  1.0000
  C   C12       1.0  0.51434  0.22697  0.00327  1.0000
  C   C13       1.0  0.90456  0.10681  0.88305  1.0000
  C   C14       1.0  0.47857  0.77533  0.88157  1.0000
  C   C15       1.0  0.09544  0.89319  0.11696  1.0000
  C   C16       1.0  0.52142  0.22466  0.11842  1.0000
  C   C17       1.0  0.91418  0.12949  0.77457  1.0000
  C   C18       1.0  0.36082  0.64528  0.77349  1.0000
  C   C19       1.0  0.08582  0.87051  0.22544  1.0000
  C   C20       1.0  0.63918  0.35470  0.22651  1.0000
  C   C21       1.0  0.25021  0.49227  0.11737  1.0000
  C   C22       1.0  0.36569  0.62390  0.11716  1.0000
  C   C23       1.0  0.74979  0.50773  0.88263  1.0000
  C   C24       1.0  0.63432  0.37609  0.88283  1.0000
  N   N1        1.0  0.02589  0.26137  0.77879  1.0000
  N   N2        1.0  0.25306  0.51847  0.77850  1.0000
  N   N3        1.0  0.97412  0.73862  0.22121  1.0000
  N   N4        1.0  0.74695  0.48151  0.22150  1.0000
  O   O1        1.0  0.86630  0.44208  0.63017  1.0000
  O   O2        1.0  0.26168  0.18785  0.63061  1.0000
  O   O3        1.0  0.13373  0.55785  0.36985  1.0000
  O   O4        1.0  0.73833  0.81208  0.36938  1.0000
  O   O5        1.0  0.98889  0.75732  0.71793  1.0000
  O   O6        1.0  0.23099  0.96362  0.72079  1.0000
  O   O7        1.0  0.01099  0.24264  0.28205  1.0000
  O   O8        1.0  0.76892  0.03639  0.27923  1.0000
  O   O9        1.0  0.12023  0.88420  0.48376  1.0000
  O   O10       1.0  0.85840  0.59517  0.48124  1.0000
  O   O11       1.0  0.87976  0.11577  0.51624  1.0000
  O   O12       1.0  0.14156  0.40483  0.51877  1.0000
  O   O13       1.0  0.65079  0.62816  0.60801  1.0000
  O   O14       1.0  0.45582  0.98194  0.60869  1.0000
  O   O15       1.0  0.34901  0.37141  0.39187  1.0000
  O   O16       1.0  0.54414  0.01783  0.39141  1.0000
