data_image0
_chemical_formula_structural       Ga4P8H44C48N8O32
_chemical_formula_sum              "Ga4 P8 H44 C48 N8 O32"
_cell_length_a       6.44996
_cell_length_b       13.8305
_cell_length_c       18.0202
_cell_angle_alpha    78.0591
_cell_angle_beta     79.701
_cell_angle_gamma    76.4957

_space_group_name_H-M_alt    "P 1"
_space_group_IT_number       1

loop_
  _space_group_symop_operation_xyz
  'x, y, z'

loop_
  _atom_site_type_symbol
  _atom_site_label
  _atom_site_symmetry_multiplicity
  _atom_site_fract_x
  _atom_site_fract_y
  _atom_site_fract_z
  _atom_site_occupancy
  Ga  Ga1       1.0  0.94327  0.87988  0.78741  1.0000
  Ga  Ga2       1.0  0.61071  0.62011  0.71254  1.0000
  Ga  Ga3       1.0  0.05674  0.12012  0.21259  1.0000
  Ga  Ga4       1.0  0.38929  0.37989  0.28747  1.0000
  P   P1        1.0  0.46035  0.82275  0.80098  1.0000
  P   P2        1.0  0.08413  0.67730  0.69894  1.0000
  P   P3        1.0  0.53965  0.17725  0.19902  1.0000
  P   P4        1.0  0.91588  0.32270  0.30106  1.0000
  P   P5        1.0  0.85909  0.99262  0.61915  1.0000
  P   P6        1.0  0.47113  0.50739  0.88079  1.0000
  P   P7        1.0  0.14092  0.00738  0.38085  1.0000
  P   P8        1.0  0.52887  0.49261  0.11921  1.0000
  H   H1        1.0  0.45199  0.69518  0.89920  1.0000
  H   H2        1.0  0.04635  0.80488  0.60071  1.0000
  H   H3        1.0  0.54801  0.30483  0.10080  1.0000
  H   H4        1.0  0.95365  0.19511  0.39928  1.0000
  H   H5        1.0  0.58316  0.97101  0.70128  1.0000
  H   H6        1.0  0.25578  0.52893  0.79862  1.0000
  H   H7        1.0  0.41685  0.02898  0.29872  1.0000
  H   H8        1.0  0.74422  0.47107  0.20138  1.0000
  H   H9        1.0  0.97154  0.09026  0.51491  1.0000
  H   H10       1.0  0.57694  0.40974  0.98510  1.0000
  H   H11       1.0  0.02847  0.90973  0.48509  1.0000
  H   H12       1.0  0.42305  0.59026  0.01490  1.0000
  H   H13       1.0  0.82446  0.12004  0.75949  1.0000
  H   H14       1.0  0.70461  0.37995  0.74054  1.0000
  H   H15       1.0  0.17554  0.87996  0.24051  1.0000
  H   H16       1.0  0.29541  0.62005  0.25945  1.0000
  H   H17       1.0  0.70039  0.25325  0.84566  1.0000
  H   H18       1.0  0.80015  0.24666  0.65444  1.0000
  H   H19       1.0  0.29961  0.74675  0.15433  1.0000
  H   H20       1.0  0.19986  0.75333  0.34556  1.0000
  H   H21       1.0  0.65056  0.19749  0.98709  1.0000
  H   H22       1.0  0.83542  0.30229  0.51300  1.0000
  H   H23       1.0  0.34943  0.80251  0.01290  1.0000
  H   H24       1.0  0.16458  0.69771  0.48700  1.0000
  H   H25       1.0  0.67603  0.05091  0.09980  1.0000
  H   H26       1.0  0.82659  0.44880  0.40026  1.0000
  H   H27       1.0  0.32396  0.94910  0.90020  1.0000
  H   H28       1.0  0.17339  0.55120  0.59974  1.0000
  H   H29       1.0  0.74031  0.86798  0.14680  1.0000
  H   H30       1.0  0.75539  0.63169  0.35316  1.0000
  H   H31       1.0  0.25967  0.13203  0.85320  1.0000
  H   H32       1.0  0.24460  0.36831  0.64684  1.0000
  H   H33       1.0  0.83936  0.68634  0.11667  1.0000
  H   H34       1.0  0.64330  0.81340  0.38322  1.0000
  H   H35       1.0  0.16062  0.31366  0.88333  1.0000
  H   H36       1.0  0.35671  0.18659  0.61678  1.0000
  H   H37       1.0  0.94522  0.57763  0.01772  1.0000
  H   H38       1.0  0.54120  0.92221  0.48210  1.0000
  H   H39       1.0  0.05476  0.42238  0.98229  1.0000
  H   H40       1.0  0.45882  0.07778  0.51790  1.0000
  H   H41       1.0  0.98312  0.65733  0.87822  1.0000
  H   H42       1.0  0.51865  0.84259  0.62164  1.0000
  H   H43       1.0  0.01687  0.34267  0.12179  1.0000
  H   H44       1.0  0.48137  0.15740  0.37837  1.0000
  C   C1        1.0  0.79798  0.10027  0.82177  1.0000
  C   C2        1.0  0.72054  0.39966  0.67826  1.0000
  C   C3        1.0  0.20201  0.89974  0.17822  1.0000
  C   C4        1.0  0.27947  0.60034  0.32174  1.0000
  C   C5        1.0  0.73061  0.17309  0.86981  1.0000
  C   C6        1.0  0.77408  0.32680  0.63027  1.0000
  C   C7        1.0  0.26938  0.82691  0.13019  1.0000
  C   C8        1.0  0.22592  0.67320  0.36973  1.0000
  C   C9        1.0  0.70312  0.14253  0.94857  1.0000
  C   C10       1.0  0.79450  0.35728  0.55151  1.0000
  C   C11       1.0  0.29687  0.85747  0.05143  1.0000
  C   C12       1.0  0.20550  0.64271  0.44849  1.0000
  C   C13       1.0  0.74228  0.03849  0.97914  1.0000
  C   C14       1.0  0.76001  0.46132  0.52089  1.0000
  C   C15       1.0  0.25772  0.96152  0.02086  1.0000
  C   C16       1.0  0.23998  0.53868  0.47911  1.0000
  C   C17       1.0  0.72042  0.99863  0.05947  1.0000
  C   C18       1.0  0.77849  0.50114  0.44054  1.0000
  C   C19       1.0  0.27958  0.00138  0.94052  1.0000
  C   C20       1.0  0.22149  0.49886  0.55946  1.0000
  C   C21       1.0  0.75782  0.89686  0.08545  1.0000
  C   C22       1.0  0.74027  0.60288  0.41453  1.0000
  C   C23       1.0  0.24217  0.10315  0.91455  1.0000
  C   C24       1.0  0.25972  0.39712  0.58547  1.0000
  C   C25       1.0  0.82043  0.82631  0.03350  1.0000
  C   C26       1.0  0.68054  0.67349  0.46642  1.0000
  C   C27       1.0  0.17956  0.17370  0.96650  1.0000
  C   C28       1.0  0.31946  0.32651  0.53358  1.0000
  C   C29       1.0  0.85828  0.72027  0.05623  1.0000
  C   C30       1.0  0.63532  0.77950  0.44366  1.0000
  C   C31       1.0  0.14171  0.27973  0.94377  1.0000
  C   C32       1.0  0.36469  0.22049  0.55634  1.0000
  C   C33       1.0  0.91672  0.65923  0.00116  1.0000
  C   C34       1.0  0.57758  0.84060  0.49869  1.0000
  C   C35       1.0  0.08327  0.34078  0.99885  1.0000
  C   C36       1.0  0.42244  0.15940  0.50131  1.0000
  C   C37       1.0  0.93923  0.70283  0.92330  1.0000
  C   C38       1.0  0.56549  0.79706  0.57657  1.0000
  C   C39       1.0  0.06076  0.29717  0.07670  1.0000
  C   C40       1.0  0.43452  0.20294  0.42343  1.0000
  C   C41       1.0  0.84677  0.86370  0.95385  1.0000
  C   C42       1.0  0.66436  0.63615  0.54610  1.0000
  C   C43       1.0  0.15322  0.13630  0.04615  1.0000
  C   C44       1.0  0.33565  0.36385  0.45390  1.0000
  C   C45       1.0  0.80751  0.97049  0.92635  1.0000
  C   C46       1.0  0.70444  0.52937  0.57363  1.0000
  C   C47       1.0  0.19249  0.02951  0.07365  1.0000
  C   C48       1.0  0.29555  0.47062  0.42637  1.0000
  N   N1        1.0  0.83488  0.00178  0.84964  1.0000
  N   N2        1.0  0.68653  0.49814  0.65036  1.0000
  N   N3        1.0  0.16512  0.99822  0.15036  1.0000
  N   N4        1.0  0.31347  0.50186  0.34964  1.0000
  N   N5        1.0  0.90657  0.80236  0.90087  1.0000
  N   N6        1.0  0.60983  0.69754  0.59904  1.0000
  N   N7        1.0  0.09343  0.19765  0.09913  1.0000
  N   N8        1.0  0.39017  0.30246  0.40096  1.0000
  O   O1        1.0  0.61886  0.89642  0.78168  1.0000
  O   O2        1.0  0.29712  0.60361  0.71827  1.0000
  O   O3        1.0  0.38114  0.10358  0.21832  1.0000
  O   O4        1.0  0.70288  0.39639  0.28173  1.0000
  O   O5        1.0  0.23439  0.88869  0.79826  1.0000
  O   O6        1.0  0.92150  0.61135  0.70163  1.0000
  O   O7        1.0  0.76562  0.11131  0.20174  1.0000
  O   O8        1.0  0.07850  0.38865  0.29838  1.0000
  O   O9        1.0  0.51001  0.74715  0.74639  1.0000
  O   O10       1.0  0.00345  0.75289  0.75353  1.0000
  O   O11       1.0  0.48999  0.25285  0.25362  1.0000
  O   O12       1.0  0.99656  0.24711  0.24647  1.0000
  O   O13       1.0  0.48356  0.76649  0.88594  1.0000
  O   O14       1.0  0.13603  0.73354  0.61399  1.0000
  O   O15       1.0  0.51644  0.23351  0.11406  1.0000
  O   O16       1.0  0.86397  0.26645  0.38601  1.0000
  O   O17       1.0  0.97448  0.97092  0.68983  1.0000
  O   O18       1.0  0.63550  0.52909  0.81013  1.0000
  O   O19       1.0  0.02554  0.02908  0.31017  1.0000
  O   O20       1.0  0.36450  0.47091  0.18987  1.0000
  O   O21       1.0  0.60691  0.01136  0.64740  1.0000
  O   O22       1.0  0.26608  0.48855  0.85249  1.0000
  O   O23       1.0  0.39311  0.98863  0.35260  1.0000
  O   O24       1.0  0.73391  0.51145  0.14751  1.0000
  O   O25       1.0  0.89707  0.09642  0.56951  1.0000
  O   O26       1.0  0.56342  0.40359  0.93047  1.0000
  O   O27       1.0  0.10295  0.90357  0.43049  1.0000
  O   O28       1.0  0.43657  0.59641  0.06953  1.0000
  O   O29       1.0  0.92746  0.91040  0.56944  1.0000
  O   O30       1.0  0.40733  0.58964  0.93048  1.0000
  O   O31       1.0  0.07254  0.08960  0.43056  1.0000
  O   O32       1.0  0.59267  0.41036  0.06952  1.0000
