data_image0
_chemical_formula_structural       Ba2H12C4N16O8
_chemical_formula_sum              "Ba2 H12 C4 N16 O8"
_cell_length_a       6.29155
_cell_length_b       8.42091
_cell_length_c       9.20034
_cell_angle_alpha    105.944
_cell_angle_beta     89.9978
_cell_angle_gamma    111.944

_space_group_name_H-M_alt    "P 1"
_space_group_IT_number       1

loop_
  _space_group_symop_operation_xyz
  'x, y, z'

loop_
  _atom_site_type_symbol
  _atom_site_label
  _atom_site_symmetry_multiplicity
  _atom_site_fract_x
  _atom_site_fract_y
  _atom_site_fract_z
  _atom_site_occupancy
  Ba  Ba1       1.0  0.85994  0.99999  0.74995  1.0000
  Ba  Ba2       1.0  0.14006  0.00001  0.25005  1.0000
  H   H1        1.0  0.32652  0.52251  0.40460  1.0000
  H   H2        1.0  0.80393  0.47741  0.09534  1.0000
  H   H3        1.0  0.67348  0.47749  0.59539  1.0000
  H   H4        1.0  0.19607  0.52259  0.90466  1.0000
  H   H5        1.0  0.27492  0.88626  0.85381  1.0000
  H   H6        1.0  0.38876  0.11378  0.64624  1.0000
  H   H7        1.0  0.72508  0.11374  0.14618  1.0000
  H   H8        1.0  0.61125  0.88622  0.35376  1.0000
  H   H9        1.0  0.36569  0.09011  0.92018  1.0000
  H   H10       1.0  0.27558  0.90992  0.57974  1.0000
  H   H11       1.0  0.63431  0.90989  0.07981  1.0000
  H   H12       1.0  0.72442  0.09008  0.42026  1.0000
  C   C1        1.0  0.27094  0.61169  0.64770  1.0000
  C   C2        1.0  0.65912  0.38820  0.85223  1.0000
  C   C3        1.0  0.72906  0.38832  0.35231  1.0000
  C   C4        1.0  0.34087  0.61179  0.14776  1.0000
  N   N1        1.0  0.14732  0.50529  0.73040  1.0000
  N   N2        1.0  0.64196  0.49465  0.76957  1.0000
  N   N3        1.0  0.85269  0.49472  0.26960  1.0000
  N   N4        1.0  0.35804  0.50534  0.23043  1.0000
  N   N5        1.0  0.07773  0.33388  0.64191  1.0000
  N   N6        1.0  0.74386  0.66606  0.85806  1.0000
  N   N7        1.0  0.92227  0.66613  0.35809  1.0000
  N   N8        1.0  0.25614  0.33394  0.14194  1.0000
  N   N9        1.0  0.14582  0.32783  0.50718  1.0000
  N   N10       1.0  0.81802  0.67210  0.99277  1.0000
  N   N11       1.0  0.85418  0.67217  0.49281  1.0000
  N   N12       1.0  0.18198  0.32790  0.00723  1.0000
  N   N13       1.0  0.26369  0.49834  0.50835  1.0000
  N   N14       1.0  0.76529  0.50158  0.99160  1.0000
  N   N15       1.0  0.73631  0.50165  0.49165  1.0000
  N   N16       1.0  0.23472  0.49843  0.00840  1.0000
  O   O1        1.0  0.37560  0.78267  0.69003  1.0000
  O   O2        1.0  0.59274  0.21726  0.80988  1.0000
  O   O3        1.0  0.62439  0.21732  0.30997  1.0000
  O   O4        1.0  0.40726  0.78275  0.19013  1.0000
  O   O5        1.0  0.23900  0.98105  0.92850  1.0000
  O   O6        1.0  0.25797  0.01899  0.57154  1.0000
  O   O7        1.0  0.76100  0.01894  0.07150  1.0000
  O   O8        1.0  0.74202  0.98101  0.42846  1.0000
