data_image0
_chemical_formula_structural       Na4H12C4N16O8
_chemical_formula_sum              "Na4 H12 C4 N16 O8"
_cell_length_a       3.5381
_cell_length_b       8.17562
_cell_length_c       15.3506
_cell_angle_alpha    90.0001
_cell_angle_beta     89.9994
_cell_angle_gamma    95.296

_space_group_name_H-M_alt    "P 1"
_space_group_IT_number       1

loop_
  _space_group_symop_operation_xyz
  'x, y, z'

loop_
  _atom_site_type_symbol
  _atom_site_label
  _atom_site_symmetry_multiplicity
  _atom_site_fract_x
  _atom_site_fract_y
  _atom_site_fract_z
  _atom_site_occupancy
  Na  Na1       1.0  0.77911  0.63187  0.57377  1.0000
  Na  Na2       1.0  0.72088  0.86813  0.07377  1.0000
  Na  Na3       1.0  0.22089  0.36813  0.42623  1.0000
  Na  Na4       1.0  0.27912  0.13187  0.92623  1.0000
  H   H1        1.0  0.89031  0.58099  0.24000  1.0000
  H   H2        1.0  0.60969  0.91901  0.74000  1.0000
  H   H3        1.0  0.10968  0.41901  0.76000  1.0000
  H   H4        1.0  0.39031  0.08099  0.26000  1.0000
  H   H5        1.0  0.31371  0.93906  0.57045  1.0000
  H   H6        1.0  0.18629  0.56094  0.07045  1.0000
  H   H7        1.0  0.68629  0.06094  0.42955  1.0000
  H   H8        1.0  0.81372  0.43906  0.92955  1.0000
  H   H9        1.0  0.37082  0.84197  0.48426  1.0000
  H   H10       1.0  0.12918  0.65803  0.98426  1.0000
  H   H11       1.0  0.62918  0.15803  0.51573  1.0000
  H   H12       1.0  0.87082  0.34197  0.01574  1.0000
  C   C1        1.0  0.72338  0.68704  0.36321  1.0000
  C   C2        1.0  0.77664  0.81296  0.86320  1.0000
  C   C3        1.0  0.27662  0.31295  0.63680  1.0000
  C   C4        1.0  0.22336  0.18705  0.13681  1.0000
  N   N1        1.0  0.78515  0.67823  0.27507  1.0000
  N   N2        1.0  0.71485  0.82178  0.77507  1.0000
  N   N3        1.0  0.21484  0.32178  0.72493  1.0000
  N   N4        1.0  0.28515  0.17822  0.22493  1.0000
  N   N5        1.0  0.69373  0.81618  0.23590  1.0000
  N   N6        1.0  0.80627  0.68382  0.73591  1.0000
  N   N7        1.0  0.30627  0.18382  0.76409  1.0000
  N   N8        1.0  0.19374  0.31618  0.26409  1.0000
  N   N9        1.0  0.57774  0.90909  0.29730  1.0000
  N   N10       1.0  0.92225  0.59092  0.79731  1.0000
  N   N11       1.0  0.42225  0.09092  0.70269  1.0000
  N   N12       1.0  0.07775  0.40908  0.20270  1.0000
  N   N13       1.0  0.59124  0.83749  0.37625  1.0000
  N   N14       1.0  0.90877  0.66251  0.87625  1.0000
  N   N15       1.0  0.40875  0.16251  0.62374  1.0000
  N   N16       1.0  0.09124  0.33749  0.12375  1.0000
  O   O1        1.0  0.77214  0.57612  0.41887  1.0000
  O   O2        1.0  0.72789  0.92388  0.91886  1.0000
  O   O3        1.0  0.22785  0.42389  0.58113  1.0000
  O   O4        1.0  0.27211  0.07612  0.08114  1.0000
  O   O5        1.0  0.30441  0.82701  0.54693  1.0000
  O   O6        1.0  0.19560  0.67299  0.04693  1.0000
  O   O7        1.0  0.69561  0.17298  0.45307  1.0000
  O   O8        1.0  0.80440  0.32701  0.95308  1.0000
