data_image0
_chemical_formula_structural       K4H4C4N16O4
_chemical_formula_sum              "K4 H4 C4 N16 O4"
_cell_length_a       4.09382
_cell_length_b       8.05435
_cell_length_c       13.1031
_cell_angle_alpha    90.0003
_cell_angle_beta     90.0003
_cell_angle_gamma    101.904

_space_group_name_H-M_alt    "P 1"
_space_group_IT_number       1

loop_
  _space_group_symop_operation_xyz
  'x, y, z'

loop_
  _atom_site_type_symbol
  _atom_site_label
  _atom_site_symmetry_multiplicity
  _atom_site_fract_x
  _atom_site_fract_y
  _atom_site_fract_z
  _atom_site_occupancy
  K   K1        1.0  0.81152  0.22390  0.00293  1.0000
  K   K2        1.0  0.68848  0.27610  0.50293  1.0000
  K   K3        1.0  0.18848  0.77610  0.99707  1.0000
  K   K4        1.0  0.31151  0.72389  0.49707  1.0000
  H   H1        1.0  0.07020  0.63802  0.76002  1.0000
  H   H2        1.0  0.42980  0.86198  0.26002  1.0000
  H   H3        1.0  0.92980  0.36198  0.23998  1.0000
  H   H4        1.0  0.57020  0.13802  0.73998  1.0000
  C   C1        1.0  0.27546  0.42168  0.70352  1.0000
  C   C2        1.0  0.22454  0.07832  0.20352  1.0000
  C   C3        1.0  0.72454  0.57832  0.29648  1.0000
  C   C4        1.0  0.77546  0.92168  0.79648  1.0000
  N   N1        1.0  0.40450  0.30907  0.76110  1.0000
  N   N2        1.0  0.09550  0.19093  0.26110  1.0000
  N   N3        1.0  0.59550  0.69093  0.23890  1.0000
  N   N4        1.0  0.90451  0.80907  0.73890  1.0000
  N   N5        1.0  0.38747  0.35446  0.85976  1.0000
  N   N6        1.0  0.11254  0.14554  0.35976  1.0000
  N   N7        1.0  0.61253  0.64554  0.14024  1.0000
  N   N8        1.0  0.88746  0.85446  0.64024  1.0000
  N   N9        1.0  0.25518  0.48832  0.86799  1.0000
  N   N10       1.0  0.24481  0.01168  0.36799  1.0000
  N   N11       1.0  0.74481  0.51168  0.13201  1.0000
  N   N12       1.0  0.75518  0.98832  0.63201  1.0000
  N   N13       1.0  0.18369  0.53175  0.77250  1.0000
  N   N14       1.0  0.31631  0.96825  0.27250  1.0000
  N   N15       1.0  0.81631  0.46825  0.22750  1.0000
  N   N16       1.0  0.68370  0.03176  0.72750  1.0000
  O   O1        1.0  0.24499  0.42572  0.60708  1.0000
  O   O2        1.0  0.25501  0.07428  0.10708  1.0000
  O   O3        1.0  0.75500  0.57427  0.39292  1.0000
  O   O4        1.0  0.74501  0.92573  0.89292  1.0000
