data_image0
_chemical_formula_structural       Li2P4H26C24O12
_chemical_formula_sum              "Li2 P4 H26 C24 O12"
_cell_length_a       5.37216
_cell_length_b       8.50103
_cell_length_c       15.1798
_cell_angle_alpha    79.8775
_cell_angle_beta     90.0924
_cell_angle_gamma    89.5408

_space_group_name_H-M_alt    "P 1"
_space_group_IT_number       1

loop_
  _space_group_symop_operation_xyz
  'x, y, z'

loop_
  _atom_site_type_symbol
  _atom_site_label
  _atom_site_symmetry_multiplicity
  _atom_site_fract_x
  _atom_site_fract_y
  _atom_site_fract_z
  _atom_site_occupancy
  Li  Li1       1.0  0.75161  0.99422  0.99995  1.0000
  Li  Li2       1.0  0.24839  0.00578  0.00005  1.0000
  P   P1        1.0  0.99141  0.77770  0.88071  1.0000
  P   P2        1.0  0.00859  0.22230  0.11929  1.0000
  P   P3        1.0  0.51645  0.69785  0.11568  1.0000
  P   P4        1.0  0.48355  0.30215  0.88432  1.0000
  H   H1        1.0  0.67604  0.61086  0.89538  1.0000
  H   H2        1.0  0.32396  0.38914  0.10462  1.0000
  H   H3        1.0  0.82566  0.52640  0.10329  1.0000
  H   H4        1.0  0.17433  0.47360  0.89671  1.0000
  H   H5        1.0  0.26508  0.61511  0.00688  1.0000
  H   H6        1.0  0.73491  0.38489  0.99312  1.0000
  H   H7        1.0  0.79201  0.70305  0.71314  1.0000
  H   H8        1.0  0.20799  0.29695  0.28686  1.0000
  H   H9        1.0  0.93745  0.76952  0.55613  1.0000
  H   H10       1.0  0.06254  0.23049  0.44387  1.0000
  H   H11       1.0  0.31928  0.93078  0.51957  1.0000
  H   H12       1.0  0.68070  0.06922  0.48043  1.0000
  H   H13       1.0  0.55254  0.03073  0.64153  1.0000
  H   H14       1.0  0.44746  0.96927  0.35847  1.0000
  H   H15       1.0  0.40475  0.96621  0.79799  1.0000
  H   H16       1.0  0.59526  0.03379  0.20201  1.0000
  H   H17       1.0  0.69069  0.49844  0.28099  1.0000
  H   H18       1.0  0.30931  0.50155  0.71901  1.0000
  H   H19       1.0  0.51650  0.44815  0.43427  1.0000
  H   H20       1.0  0.48351  0.55186  0.56573  1.0000
  H   H21       1.0  0.13869  0.59738  0.46976  1.0000
  H   H22       1.0  0.86132  0.40263  0.53024  1.0000
  H   H23       1.0  0.93389  0.79537  0.35047  1.0000
  H   H24       1.0  0.06611  0.20463  0.64953  1.0000
  H   H25       1.0  0.10314  0.84199  0.19623  1.0000
  H   H26       1.0  0.89686  0.15801  0.80377  1.0000
  C   C1        1.0  0.08978  0.82928  0.76586  1.0000
  C   C2        1.0  0.91022  0.17072  0.23414  1.0000
  C   C3        1.0  0.95956  0.77367  0.69744  1.0000
  C   C4        1.0  0.04044  0.22633  0.30256  1.0000
  C   C5        1.0  0.04223  0.81086  0.60915  1.0000
  C   C6        1.0  0.95776  0.18914  0.39085  1.0000
  C   C7        1.0  0.25600  0.90239  0.58873  1.0000
  C   C8        1.0  0.74400  0.09761  0.41126  1.0000
  C   C9        1.0  0.38625  0.95832  0.65675  1.0000
  C   C10       1.0  0.61375  0.04168  0.34325  1.0000
  C   C11       1.0  0.30348  0.92242  0.74504  1.0000
  C   C12       1.0  0.69652  0.07758  0.25496  1.0000
  C   C13       1.0  0.40706  0.67263  0.22887  1.0000
  C   C14       1.0  0.59294  0.32737  0.77113  1.0000
  C   C15       1.0  0.52396  0.56244  0.29615  1.0000
  C   C16       1.0  0.47604  0.43756  0.70385  1.0000
  C   C17       1.0  0.42669  0.53541  0.38259  1.0000
  C   C18       1.0  0.57332  0.46459  0.61741  1.0000
  C   C19       1.0  0.21463  0.61883  0.40216  1.0000
  C   C20       1.0  0.78538  0.38117  0.59784  1.0000
  C   C21       1.0  0.09917  0.72992  0.33545  1.0000
  C   C22       1.0  0.90083  0.27008  0.66455  1.0000
  C   C23       1.0  0.19430  0.75675  0.24871  1.0000
  C   C24       1.0  0.80569  0.24325  0.75129  1.0000
  O   O1        1.0  0.70843  0.72838  0.87650  1.0000
  O   O2        1.0  0.29157  0.27162  0.12349  1.0000
  O   O3        1.0  0.14598  0.63129  0.92544  1.0000
  O   O4        1.0  0.85402  0.36871  0.07456  1.0000
  O   O5        1.0  0.01111  0.92043  0.92695  1.0000
  O   O6        1.0  0.98889  0.07957  0.07305  1.0000
  O   O7        1.0  0.79312  0.63817  0.11969  1.0000
  O   O8        1.0  0.20688  0.36183  0.88031  1.0000
  O   O9        1.0  0.35704  0.57857  0.07068  1.0000
  O   O10       1.0  0.64295  0.42142  0.92932  1.0000
  O   O11       1.0  0.49230  0.86806  0.06845  1.0000
  O   O12       1.0  0.50770  0.13194  0.93155  1.0000
