data_image0
_chemical_formula_structural       Na2P4H26C24O12
_chemical_formula_sum              "Na2 P4 H26 C24 O12"
_cell_length_a       5.66687
_cell_length_b       7.77391
_cell_length_c       16.0106
_cell_angle_alpha    102.957
_cell_angle_beta     94.2109
_cell_angle_gamma    96.1073

_space_group_name_H-M_alt    "P 1"
_space_group_IT_number       1

loop_
  _space_group_symop_operation_xyz
  'x, y, z'

loop_
  _atom_site_type_symbol
  _atom_site_label
  _atom_site_symmetry_multiplicity
  _atom_site_fract_x
  _atom_site_fract_y
  _atom_site_fract_z
  _atom_site_occupancy
  Na  Na1       1.0  0.79808  0.81825  0.00242  1.0000
  Na  Na2       1.0  0.20193  0.18175  0.99758  1.0000
  P   P1        1.0  0.29573  0.67562  0.11793  1.0000
  P   P2        1.0  0.70428  0.32438  0.88207  1.0000
  P   P3        1.0  0.24363  0.77317  0.86368  1.0000
  P   P4        1.0  0.75637  0.22683  0.13632  1.0000
  H   H1        1.0  0.91505  0.56143  0.10877  1.0000
  H   H2        1.0  0.08495  0.43857  0.89123  1.0000
  H   H3        1.0  0.51624  0.45375  0.09973  1.0000
  H   H4        1.0  0.48376  0.54625  0.90027  1.0000
  H   H5        1.0  0.54189  0.99107  0.89182  1.0000
  H   H6        1.0  0.45812  0.00893  0.10818  1.0000
  H   H7        1.0  0.02637  0.59885  0.25804  1.0000
  H   H8        1.0  0.97362  0.40115  0.74196  1.0000
  H   H9        1.0  0.13515  0.65192  0.41418  1.0000
  H   H10       1.0  0.86484  0.34808  0.58582  1.0000
  H   H11       1.0  0.53237  0.81409  0.48024  1.0000
  H   H12       1.0  0.46762  0.18590  0.51976  1.0000
  H   H13       1.0  0.82709  0.91227  0.38608  1.0000
  H   H14       1.0  0.17291  0.08772  0.61393  1.0000
  H   H15       1.0  0.72085  0.85412  0.22876  1.0000
  H   H16       1.0  0.27915  0.14588  0.77125  1.0000
  H   H17       1.0  0.84617  0.90181  0.78560  1.0000
  H   H18       1.0  0.15382  0.09819  0.21440  1.0000
  H   H19       1.0  0.69624  0.88501  0.63371  1.0000
  H   H20       1.0  0.30375  0.11499  0.36629  1.0000
  H   H21       1.0  0.90971  0.72880  0.51402  1.0000
  H   H22       1.0  0.09029  0.27121  0.48598  1.0000
  H   H23       1.0  0.27238  0.59029  0.54721  1.0000
  H   H24       1.0  0.72762  0.40972  0.45279  1.0000
  H   H25       1.0  0.42195  0.60926  0.69874  1.0000
  H   H26       1.0  0.57805  0.39075  0.30126  1.0000
  C   C1        1.0  0.36655  0.72333  0.23293  1.0000
  C   C2        1.0  0.63344  0.27666  0.76707  1.0000
  C   C3        1.0  0.20221  0.66695  0.28570  1.0000
  C   C4        1.0  0.79779  0.33304  0.71430  1.0000
  C   C5        1.0  0.26353  0.69823  0.37419  1.0000
  C   C6        1.0  0.73647  0.30176  0.62581  1.0000
  C   C7        1.0  0.48741  0.78710  0.41071  1.0000
  C   C8        1.0  0.51258  0.21289  0.58929  1.0000
  C   C9        1.0  0.65202  0.84290  0.35836  1.0000
  C   C10       1.0  0.34797  0.15709  0.64164  1.0000
  C   C11       1.0  0.59229  0.81096  0.26961  1.0000
  C   C12       1.0  0.40771  0.18904  0.73039  1.0000
  C   C13       1.0  0.14362  0.75876  0.75212  1.0000
  C   C14       1.0  0.85639  0.24125  0.24788  1.0000
  C   C15       1.0  0.93946  0.83549  0.73292  1.0000
  C   C16       1.0  0.06054  0.16451  0.26708  1.0000
  C   C17       1.0  0.85528  0.82448  0.64747  1.0000
  C   C18       1.0  0.14471  0.17553  0.35253  1.0000
  C   C19       1.0  0.97518  0.73668  0.58071  1.0000
  C   C20       1.0  0.02481  0.26333  0.41929  1.0000
  C   C21       1.0  0.17916  0.65974  0.59937  1.0000
  C   C22       1.0  0.82083  0.34027  0.40063  1.0000
  C   C23       1.0  0.26340  0.67020  0.68469  1.0000
  C   C24       1.0  0.73660  0.32980  0.31531  1.0000
  O   O1        1.0  0.01914  0.67331  0.09838  1.0000
  O   O2        1.0  0.98087  0.32670  0.90162  1.0000
  O   O3        1.0  0.34190  0.47896  0.08075  1.0000
  O   O4        1.0  0.65810  0.52104  0.91925  1.0000
  O   O5        1.0  0.43943  0.80887  0.08057  1.0000
  O   O6        1.0  0.56057  0.19113  0.91943  1.0000
  O   O7        1.0  0.51826  0.85410  0.87837  1.0000
  O   O8        1.0  0.48174  0.14590  0.12163  1.0000
  O   O9        1.0  0.09297  0.88722  0.92024  1.0000
  O   O10       1.0  0.90705  0.11278  0.07976  1.0000
  O   O11       1.0  0.25200  0.58044  0.87389  1.0000
  O   O12       1.0  0.74801  0.41956  0.12610  1.0000
