data_image0
_chemical_formula_structural       Na4H64C46O12
_chemical_formula_sum              "Na4 H64 C46 O12"
_cell_length_a       10.5979
_cell_length_b       11.1294
_cell_length_c       11.5944
_cell_angle_alpha    61.8775
_cell_angle_beta     87.5945
_cell_angle_gamma    69.3419

_space_group_name_H-M_alt    "P 1"
_space_group_IT_number       1

loop_
  _space_group_symop_operation_xyz
  'x, y, z'

loop_
  _atom_site_type_symbol
  _atom_site_label
  _atom_site_symmetry_multiplicity
  _atom_site_fract_x
  _atom_site_fract_y
  _atom_site_fract_z
  _atom_site_occupancy
  Na  Na1       1.0  0.52040  0.45978  0.68308  1.0000
  Na  Na2       1.0  0.47961  0.54023  0.31692  1.0000
  Na  Na3       1.0  0.63247  0.49572  0.94838  1.0000
  Na  Na4       1.0  0.36753  0.50428  0.05162  1.0000
  H   H1        1.0  0.44060  0.71622  0.78131  1.0000
  H   H2        1.0  0.55940  0.28378  0.21869  1.0000
  H   H3        1.0  0.33201  0.98160  0.69476  1.0000
  H   H4        1.0  0.66799  0.01840  0.30524  1.0000
  H   H5        1.0  0.08257  0.11654  0.60263  1.0000
  H   H6        1.0  0.91743  0.88346  0.39738  1.0000
  H   H7        1.0  0.94435  0.96814  0.61648  1.0000
  H   H8        1.0  0.05565  0.03186  0.38353  1.0000
  H   H9        1.0  0.04885  0.70411  0.70981  1.0000
  H   H10       1.0  0.95115  0.29589  0.29019  1.0000
  H   H11       1.0  0.46444  0.23713  0.91825  1.0000
  H   H12       1.0  0.53556  0.76287  0.08175  1.0000
  H   H13       1.0  0.39801  0.04841  0.91363  1.0000
  H   H14       1.0  0.60199  0.95159  0.08637  1.0000
  H   H15       1.0  0.17676  0.12005  0.78076  1.0000
  H   H16       1.0  0.82323  0.87995  0.21924  1.0000
  H   H17       1.0  0.03457  0.38919  0.64181  1.0000
  H   H18       1.0  0.96543  0.61082  0.35819  1.0000
  H   H19       1.0  0.09687  0.57546  0.64678  1.0000
  H   H20       1.0  0.90313  0.42454  0.35322  1.0000
  H   H21       1.0  0.92269  0.48221  0.95197  1.0000
  H   H22       1.0  0.07731  0.51779  0.04804  1.0000
  H   H23       1.0  0.99567  0.30010  0.09020  1.0000
  H   H24       1.0  0.00433  0.69989  0.90981  1.0000
  H   H25       1.0  0.04678  0.33932  0.92931  1.0000
  H   H26       1.0  0.95322  0.66068  0.07070  1.0000
  H   H27       1.0  0.97760  0.15388  0.93764  1.0000
  H   H28       1.0  0.02240  0.84612  0.06236  1.0000
  H   H29       1.0  0.91254  0.11508  0.09162  1.0000
  H   H30       1.0  0.08746  0.88492  0.90838  1.0000
  H   H31       1.0  0.67577  0.21286  0.97562  1.0000
  H   H32       1.0  0.32423  0.78714  0.02438  1.0000
  H   H33       1.0  0.78806  0.05468  0.96745  1.0000
  H   H34       1.0  0.21194  0.94532  0.03255  1.0000
  H   H35       1.0  0.91762  0.18543  0.73541  1.0000
  H   H36       1.0  0.08239  0.81457  0.26459  1.0000
  H   H37       1.0  0.81406  0.08346  0.75574  1.0000
  H   H38       1.0  0.18594  0.91654  0.24426  1.0000
  H   H39       1.0  0.80944  0.24614  0.51642  1.0000
  H   H40       1.0  0.19056  0.75385  0.48359  1.0000
  H   H41       1.0  0.76628  0.40231  0.53978  1.0000
  H   H42       1.0  0.23373  0.59769  0.46022  1.0000
  H   H43       1.0  0.62705  0.17084  0.50245  1.0000
  H   H44       1.0  0.37295  0.82916  0.49755  1.0000
  H   H45       1.0  0.61422  0.12384  0.67279  1.0000
  H   H46       1.0  0.38578  0.87617  0.32721  1.0000
  H   H47       1.0  0.37533  0.29954  0.61284  1.0000
  H   H48       1.0  0.62467  0.70047  0.38715  1.0000
  H   H49       1.0  0.40239  0.16208  0.56672  1.0000
  H   H50       1.0  0.59761  0.83792  0.43328  1.0000
  H   H51       1.0  0.17586  0.38411  0.44754  1.0000
  H   H52       1.0  0.82414  0.61589  0.55245  1.0000
  H   H53       1.0  0.19487  0.50334  0.28292  1.0000
  H   H54       1.0  0.80513  0.49666  0.71708  1.0000
  H   H55       1.0  0.13670  0.28809  0.31093  1.0000
  H   H56       1.0  0.86330  0.71192  0.68907  1.0000
  H   H57       1.0  0.30045  0.16675  0.40676  1.0000
  H   H58       1.0  0.69954  0.83326  0.59323  1.0000
  H   H59       1.0  0.36849  0.22170  0.08622  1.0000
  H   H60       1.0  0.63151  0.77830  0.91378  1.0000
  H   H61       1.0  0.40798  0.08865  0.25949  1.0000
  H   H62       1.0  0.59202  0.91135  0.74051  1.0000
  H   H63       1.0  0.23723  0.16945  0.17322  1.0000
  H   H64       1.0  0.76277  0.83056  0.82678  1.0000
  C   C1        1.0  0.32834  0.52463  0.80893  1.0000
  C   C2        1.0  0.67166  0.47536  0.19107  1.0000
  C   C3        1.0  0.25735  0.68176  0.75125  1.0000
  C   C4        1.0  0.74265  0.31824  0.24875  1.0000
  C   C5        1.0  0.33135  0.76994  0.74686  1.0000
  C   C6        1.0  0.66866  0.23005  0.25314  1.0000
  C   C7        1.0  0.26978  0.92133  0.69510  1.0000
  C   C8        1.0  0.73022  0.07867  0.30490  1.0000
  C   C9        1.0  0.12992  0.99738  0.64559  1.0000
  C   C10       1.0  0.87008  0.00261  0.35442  1.0000
  C   C11       1.0  0.05371  0.91389  0.65246  1.0000
  C   C12       1.0  0.94629  0.08611  0.34755  1.0000
  C   C13       1.0  0.11433  0.76285  0.70247  1.0000
  C   C14       1.0  0.88567  0.23714  0.29753  1.0000
  C   C15       1.0  0.28194  0.42493  0.79435  1.0000
  C   C16       1.0  0.71806  0.57507  0.20566  1.0000
  C   C17       1.0  0.36746  0.26975  0.86158  1.0000
  C   C18       1.0  0.63254  0.73025  0.13842  1.0000
  C   C19       1.0  0.32926  0.16403  0.85828  1.0000
  C   C20       1.0  0.67074  0.83597  0.14172  1.0000
  C   C21       1.0  0.20623  0.20278  0.78406  1.0000
  C   C22       1.0  0.79376  0.79722  0.21595  1.0000
  C   C23       1.0  0.12682  0.35401  0.70723  1.0000
  C   C24       1.0  0.87317  0.64599  0.29277  1.0000
  C   C25       1.0  0.16194  0.46110  0.71117  1.0000
  C   C26       1.0  0.83806  0.53890  0.28883  1.0000
  C   C27       1.0  0.96177  0.36476  0.98258  1.0000
  C   C28       1.0  0.03823  0.63524  0.01742  1.0000
  C   C29       1.0  0.88693  0.18662  0.98306  1.0000
  C   C30       1.0  0.11307  0.81338  0.01694  1.0000
  C   C31       1.0  0.76594  0.17168  0.93443  1.0000
  C   C32       1.0  0.23406  0.82831  0.06557  1.0000
  C   C33       1.0  0.81122  0.19569  0.72089  1.0000
  C   C34       1.0  0.18878  0.80431  0.27910  1.0000
  C   C35       1.0  0.75430  0.29711  0.57485  1.0000
  C   C36       1.0  0.24570  0.70289  0.42515  1.0000
  C   C37       1.0  0.57745  0.21209  0.56935  1.0000
  C   C38       1.0  0.42255  0.78791  0.43064  1.0000
  C   C39       1.0  0.42508  0.25934  0.54545  1.0000
  C   C40       1.0  0.57492  0.74067  0.45455  1.0000
  C   C41       1.0  0.23899  0.39191  0.36808  1.0000
  C   C42       1.0  0.76101  0.60809  0.63191  1.0000
  C   C43       1.0  0.24185  0.28021  0.32773  1.0000
  C   C44       1.0  0.75814  0.71979  0.67227  1.0000
  C   C45       1.0  0.33023  0.19003  0.18120  1.0000
  C   C46       1.0  0.66977  0.80998  0.81880  1.0000
  O   O1        1.0  0.45733  0.46571  0.87755  1.0000
  O   O2        1.0  0.54267  0.53429  0.12245  1.0000
  O   O3        1.0  0.85014  0.33715  0.94915  1.0000
  O   O4        1.0  0.14986  0.66285  0.05085  1.0000
  O   O5        1.0  0.72698  0.25808  0.79348  1.0000
  O   O6        1.0  0.27302  0.74192  0.20652  1.0000
  O   O7        1.0  0.60970  0.33594  0.54727  1.0000
  O   O8        1.0  0.39030  0.66406  0.45273  1.0000
  O   O9        1.0  0.37337  0.37238  0.41075  1.0000
  O   O10       1.0  0.62663  0.62763  0.58925  1.0000
  O   O11       1.0  0.30135  0.30810  0.20919  1.0000
  O   O12       1.0  0.69865  0.69191  0.79081  1.0000
