data_image0
_chemical_formula_structural       Cd2H28C16O12
_chemical_formula_sum              "Cd2 H28 C16 O12"
_cell_length_a       5.35781
_cell_length_b       6.5313
_cell_length_c       16.1757
_cell_angle_alpha    79.2808
_cell_angle_beta     80.4544
_cell_angle_gamma    65.7666

_space_group_name_H-M_alt    "P 1"
_space_group_IT_number       1

loop_
  _space_group_symop_operation_xyz
  'x, y, z'

loop_
  _atom_site_type_symbol
  _atom_site_label
  _atom_site_symmetry_multiplicity
  _atom_site_fract_x
  _atom_site_fract_y
  _atom_site_fract_z
  _atom_site_occupancy
  Cd  Cd1       1.0  0.43119  0.25015  0.74994  1.0000
  Cd  Cd2       1.0  0.56875  0.74987  0.25005  1.0000
  H   H1        1.0  0.87769  0.05072  0.62022  1.0000
  H   H2        1.0  0.54856  0.44905  0.87984  1.0000
  H   H3        1.0  0.12230  0.94933  0.37977  1.0000
  H   H4        1.0  0.45144  0.55095  0.12016  1.0000
  H   H5        1.0  0.16424  0.23262  0.46206  1.0000
  H   H6        1.0  0.85930  0.26773  0.03787  1.0000
  H   H7        1.0  0.83574  0.76739  0.53793  1.0000
  H   H8        1.0  0.14067  0.73228  0.96214  1.0000
  H   H9        1.0  0.87154  0.39691  0.52392  1.0000
  H   H10       1.0  0.79289  0.10312  0.97608  1.0000
  H   H11       1.0  0.12850  0.60310  0.47607  1.0000
  H   H12       1.0  0.20711  0.89689  0.02392  1.0000
  H   H13       1.0  0.25093  0.67846  0.60495  1.0000
  H   H14       1.0  0.53372  0.82153  0.89499  1.0000
  H   H15       1.0  0.74910  0.32153  0.39505  1.0000
  H   H16       1.0  0.46627  0.17847  0.10501  1.0000
  H   H17       1.0  0.40253  0.79294  0.51294  1.0000
  H   H18       1.0  0.70825  0.70726  0.98692  1.0000
  H   H19       1.0  0.59751  0.20705  0.48706  1.0000
  H   H20       1.0  0.29171  0.29275  0.01308  1.0000
  H   H21       1.0  0.82519  0.43605  0.67890  1.0000
  H   H22       1.0  0.94012  0.06391  0.82109  1.0000
  H   H23       1.0  0.17484  0.56394  0.32110  1.0000
  H   H24       1.0  0.05989  0.93613  0.17891  1.0000
  H   H25       1.0  0.54600  0.66239  0.68934  1.0000
  H   H26       1.0  0.89735  0.83785  0.81061  1.0000
  H   H27       1.0  0.45398  0.33760  0.31066  1.0000
  H   H28       1.0  0.10262  0.16214  0.18939  1.0000
  C   C1        1.0  0.23248  0.09532  0.63376  1.0000
  C   C2        1.0  0.96136  0.40480  0.86617  1.0000
  C   C3        1.0  0.76757  0.90470  0.36626  1.0000
  C   C4        1.0  0.03868  0.59516  0.13383  1.0000
  C   C5        1.0  0.06575  0.04553  0.57859  1.0000
  C   C6        1.0  0.68977  0.45454  0.92138  1.0000
  C   C7        1.0  0.93426  0.95448  0.42141  1.0000
  C   C8        1.0  0.31022  0.54545  0.07862  1.0000
  C   C9        1.0  0.97835  0.22999  0.50256  1.0000
  C   C10       1.0  0.71129  0.27006  0.99742  1.0000
  C   C11       1.0  0.02161  0.77002  0.49742  1.0000
  C   C12       1.0  0.28870  0.72994  0.00258  1.0000
  C   C13       1.0  0.20456  0.81035  0.55019  1.0000
  C   C14       1.0  0.56484  0.68972  0.94977  1.0000
  C   C15       1.0  0.79545  0.18962  0.44981  1.0000
  C   C16       1.0  0.43516  0.31028  0.05023  1.0000
  O   O1        1.0  0.15378  0.30279  0.64725  1.0000
  O   O2        1.0  0.10368  0.19740  0.85253  1.0000
  O   O3        1.0  0.84616  0.69725  0.35274  1.0000
  O   O4        1.0  0.89633  0.80259  0.14747  1.0000
  O   O5        1.0  0.43932  0.94238  0.66724  1.0000
  O   O6        1.0  0.04892  0.55769  0.83283  1.0000
  O   O7        1.0  0.56068  0.05758  0.33277  1.0000
  O   O8        1.0  0.95111  0.44226  0.16717  1.0000
  O   O9        1.0  0.63472  0.49586  0.70822  1.0000
  O   O10       1.0  0.83846  0.00436  0.79180  1.0000
  O   O11       1.0  0.36530  0.50414  0.29178  1.0000
  O   O12       1.0  0.16155  0.99562  0.20821  1.0000
