data_image0
_chemical_formula_structural       Cd3H46C48N4O12
_chemical_formula_sum              "Cd3 H46 C48 N4 O12"
_cell_length_a       8.77788
_cell_length_b       11.8719
_cell_length_c       12.2852
_cell_angle_alpha    103.089
_cell_angle_beta     90.684
_cell_angle_gamma    110.194

_space_group_name_H-M_alt    "P 1"
_space_group_IT_number       1

loop_
  _space_group_symop_operation_xyz
  'x, y, z'

loop_
  _atom_site_type_symbol
  _atom_site_label
  _atom_site_symmetry_multiplicity
  _atom_site_fract_x
  _atom_site_fract_y
  _atom_site_fract_z
  _atom_site_occupancy
  Cd  Cd1       1.0  0.00000  0.00000  0.50000  1.0000
  Cd  Cd2       1.0  0.14729  0.19313  0.77424  1.0000
  Cd  Cd3       1.0  0.85271  0.80688  0.22577  1.0000
  H   H1        1.0  0.95451  0.33005  0.63909  1.0000
  H   H2        1.0  0.04549  0.66994  0.36090  1.0000
  H   H3        1.0  0.90836  0.53252  0.66584  1.0000
  H   H4        1.0  0.09163  0.46747  0.33416  1.0000
  H   H5        1.0  0.02577  0.69593  0.84493  1.0000
  H   H6        1.0  0.97423  0.30407  0.15507  1.0000
  H   H7        1.0  0.19093  0.76377  0.03267  1.0000
  H   H8        1.0  0.80907  0.23623  0.96731  1.0000
  H   H9        1.0  0.35936  0.71953  0.16886  1.0000
  H   H10       1.0  0.64063  0.28047  0.83113  1.0000
  H   H11       1.0  0.47961  0.57568  0.22288  1.0000
  H   H12       1.0  0.52038  0.42432  0.77711  1.0000
  H   H13       1.0  0.48576  0.36005  0.18708  1.0000
  H   H14       1.0  0.51424  0.63995  0.81294  1.0000
  H   H15       1.0  0.34029  0.20523  0.00709  1.0000
  H   H16       1.0  0.65972  0.79477  0.99292  1.0000
  H   H17       1.0  0.16344  0.79228  0.70257  1.0000
  H   H18       1.0  0.83655  0.20773  0.29743  1.0000
  H   H19       1.0  0.39219  0.77239  0.79859  1.0000
  H   H20       1.0  0.60779  0.22761  0.20140  1.0000
  H   H21       1.0  0.33195  0.88317  0.89194  1.0000
  H   H22       1.0  0.66804  0.11683  0.10806  1.0000
  H   H23       1.0  0.55497  0.05454  0.85298  1.0000
  H   H24       1.0  0.44504  0.94546  0.14703  1.0000
  H   H25       1.0  0.63735  0.95229  0.89292  1.0000
  H   H26       1.0  0.36264  0.04770  0.10708  1.0000
  H   H27       1.0  0.28882  0.85555  0.53536  1.0000
  H   H28       1.0  0.71118  0.14445  0.46463  1.0000
  H   H29       1.0  0.37455  0.76096  0.58812  1.0000
  H   H30       1.0  0.62544  0.23904  0.41188  1.0000
  H   H31       1.0  0.59399  0.93664  0.53958  1.0000
  H   H32       1.0  0.40601  0.06336  0.46041  1.0000
  H   H33       1.0  0.52565  0.04355  0.62955  1.0000
  H   H34       1.0  0.47435  0.95645  0.37045  1.0000
  H   H35       1.0  0.66349  0.86191  0.69631  1.0000
  H   H36       1.0  0.33651  0.13808  0.30369  1.0000
  H   H37       1.0  0.39851  0.32574  0.41392  1.0000
  H   H38       1.0  0.60150  0.67428  0.58609  1.0000
  H   H39       1.0  0.63708  0.36465  0.55301  1.0000
  H   H40       1.0  0.36292  0.63536  0.44700  1.0000
  H   H41       1.0  0.58430  0.48106  0.64192  1.0000
  H   H42       1.0  0.41570  0.51895  0.35809  1.0000
  H   H43       1.0  0.19595  0.42338  0.47122  1.0000
  H   H44       1.0  0.80405  0.57663  0.52879  1.0000
  H   H45       1.0  0.31995  0.51436  0.59675  1.0000
  H   H46       1.0  0.68004  0.48565  0.40327  1.0000
  C   C1        1.0  0.00488  0.40452  0.71504  1.0000
  C   C2        1.0  0.99512  0.59547  0.28495  1.0000
  C   C3        1.0  0.97953  0.51761  0.73066  1.0000
  C   C4        1.0  0.02048  0.48239  0.26933  1.0000
  C   C5        1.0  0.04468  0.60770  0.82925  1.0000
  C   C6        1.0  0.95533  0.39229  0.17074  1.0000
  C   C7        1.0  0.13647  0.58553  0.91187  1.0000
  C   C8        1.0  0.86354  0.41447  0.08812  1.0000
  C   C9        1.0  0.20971  0.67537  0.01516  1.0000
  C   C10       1.0  0.79030  0.32463  0.98484  1.0000
  C   C11       1.0  0.30077  0.65047  0.09111  1.0000
  C   C12       1.0  0.69923  0.34953  0.90889  1.0000
  C   C13       1.0  0.32016  0.53278  0.07164  1.0000
  C   C14       1.0  0.67984  0.46721  0.92836  1.0000
  C   C15       1.0  0.41206  0.50364  0.14883  1.0000
  C   C16       1.0  0.58793  0.49635  0.85117  1.0000
  C   C17       1.0  0.41739  0.38571  0.12844  1.0000
  C   C18       1.0  0.58262  0.61428  0.87157  1.0000
  C   C19       1.0  0.33707  0.29868  0.02850  1.0000
  C   C20       1.0  0.66293  0.70132  0.97151  1.0000
  C   C21       1.0  0.24510  0.44007  0.97193  1.0000
  C   C22       1.0  0.75491  0.55992  0.02807  1.0000
  C   C23       1.0  0.15494  0.46809  0.88873  1.0000
  C   C24       1.0  0.84506  0.53191  0.11127  1.0000
  C   C25       1.0  0.23819  0.98577  0.73537  1.0000
  C   C26       1.0  0.76181  0.01424  0.26463  1.0000
  C   C27       1.0  0.28189  0.86944  0.71478  1.0000
  C   C28       1.0  0.71811  0.13057  0.28522  1.0000
  C   C29       1.0  0.38811  0.86653  0.81331  1.0000
  C   C30       1.0  0.61188  0.13347  0.18669  1.0000
  C   C31       1.0  0.56150  0.96155  0.82615  1.0000
  C   C32       1.0  0.43850  0.03845  0.17384  1.0000
  C   C33       1.0  0.36487  0.85322  0.60590  1.0000
  C   C34       1.0  0.63513  0.14678  0.39409  1.0000
  C   C35       1.0  0.53542  0.95142  0.61729  1.0000
  C   C36       1.0  0.46457  0.04858  0.38271  1.0000
  C   C37       1.0  0.64299  0.95110  0.71621  1.0000
  C   C38       1.0  0.35701  0.04889  0.28379  1.0000
  C   C39       1.0  0.81417  0.04782  0.72978  1.0000
  C   C40       1.0  0.18584  0.95219  0.27022  1.0000
  C   C41       1.0  0.29687  0.27233  0.55852  1.0000
  C   C42       1.0  0.70313  0.72767  0.44148  1.0000
  C   C43       1.0  0.40270  0.37151  0.50327  1.0000
  C   C44       1.0  0.59730  0.62850  0.49673  1.0000
  C   C45       1.0  0.58051  0.43411  0.55351  1.0000
  C   C46       1.0  0.41948  0.56590  0.44650  1.0000
  C   C47       1.0  0.32348  0.46963  0.50812  1.0000
  C   C48       1.0  0.67652  0.53038  0.49189  1.0000
  N   N1        1.0  0.08981  0.38107  0.79173  1.0000
  N   N2        1.0  0.91019  0.61892  0.20827  1.0000
  N   N3        1.0  0.25638  0.32638  0.95219  1.0000
  N   N4        1.0  0.74362  0.67361  0.04781  1.0000
  O   O1        1.0  0.27920  0.06431  0.82952  1.0000
  O   O2        1.0  0.72081  0.93569  0.17048  1.0000
  O   O3        1.0  0.15761  0.00011  0.65507  1.0000
  O   O4        1.0  0.84240  0.99991  0.34492  1.0000
  O   O5        1.0  0.89488  0.08541  0.82574  1.0000
  O   O6        1.0  0.10512  0.91459  0.17425  1.0000
  O   O7        1.0  0.87397  0.08813  0.64480  1.0000
  O   O8        1.0  0.12603  0.91187  0.35520  1.0000
  O   O9        1.0  0.33818  0.28088  0.66066  1.0000
  O   O10       1.0  0.66182  0.71911  0.33934  1.0000
  O   O11       1.0  0.17053  0.19249  0.49774  1.0000
  O   O12       1.0  0.82947  0.80752  0.50226  1.0000
