data_image0
_chemical_formula_structural       Ag4H8C12N20O24
_chemical_formula_sum              "Ag4 H8 C12 N20 O24"
_cell_length_a       5.35246
_cell_length_b       10.5351
_cell_length_c       15.1256
_cell_angle_alpha    99.9424
_cell_angle_beta     89.9998
_cell_angle_gamma    89.9996

_space_group_name_H-M_alt    "P 1"
_space_group_IT_number       1

loop_
  _space_group_symop_operation_xyz
  'x, y, z'

loop_
  _atom_site_type_symbol
  _atom_site_label
  _atom_site_symmetry_multiplicity
  _atom_site_fract_x
  _atom_site_fract_y
  _atom_site_fract_z
  _atom_site_occupancy
  Ag  Ag1       1.0  0.34852  0.83071  0.23145  1.0000
  Ag  Ag2       1.0  0.84852  0.16929  0.26855  1.0000
  Ag  Ag3       1.0  0.65147  0.16929  0.76855  1.0000
  Ag  Ag4       1.0  0.15148  0.83071  0.73145  1.0000
  H   H1        1.0  0.67952  0.95268  0.12559  1.0000
  H   H2        1.0  0.17953  0.04733  0.37441  1.0000
  H   H3        1.0  0.32048  0.04733  0.87441  1.0000
  H   H4        1.0  0.82048  0.95267  0.62559  1.0000
  H   H5        1.0  0.45634  0.04860  0.15814  1.0000
  H   H6        1.0  0.95635  0.95139  0.34187  1.0000
  H   H7        1.0  0.54366  0.95140  0.84187  1.0000
  H   H8        1.0  0.04366  0.04861  0.65813  1.0000
  C   C1        1.0  0.35447  0.53496  0.40457  1.0000
  C   C2        1.0  0.85448  0.46504  0.09543  1.0000
  C   C3        1.0  0.64553  0.46504  0.59543  1.0000
  C   C4        1.0  0.14554  0.53496  0.90457  1.0000
  C   C5        1.0  0.38163  0.66872  0.39514  1.0000
  C   C6        1.0  0.88163  0.33128  0.10486  1.0000
  C   C7        1.0  0.61836  0.33128  0.60486  1.0000
  C   C8        1.0  0.11838  0.66872  0.89515  1.0000
  C   C9        1.0  0.48087  0.77387  0.46019  1.0000
  C   C10       1.0  0.98086  0.22613  0.03980  1.0000
  C   C11       1.0  0.51913  0.22613  0.53981  1.0000
  C   C12       1.0  0.01914  0.77388  0.96019  1.0000
  N   N1        1.0  0.29650  0.67992  0.31509  1.0000
  N   N2        1.0  0.79651  0.32007  0.18491  1.0000
  N   N3        1.0  0.70349  0.32007  0.68492  1.0000
  N   N4        1.0  0.20350  0.67993  0.81509  1.0000
  N   N5        1.0  0.24537  0.47042  0.33205  1.0000
  N   N6        1.0  0.74536  0.52958  0.16795  1.0000
  N   N7        1.0  0.75465  0.52958  0.66795  1.0000
  N   N8        1.0  0.25465  0.47042  0.83205  1.0000
  N   N9        1.0  0.43934  0.46564  0.46838  1.0000
  N   N10       1.0  0.93933  0.53436  0.03162  1.0000
  N   N11       1.0  0.56067  0.53437  0.53162  1.0000
  N   N12       1.0  0.06067  0.46564  0.96838  1.0000
  N   N13       1.0  0.67108  0.85217  0.43780  1.0000
  N   N14       1.0  0.17107  0.14783  0.06220  1.0000
  N   N15       1.0  0.32892  0.14784  0.56220  1.0000
  N   N16       1.0  0.82893  0.85217  0.93780  1.0000
  N   N17       1.0  0.37789  0.79126  0.54587  1.0000
  N   N18       1.0  0.87789  0.20874  0.95413  1.0000
  N   N19       1.0  0.62211  0.20874  0.45413  1.0000
  N   N20       1.0  0.12211  0.79126  0.04587  1.0000
  O   O1        1.0  0.58141  0.99016  0.17885  1.0000
  O   O2        1.0  0.08141  0.00984  0.32115  1.0000
  O   O3        1.0  0.41859  0.00984  0.82115  1.0000
  O   O4        1.0  0.91858  0.99016  0.67885  1.0000
  O   O5        1.0  0.20979  0.55666  0.27638  1.0000
  O   O6        1.0  0.70979  0.44334  0.22362  1.0000
  O   O7        1.0  0.79022  0.44334  0.72362  1.0000
  O   O8        1.0  0.29021  0.55666  0.77638  1.0000
  O   O9        1.0  0.74658  0.82814  0.35644  1.0000
  O   O10       1.0  0.24657  0.17186  0.14356  1.0000
  O   O11       1.0  0.25341  0.17186  0.64356  1.0000
  O   O12       1.0  0.75343  0.82815  0.85644  1.0000
  O   O13       1.0  0.76294  0.94187  0.49279  1.0000
  O   O14       1.0  0.26294  0.05813  0.00721  1.0000
  O   O15       1.0  0.23706  0.05813  0.50721  1.0000
  O   O16       1.0  0.73705  0.94188  0.99279  1.0000
  O   O17       1.0  0.47529  0.86259  0.61205  1.0000
  O   O18       1.0  0.97529  0.13741  0.88795  1.0000
  O   O19       1.0  0.52472  0.13741  0.38795  1.0000
  O   O20       1.0  0.02470  0.86260  0.11205  1.0000
  O   O21       1.0  0.17979  0.72876  0.55438  1.0000
  O   O22       1.0  0.67980  0.27125  0.94562  1.0000
  O   O23       1.0  0.82021  0.27124  0.44562  1.0000
  O   O24       1.0  0.32020  0.72875  0.05438  1.0000
