data_image0
_chemical_formula_structural       Cd2H52C60N12O12F8
_chemical_formula_sum              "Cd2 H52 C60 N12 O12 F8"
_cell_length_a       11.1311
_cell_length_b       11.7726
_cell_length_c       13.8688
_cell_angle_alpha    113.568
_cell_angle_beta     113.659
_cell_angle_gamma    90.0001

_space_group_name_H-M_alt    "P 1"
_space_group_IT_number       1

loop_
  _space_group_symop_operation_xyz
  'x, y, z'

loop_
  _atom_site_type_symbol
  _atom_site_label
  _atom_site_symmetry_multiplicity
  _atom_site_fract_x
  _atom_site_fract_y
  _atom_site_fract_z
  _atom_site_occupancy
  Cd  Cd1       1.0  0.68874  0.24999  0.00000  1.0000
  Cd  Cd2       1.0  0.31126  0.75001  1.00000  1.0000
  H   H1        1.0  0.92573  0.44792  0.05102  1.0000
  H   H2        1.0  0.87472  0.05208  0.94898  1.0000
  H   H3        1.0  0.07427  0.55208  0.94898  1.0000
  H   H4        1.0  0.12528  0.94792  0.05102  1.0000
  H   H5        1.0  0.92815  0.23289  0.22601  1.0000
  H   H6        1.0  0.70215  0.26713  0.77399  1.0000
  H   H7        1.0  0.07185  0.76711  0.77399  1.0000
  H   H8        1.0  0.29785  0.73287  0.22601  1.0000
  H   H9        1.0  0.17358  0.46859  0.11646  1.0000
  H   H10       1.0  0.05712  0.03140  0.88354  1.0000
  H   H11       1.0  0.82642  0.53141  0.88354  1.0000
  H   H12       1.0  0.94288  0.96860  0.11646  1.0000
  H   H13       1.0  0.17333  0.24167  0.29582  1.0000
  H   H14       1.0  0.87752  0.25834  0.70419  1.0000
  H   H15       1.0  0.82667  0.75833  0.70418  1.0000
  H   H16       1.0  0.12248  0.74166  0.29581  1.0000
  H   H17       1.0  0.37193  0.40372  0.20077  1.0000
  H   H18       1.0  0.17118  0.09628  0.79924  1.0000
  H   H19       1.0  0.62807  0.59628  0.79923  1.0000
  H   H20       1.0  0.82882  0.90372  0.20076  1.0000
  H   H21       1.0  0.36189  0.26313  0.21711  1.0000
  H   H22       1.0  0.14479  0.23686  0.78289  1.0000
  H   H23       1.0  0.63811  0.73687  0.78289  1.0000
  H   H24       1.0  0.85521  0.76314  0.21712  1.0000
  H   H25       1.0  0.41433  0.34594  0.75247  1.0000
  H   H26       1.0  0.66185  0.15405  0.24753  1.0000
  H   H27       1.0  0.58567  0.65406  0.24753  1.0000
  H   H28       1.0  0.33815  0.84595  0.75247  1.0000
  H   H29       1.0  0.34076  0.27694  0.54011  1.0000
  H   H30       1.0  0.80065  0.22305  0.45989  1.0000
  H   H31       1.0  0.65924  0.72306  0.45989  1.0000
  H   H32       1.0  0.19935  0.77695  0.54011  1.0000
  H   H33       1.0  0.31278  0.04943  0.40788  1.0000
  H   H34       1.0  0.90489  0.45056  0.59211  1.0000
  H   H35       1.0  0.68722  0.95057  0.59212  1.0000
  H   H36       1.0  0.09511  0.54944  0.40789  1.0000
  H   H37       1.0  0.36291  0.89393  0.49244  1.0000
  H   H38       1.0  0.87047  0.60606  0.50756  1.0000
  H   H39       1.0  0.63709  0.10607  0.50756  1.0000
  H   H40       1.0  0.12953  0.39394  0.49244  1.0000
  H   H41       1.0  0.43419  0.96341  0.70396  1.0000
  H   H42       1.0  0.73021  0.53658  0.29604  1.0000
  H   H43       1.0  0.56581  0.03659  0.29604  1.0000
  H   H44       1.0  0.26979  0.46342  0.70396  1.0000
  H   H45       1.0  0.42050  0.27621  0.89514  1.0000
  H   H46       1.0  0.52535  0.22380  0.10486  1.0000
  H   H47       1.0  0.57950  0.72379  0.10486  1.0000
  H   H48       1.0  0.47465  0.77620  0.89514  1.0000
  H   H49       1.0  0.42910  0.12990  0.87802  1.0000
  H   H50       1.0  0.55109  0.37010  0.12199  1.0000
  H   H51       1.0  0.57090  0.87010  0.12198  1.0000
  H   H52       1.0  0.44891  0.62990  0.87801  1.0000
  C   C1        1.0  0.98521  0.40482  0.10648  1.0000
  C   C2        1.0  0.87873  0.09519  0.89351  1.0000
  C   C3        1.0  0.01479  0.59518  0.89352  1.0000
  C   C4        1.0  0.12127  0.90481  0.10649  1.0000
  C   C5        1.0  0.98581  0.28415  0.20343  1.0000
  C   C6        1.0  0.78239  0.21586  0.79658  1.0000
  C   C7        1.0  0.01419  0.71585  0.79657  1.0000
  C   C8        1.0  0.21761  0.78414  0.20343  1.0000
  C   C9        1.0  0.12222  0.41519  0.14209  1.0000
  C   C10       1.0  0.98014  0.08480  0.85791  1.0000
  C   C11       1.0  0.87778  0.58481  0.85791  1.0000
  C   C12       1.0  0.01986  0.91520  0.14208  1.0000
  C   C13       1.0  0.12285  0.28939  0.24190  1.0000
  C   C14       1.0  0.88096  0.21062  0.75812  1.0000
  C   C15       1.0  0.87715  0.71061  0.75810  1.0000
  C   C16       1.0  0.11904  0.78938  0.24188  1.0000
  C   C17       1.0  0.19337  0.35406  0.20928  1.0000
  C   C18       1.0  0.98410  0.14593  0.79072  1.0000
  C   C19       1.0  0.80663  0.64594  0.79072  1.0000
  C   C20       1.0  0.01590  0.85407  0.20928  1.0000
  C   C21       1.0  0.34136  0.35938  0.24564  1.0000
  C   C22       1.0  0.09574  0.14061  0.75436  1.0000
  C   C23       1.0  0.65863  0.64062  0.75436  1.0000
  C   C24       1.0  0.90426  0.85939  0.24564  1.0000
  C   C25       1.0  0.42252  0.43102  0.37615  1.0000
  C   C26       1.0  0.04639  0.06897  0.62386  1.0000
  C   C27       1.0  0.57748  0.56898  0.62385  1.0000
  C   C28       1.0  0.95361  0.93103  0.37614  1.0000
  C   C29       1.0  0.43501  0.56147  0.43394  1.0000
  C   C30       1.0  0.00112  0.93851  0.56606  1.0000
  C   C31       1.0  0.56499  0.43853  0.56606  1.0000
  C   C32       1.0  0.99888  0.06149  0.43394  1.0000
  C   C33       1.0  0.51155  0.62884  0.55412  1.0000
  C   C34       1.0  0.95743  0.87117  0.44588  1.0000
  C   C35       1.0  0.48845  0.37116  0.44588  1.0000
  C   C36       1.0  0.04257  0.12883  0.55412  1.0000
  C   C37       1.0  0.42376  0.15876  0.74077  1.0000
  C   C38       1.0  0.68299  0.34123  0.25923  1.0000
  C   C39       1.0  0.57624  0.84124  0.25923  1.0000
  C   C40       1.0  0.31701  0.65877  0.74077  1.0000
  C   C41       1.0  0.40118  0.24694  0.69438  1.0000
  C   C42       1.0  0.70681  0.25305  0.30562  1.0000
  C   C43       1.0  0.59882  0.75306  0.30562  1.0000
  C   C44       1.0  0.29319  0.74695  0.69438  1.0000
  C   C45       1.0  0.36044  0.20726  0.57504  1.0000
  C   C46       1.0  0.78540  0.29273  0.42495  1.0000
  C   C47       1.0  0.63956  0.79274  0.42496  1.0000
  C   C48       1.0  0.21460  0.70727  0.57505  1.0000
  C   C49       1.0  0.34405  0.08011  0.50104  1.0000
  C   C50       1.0  0.84301  0.41989  0.49896  1.0000
  C   C51       1.0  0.65595  0.91989  0.49896  1.0000
  C   C52       1.0  0.15699  0.58011  0.50104  1.0000
  C   C53       1.0  0.37126  0.99294  0.54831  1.0000
  C   C54       1.0  0.82296  0.50705  0.45170  1.0000
  C   C55       1.0  0.62873  0.00706  0.45169  1.0000
  C   C56       1.0  0.17704  0.49295  0.54830  1.0000
  C   C57       1.0  0.41129  0.03155  0.66749  1.0000
  C   C58       1.0  0.74381  0.46844  0.33252  1.0000
  C   C59       1.0  0.58871  0.96845  0.33251  1.0000
  C   C60       1.0  0.25619  0.53156  0.66748  1.0000
  N   N1        1.0  0.91681  0.33881  0.13455  1.0000
  N   N2        1.0  0.78227  0.16120  0.86546  1.0000
  N   N3        1.0  0.08319  0.66119  0.86545  1.0000
  N   N4        1.0  0.21773  0.83880  0.13454  1.0000
  N   N5        1.0  0.66352  0.52261  0.00822  1.0000
  N   N6        1.0  0.65532  0.97740  0.99178  1.0000
  N   N7        1.0  0.33648  0.47739  0.99178  1.0000
  N   N8        1.0  0.34468  0.02260  0.00822  1.0000
  N   N9        1.0  0.46048  0.19943  0.86208  1.0000
  N   N10       1.0  0.59839  0.30057  0.13792  1.0000
  N   N11       1.0  0.53952  0.80057  0.13792  1.0000
  N   N12       1.0  0.40161  0.69943  0.86208  1.0000
  O   O1        1.0  0.69656  0.42689  0.94480  1.0000
  O   O2        1.0  0.75178  0.07311  0.05522  1.0000
  O   O3        1.0  0.30344  0.57311  0.05520  1.0000
  O   O4        1.0  0.24822  0.92689  0.94478  1.0000
  O   O5        1.0  0.64852  0.52277  0.09367  1.0000
  O   O6        1.0  0.55487  0.97727  0.90635  1.0000
  O   O7        1.0  0.35148  0.47723  0.90633  1.0000
  O   O8        1.0  0.44513  0.02273  0.09365  1.0000
  O   O9        1.0  0.64759  0.61586  0.98431  1.0000
  O   O10       1.0  0.66328  0.88412  0.01566  1.0000
  O   O11       1.0  0.35241  0.38414  0.01569  1.0000
  O   O12       1.0  0.33672  0.11588  0.98434  1.0000
  F   F1        1.0  0.37047  0.62503  0.37136  1.0000
  F   F2        1.0  0.99926  0.87495  0.62865  1.0000
  F   F3        1.0  0.62953  0.37497  0.62864  1.0000
  F   F4        1.0  0.00074  0.12505  0.37134  1.0000
  F   F5        1.0  0.52267  0.75623  0.60386  1.0000
  F   F6        1.0  0.91879  0.74377  0.39611  1.0000
  F   F7        1.0  0.47733  0.24377  0.39614  1.0000
  F   F8        1.0  0.08121  0.25623  0.60389  1.0000
