data_image0
_chemical_formula_structural       Mn2H38C42N4O12
_chemical_formula_sum              "Mn2 H38 C42 N4 O12"
_cell_length_a       8.57093
_cell_length_b       9.97313
_cell_length_c       13.0838
_cell_angle_alpha    73.4302
_cell_angle_beta     79.0172
_cell_angle_gamma    81.5746

_space_group_name_H-M_alt    "P 1"
_space_group_IT_number       1

loop_
  _space_group_symop_operation_xyz
  'x, y, z'

loop_
  _atom_site_type_symbol
  _atom_site_label
  _atom_site_symmetry_multiplicity
  _atom_site_fract_x
  _atom_site_fract_y
  _atom_site_fract_z
  _atom_site_occupancy
  Mn  Mn1       1.0  0.95174  0.84357  0.82012  1.0000
  Mn  Mn2       1.0  0.04826  0.15643  0.17988  1.0000
  H   H1        1.0  0.03873  0.82013  0.02856  1.0000
  H   H2        1.0  0.96127  0.17987  0.97144  1.0000
  H   H3        1.0  0.03446  0.66977  0.00684  1.0000
  H   H4        1.0  0.96555  0.33024  0.99316  1.0000
  H   H5        1.0  0.97306  0.89820  0.56806  1.0000
  H   H6        1.0  0.02695  0.10175  0.43194  1.0000
  H   H7        1.0  0.79892  0.89706  0.43449  1.0000
  H   H8        1.0  0.20109  0.10290  0.56552  1.0000
  H   H9        1.0  0.51230  0.84254  0.50659  1.0000
  H   H10       1.0  0.48769  0.15746  0.49341  1.0000
  H   H11       1.0  0.40988  0.81201  0.70116  1.0000
  H   H12       1.0  0.59011  0.18802  0.29884  1.0000
  H   H13       1.0  0.33952  0.79856  0.86558  1.0000
  H   H14       1.0  0.66047  0.20146  0.13442  1.0000
  H   H15       1.0  0.27544  0.79268  0.05973  1.0000
  H   H16       1.0  0.72456  0.20734  0.94027  1.0000
  H   H17       1.0  0.48922  0.82483  0.15448  1.0000
  H   H18       1.0  0.51078  0.17518  0.84552  1.0000
  H   H19       1.0  0.76404  0.85824  0.04929  1.0000
  H   H20       1.0  0.23596  0.14176  0.95071  1.0000
  H   H21       1.0  0.95419  0.36678  0.81647  1.0000
  H   H22       1.0  0.04582  0.63323  0.18354  1.0000
  H   H23       1.0  0.38793  0.55859  0.67785  1.0000
  H   H24       1.0  0.61207  0.44142  0.32214  1.0000
  H   H25       1.0  0.36488  0.12365  0.68867  1.0000
  H   H26       1.0  0.63511  0.87635  0.31133  1.0000
  H   H27       1.0  0.64562  0.46268  0.68318  1.0000
  H   H28       1.0  0.35437  0.53732  0.31680  1.0000
  H   H29       1.0  0.59392  0.52726  0.55090  1.0000
  H   H30       1.0  0.40608  0.47274  0.44908  1.0000
  H   H31       1.0  0.81124  0.35296  0.48873  1.0000
  H   H32       1.0  0.18875  0.64702  0.51127  1.0000
  H   H33       1.0  0.86984  0.30472  0.61825  1.0000
  H   H34       1.0  0.13014  0.69527  0.38175  1.0000
  H   H35       1.0  0.91347  0.55850  0.59437  1.0000
  H   H36       1.0  0.08653  0.44148  0.40564  1.0000
  H   H37       1.0  0.85687  0.60323  0.46518  1.0000
  H   H38       1.0  0.14312  0.39676  0.53483  1.0000
  C   C1        1.0  0.84669  0.88228  0.59331  1.0000
  C   C2        1.0  0.15333  0.11768  0.40669  1.0000
  C   C3        1.0  0.75001  0.87828  0.52014  1.0000
  C   C4        1.0  0.25000  0.12169  0.47987  1.0000
  C   C5        1.0  0.59165  0.85032  0.56023  1.0000
  C   C6        1.0  0.40834  0.14968  0.43977  1.0000
  C   C7        1.0  0.53396  0.83273  0.66991  1.0000
  C   C8        1.0  0.46604  0.16729  0.33009  1.0000
  C   C9        1.0  0.63809  0.84254  0.73764  1.0000
  C   C10       1.0  0.36192  0.15747  0.26236  1.0000
  C   C11       1.0  0.58845  0.83147  0.85435  1.0000
  C   C12       1.0  0.41155  0.16854  0.14565  1.0000
  C   C13       1.0  0.43260  0.81053  0.90766  1.0000
  C   C14       1.0  0.56740  0.18949  0.09234  1.0000
  C   C15       1.0  0.39626  0.80601  0.01696  1.0000
  C   C16       1.0  0.60374  0.19401  0.98303  1.0000
  C   C17       1.0  0.51474  0.82392  0.06998  1.0000
  C   C18       1.0  0.48526  0.17610  0.93002  1.0000
  C   C19       1.0  0.66716  0.84330  0.01187  1.0000
  C   C20       1.0  0.33285  0.15671  0.98813  1.0000
  C   C21       1.0  0.05721  0.10575  0.79462  1.0000
  C   C22       1.0  0.94278  0.89426  0.20539  1.0000
  C   C23       1.0  0.14938  0.23161  0.75574  1.0000
  C   C24       1.0  0.85062  0.76839  0.24427  1.0000
  C   C25       1.0  0.07803  0.35771  0.77779  1.0000
  C   C26       1.0  0.92197  0.64230  0.22222  1.0000
  C   C27       1.0  0.16502  0.47377  0.74972  1.0000
  C   C28       1.0  0.83499  0.52623  0.25029  1.0000
  C   C29       1.0  0.32379  0.46584  0.69803  1.0000
  C   C30       1.0  0.67622  0.53416  0.30197  1.0000
  C   C31       1.0  0.39511  0.33959  0.67560  1.0000
  C   C32       1.0  0.60488  0.66041  0.32440  1.0000
  C   C33       1.0  0.30727  0.22254  0.70393  1.0000
  C   C34       1.0  0.69272  0.77747  0.29608  1.0000
  C   C35       1.0  0.08780  0.60517  0.77911  1.0000
  C   C36       1.0  0.91222  0.39484  0.22090  1.0000
  C   C37       1.0  0.64671  0.43465  0.60723  1.0000
  C   C38       1.0  0.35328  0.56534  0.39276  1.0000
  C   C39       1.0  0.81506  0.39188  0.55890  1.0000
  C   C40       1.0  0.18494  0.60810  0.44110  1.0000
  C   C41       1.0  0.91400  0.51763  0.52435  1.0000
  C   C42       1.0  0.08600  0.48235  0.47565  1.0000
  N   N1        1.0  0.70407  0.84581  0.90711  1.0000
  N   N2        1.0  0.29593  0.15420  0.09288  1.0000
  N   N3        1.0  0.79281  0.86481  0.69890  1.0000
  N   N4        1.0  0.20720  0.13517  0.30110  1.0000
  O   O1        1.0  0.08330  0.01607  0.73856  1.0000
  O   O2        1.0  0.91669  0.98394  0.26146  1.0000
  O   O3        1.0  0.95875  0.09149  0.88198  1.0000
  O   O4        1.0  0.04123  0.90852  0.11803  1.0000
  O   O5        1.0  0.15106  0.72058  0.73431  1.0000
  O   O6        1.0  0.84896  0.27943  0.26569  1.0000
  O   O7        1.0  0.96054  0.59786  0.84849  1.0000
  O   O8        1.0  0.03949  0.40214  0.15153  1.0000
  O   O9        1.0  0.04951  0.76826  0.97120  1.0000
  O   O10       1.0  0.95049  0.23174  0.02881  1.0000
  O   O11       1.0  0.55064  0.31938  0.62897  1.0000
  O   O12       1.0  0.44935  0.68062  0.37102  1.0000
