data_image0
_chemical_formula_structural       Ag8H48C48N24O16
_chemical_formula_sum              "Ag8 H48 C48 N24 O16"
_cell_length_a       12.0749
_cell_length_b       12.0726
_cell_length_c       13.2569
_cell_angle_alpha    117.128
_cell_angle_beta     117.11
_cell_angle_gamma    89.985

_space_group_name_H-M_alt    "P 1"
_space_group_IT_number       1

loop_
  _space_group_symop_operation_xyz
  'x, y, z'

loop_
  _atom_site_type_symbol
  _atom_site_label
  _atom_site_symmetry_multiplicity
  _atom_site_fract_x
  _atom_site_fract_y
  _atom_site_fract_z
  _atom_site_occupancy
  Ag  Ag1       1.0  0.49638  0.58798  0.91072  1.0000
  Ag  Ag2       1.0  0.58808  0.41404  0.41081  1.0000
  Ag  Ag3       1.0  0.82303  0.49655  0.41064  1.0000
  Ag  Ag4       1.0  0.41408  0.82296  0.91060  1.0000
  Ag  Ag5       1.0  0.50362  0.41202  0.08928  1.0000
  Ag  Ag6       1.0  0.41191  0.58595  0.58919  1.0000
  Ag  Ag7       1.0  0.17697  0.50345  0.58936  1.0000
  Ag  Ag8       1.0  0.58592  0.17704  0.08940  1.0000
  H   H1        1.0  0.46356  0.65933  0.11333  1.0000
  H   H2        1.0  0.65956  0.64952  0.61333  1.0000
  H   H3        1.0  0.95374  0.46348  0.61312  1.0000
  H   H4        1.0  0.64943  0.95374  0.11318  1.0000
  H   H5        1.0  0.53644  0.34067  0.88668  1.0000
  H   H6        1.0  0.34043  0.35047  0.38667  1.0000
  H   H7        1.0  0.04626  0.53652  0.38688  1.0000
  H   H8        1.0  0.35056  0.04627  0.88682  1.0000
  H   H9        1.0  0.78340  0.69504  0.03092  1.0000
  H   H10       1.0  0.69531  0.24718  0.53104  1.0000
  H   H11       1.0  0.83610  0.78378  0.53121  1.0000
  H   H12       1.0  0.24719  0.83567  0.03066  1.0000
  H   H13       1.0  0.21660  0.30497  0.96909  1.0000
  H   H14       1.0  0.30469  0.75282  0.46896  1.0000
  H   H15       1.0  0.16390  0.21623  0.46879  1.0000
  H   H16       1.0  0.75281  0.16433  0.96934  1.0000
  H   H17       1.0  0.98714  0.81257  0.25613  1.0000
  H   H18       1.0  0.81261  0.26881  0.75626  1.0000
  H   H19       1.0  0.94383  0.98740  0.75660  1.0000
  H   H20       1.0  0.26868  0.94351  0.25583  1.0000
  H   H21       1.0  0.01286  0.18743  0.74388  1.0000
  H   H22       1.0  0.18738  0.73119  0.24374  1.0000
  H   H23       1.0  0.05618  0.01260  0.24341  1.0000
  H   H24       1.0  0.73132  0.05648  0.74417  1.0000
  H   H25       1.0  0.96550  0.86019  0.45189  1.0000
  H   H26       1.0  0.85987  0.48633  0.95190  1.0000
  H   H27       1.0  0.09250  0.96559  0.95208  1.0000
  H   H28       1.0  0.48606  0.09189  0.45162  1.0000
  H   H29       1.0  0.03450  0.13982  0.54811  1.0000
  H   H30       1.0  0.14013  0.51367  0.04809  1.0000
  H   H31       1.0  0.90750  0.03441  0.04792  1.0000
  H   H32       1.0  0.51394  0.90810  0.54838  1.0000
  H   H33       1.0  0.43156  0.73536  0.28454  1.0000
  H   H34       1.0  0.73558  0.85291  0.78449  1.0000
  H   H35       1.0  0.04872  0.43122  0.78411  1.0000
  H   H36       1.0  0.85275  0.04861  0.28423  1.0000
  H   H37       1.0  0.56844  0.26465  0.71547  1.0000
  H   H38       1.0  0.26442  0.14708  0.21551  1.0000
  H   H39       1.0  0.95129  0.56878  0.21589  1.0000
  H   H40       1.0  0.14725  0.95139  0.71577  1.0000
  H   H41       1.0  0.59190  0.83648  0.39484  1.0000
  H   H42       1.0  0.83652  0.80294  0.89492  1.0000
  H   H43       1.0  0.05786  0.59153  0.89448  1.0000
  H   H44       1.0  0.80287  0.05797  0.39464  1.0000
  H   H45       1.0  0.40810  0.16352  0.60517  1.0000
  H   H46       1.0  0.16348  0.19706  0.10508  1.0000
  H   H47       1.0  0.94214  0.40847  0.10553  1.0000
  H   H48       1.0  0.19713  0.94204  0.60537  1.0000
  C   C1        1.0  0.66295  0.72549  0.21779  1.0000
  C   C2        1.0  0.72563  0.55471  0.71785  1.0000
  C   C3        1.0  0.99244  0.66297  0.71777  1.0000
  C   C4        1.0  0.55462  0.99222  0.21770  1.0000
  C   C5        1.0  0.33705  0.27451  0.78222  1.0000
  C   C6        1.0  0.27437  0.44529  0.28215  1.0000
  C   C7        1.0  0.00756  0.33704  0.28223  1.0000
  C   C8        1.0  0.44538  0.00778  0.78229  1.0000
  C   C9        1.0  0.78205  0.72368  0.12120  1.0000
  C   C10       1.0  0.72383  0.33886  0.62129  1.0000
  C   C11       1.0  0.89772  0.78230  0.62140  1.0000
  C   C12       1.0  0.33884  0.89738  0.12096  1.0000
  C   C13       1.0  0.21795  0.27633  0.87881  1.0000
  C   C14       1.0  0.27618  0.66114  0.37871  1.0000
  C   C15       1.0  0.10228  0.21770  0.37861  1.0000
  C   C16       1.0  0.66116  0.10261  0.87904  1.0000
  C   C17       1.0  0.89399  0.78795  0.24482  1.0000
  C   C18       1.0  0.78802  0.35067  0.74494  1.0000
  C   C19       1.0  0.95722  0.89419  0.74513  1.0000
  C   C20       1.0  0.35054  0.95683  0.24456  1.0000
  C   C21       1.0  0.10601  0.21206  0.75518  1.0000
  C   C22       1.0  0.21198  0.64933  0.25506  1.0000
  C   C23       1.0  0.04278  0.10581  0.25487  1.0000
  C   C24       1.0  0.64945  0.04317  0.75543  1.0000
  C   C25       1.0  0.88123  0.81521  0.35255  1.0000
  C   C26       1.0  0.81509  0.47126  0.85261  1.0000
  C   C27       1.0  0.03794  0.88134  0.85272  1.0000
  C   C28       1.0  0.47104  0.03740  0.35232  1.0000
  C   C29       1.0  0.11877  0.18479  0.64746  1.0000
  C   C30       1.0  0.18491  0.52874  0.14739  1.0000
  C   C31       1.0  0.96206  0.11867  0.14728  1.0000
  C   C32       1.0  0.52896  0.96259  0.64768  1.0000
  C   C33       1.0  0.53350  0.73731  0.31750  1.0000
  C   C34       1.0  0.73743  0.78399  0.81751  1.0000
  C   C35       1.0  0.07980  0.53324  0.81724  1.0000
  C   C36       1.0  0.78392  0.07983  0.31739  1.0000
  C   C37       1.0  0.46649  0.26270  0.68251  1.0000
  C   C38       1.0  0.26257  0.21601  0.18249  1.0000
  C   C39       1.0  0.92020  0.46677  0.18276  1.0000
  C   C40       1.0  0.21608  0.92017  0.68261  1.0000
  C   C41       1.0  0.56751  0.65379  0.38116  1.0000
  C   C42       1.0  0.65378  0.81389  0.88102  1.0000
  C   C43       1.0  0.22703  0.56729  0.88116  1.0000
  C   C44       1.0  0.81396  0.22707  0.38118  1.0000
  C   C45       1.0  0.43249  0.34621  0.61884  1.0000
  C   C46       1.0  0.34622  0.18611  0.11897  1.0000
  C   C47       1.0  0.77298  0.43272  0.11884  1.0000
  C   C48       1.0  0.18605  0.77293  0.61881  1.0000
  N   N1        1.0  0.76808  0.78524  0.34087  1.0000
  N   N2        1.0  0.78519  0.57274  0.84089  1.0000
  N   N3        1.0  0.05605  0.76807  0.84088  1.0000
  N   N4        1.0  0.57258  0.05564  0.34075  1.0000
  N   N5        1.0  0.23192  0.21476  0.65914  1.0000
  N   N6        1.0  0.21482  0.42726  0.15911  1.0000
  N   N7        1.0  0.94395  0.23193  0.15911  1.0000
  N   N8        1.0  0.42742  0.94435  0.65925  1.0000
  N   N9        1.0  0.54749  0.69687  0.20436  1.0000
  N   N10       1.0  0.69707  0.65675  0.70441  1.0000
  N   N11       1.0  0.00731  0.54740  0.70423  1.0000
  N   N12       1.0  0.65668  0.00729  0.20430  1.0000
  N   N13       1.0  0.45251  0.30313  0.79564  1.0000
  N   N14       1.0  0.30293  0.34324  0.29559  1.0000
  N   N15       1.0  0.99269  0.45260  0.29577  1.0000
  N   N16       1.0  0.34332  0.99271  0.79570  1.0000
  N   N17       1.0  0.66683  0.69148  0.10608  1.0000
  N   N18       1.0  0.69167  0.43896  0.60614  1.0000
  N   N19       1.0  0.91481  0.66701  0.60612  1.0000
  N   N20       1.0  0.43900  0.91451  0.10596  1.0000
  N   N21       1.0  0.33317  0.30852  0.89393  1.0000
  N   N22       1.0  0.30833  0.56103  0.39385  1.0000
  N   N23       1.0  0.08519  0.33300  0.39388  1.0000
  N   N24       1.0  0.56100  0.08549  0.89404  1.0000
  O   O1        1.0  0.55439  0.53347  0.30802  1.0000
  O   O2        1.0  0.53340  0.75423  0.80770  1.0000
  O   O3        1.0  0.27430  0.55446  0.80824  1.0000
  O   O4        1.0  0.75425  0.27432  0.30811  1.0000
  O   O5        1.0  0.44561  0.46653  0.69198  1.0000
  O   O6        1.0  0.46660  0.24576  0.19229  1.0000
  O   O7        1.0  0.72570  0.44555  0.19176  1.0000
  O   O8        1.0  0.24575  0.72568  0.69188  1.0000
  O   O9        1.0  0.60134  0.70861  0.50090  1.0000
  O   O10       1.0  0.70858  0.89961  0.00084  1.0000
  O   O11       1.0  0.29187  0.60093  0.00083  1.0000
  O   O12       1.0  0.89981  0.29196  0.50096  1.0000
  O   O13       1.0  0.39865  0.29139  0.49911  1.0000
  O   O14       1.0  0.29142  0.10038  0.99915  1.0000
  O   O15       1.0  0.70813  0.39907  0.99916  1.0000
  O   O16       1.0  0.10020  0.70805  0.49903  1.0000
