data_image0
_chemical_formula_structural       Na5MnH24C8O22
_chemical_formula_sum              "Na5 Mn1 H24 C8 O22"
_cell_length_a       6.76345
_cell_length_b       9.55585
_cell_length_c       10.487
_cell_angle_alpha    110.927
_cell_angle_beta     108.816
_cell_angle_gamma    89.9881

_space_group_name_H-M_alt    "P 1"
_space_group_IT_number       1

loop_
  _space_group_symop_operation_xyz
  'x, y, z'

loop_
  _atom_site_type_symbol
  _atom_site_label
  _atom_site_symmetry_multiplicity
  _atom_site_fract_x
  _atom_site_fract_y
  _atom_site_fract_z
  _atom_site_occupancy
  Na  Na1       1.0  0.28858  0.49580  0.47048  1.0000
  Na  Na2       1.0  0.81801  0.50425  0.52934  1.0000
  Na  Na3       1.0  0.00148  0.27668  0.03964  1.0000
  Na  Na4       1.0  0.96183  0.72331  0.96032  1.0000
  Na  Na5       1.0  0.46184  0.49994  0.00004  1.0000
  Mn  Mn1       1.0  0.31246  0.99999  0.00002  1.0000
  H   H1        1.0  0.30315  0.95417  0.63627  1.0000
  H   H2        1.0  0.66726  0.04586  0.36377  1.0000
  H   H3        1.0  0.93157  0.99282  0.65559  1.0000
  H   H4        1.0  0.27638  0.00704  0.34446  1.0000
  H   H5        1.0  0.77277  0.08342  0.14504  1.0000
  H   H6        1.0  0.62754  0.91671  0.85480  1.0000
  H   H7        1.0  0.00951  0.06708  0.15054  1.0000
  H   H8        1.0  0.85879  0.93298  0.84937  1.0000
  H   H9        1.0  0.93037  0.51844  0.24709  1.0000
  H   H10       1.0  0.68345  0.48156  0.75279  1.0000
  H   H11       1.0  0.12131  0.57683  0.20917  1.0000
  H   H12       1.0  0.91233  0.42317  0.79073  1.0000
  H   H13       1.0  0.55910  0.18370  0.89520  1.0000
  H   H14       1.0  0.66393  0.81635  0.10479  1.0000
  H   H15       1.0  0.60164  0.27450  0.80789  1.0000
  H   H16       1.0  0.79379  0.72564  0.19221  1.0000
  H   H17       1.0  0.97703  0.25024  0.33723  1.0000
  H   H18       1.0  0.63966  0.74985  0.66275  1.0000
  H   H19       1.0  0.06548  0.26355  0.50355  1.0000
  H   H20       1.0  0.56180  0.73645  0.49644  1.0000
  H   H21       1.0  0.30982  0.39856  0.70983  1.0000
  H   H22       1.0  0.59994  0.60146  0.29033  1.0000
  H   H23       1.0  0.33696  0.58196  0.77253  1.0000
  H   H24       1.0  0.56423  0.41805  0.22759  1.0000
  C   C1        1.0  0.19120  0.78747  0.70329  1.0000
  C   C2        1.0  0.48792  0.21253  0.29676  1.0000
  C   C3        1.0  0.25995  0.95202  0.72807  1.0000
  C   C4        1.0  0.53219  0.04801  0.27200  1.0000
  C   C5        1.0  0.07937  0.04528  0.74891  1.0000
  C   C6        1.0  0.33081  0.95462  0.25111  1.0000
  C   C7        1.0  0.13003  0.20634  0.75586  1.0000
  C   C8        1.0  0.37445  0.79350  0.24409  1.0000
  O   O1        1.0  0.09378  0.69544  0.57668  1.0000
  O   O2        1.0  0.51704  0.30457  0.42336  1.0000
  O   O3        1.0  0.23813  0.75772  0.81984  1.0000
  O   O4        1.0  0.41824  0.24224  0.18020  1.0000
  O   O5        1.0  0.43187  0.01963  0.86325  1.0000
  O   O6        1.0  0.56894  0.98048  0.13679  1.0000
  O   O7        1.0  0.05784  0.04564  0.87967  1.0000
  O   O8        1.0  0.17845  0.95434  0.12038  1.0000
  O   O9        1.0  0.11365  0.31936  0.86135  1.0000
  O   O10       1.0  0.25259  0.68055  0.13852  1.0000
  O   O11       1.0  0.18675  0.21499  0.65436  1.0000
  O   O12       1.0  0.53247  0.78481  0.34569  1.0000
  O   O13       1.0  0.90810  0.14381  0.16526  1.0000
  O   O14       1.0  0.74260  0.85627  0.83453  1.0000
  O   O15       1.0  0.07172  0.50161  0.24051  1.0000
  O   O16       1.0  0.83139  0.49842  0.75942  1.0000
  O   O17       1.0  0.63771  0.27978  0.90732  1.0000
  O   O18       1.0  0.73030  0.72018  0.09273  1.0000
  O   O19       1.0  0.01807  0.32247  0.44148  1.0000
  O   O20       1.0  0.57633  0.67757  0.55853  1.0000
  O   O21       1.0  0.41357  0.49187  0.75343  1.0000
  O   O22       1.0  0.66016  0.50807  0.24685  1.0000
