data_image0
_chemical_formula_structural       Sn4H56C56N8O16
_chemical_formula_sum              "Sn4 H56 C56 N8 O16"
_cell_length_a       8.89308
_cell_length_b       12.3456
_cell_length_c       13.733
_cell_angle_alpha    109.945
_cell_angle_beta     90
_cell_angle_gamma    90.0001

_space_group_name_H-M_alt    "P 1"
_space_group_IT_number       1

loop_
  _space_group_symop_operation_xyz
  'x, y, z'

loop_
  _atom_site_type_symbol
  _atom_site_label
  _atom_site_symmetry_multiplicity
  _atom_site_fract_x
  _atom_site_fract_y
  _atom_site_fract_z
  _atom_site_occupancy
  Sn  Sn1       1.0  0.36347  0.82405  0.74707  1.0000
  Sn  Sn2       1.0  0.86348  0.17596  0.75294  1.0000
  Sn  Sn3       1.0  0.63652  0.17596  0.25294  1.0000
  Sn  Sn4       1.0  0.13653  0.82405  0.24707  1.0000
  H   H1        1.0  0.21510  0.75618  0.56670  1.0000
  H   H2        1.0  0.71510  0.24382  0.93331  1.0000
  H   H3        1.0  0.78490  0.24382  0.43331  1.0000
  H   H4        1.0  0.28489  0.75618  0.06670  1.0000
  H   H5        1.0  0.21619  0.91071  0.61800  1.0000
  H   H6        1.0  0.71619  0.08929  0.88199  1.0000
  H   H7        1.0  0.78381  0.08929  0.38199  1.0000
  H   H8        1.0  0.28381  0.91071  0.11800  1.0000
  H   H9        1.0  0.38077  0.83275  0.55426  1.0000
  H   H10       1.0  0.88077  0.16725  0.94575  1.0000
  H   H11       1.0  0.61924  0.16725  0.44575  1.0000
  H   H12       1.0  0.11923  0.83275  0.05426  1.0000
  H   H13       1.0  0.41928  0.75287  0.90768  1.0000
  H   H14       1.0  0.91928  0.24712  0.59232  1.0000
  H   H15       1.0  0.58072  0.24712  0.09232  1.0000
  H   H16       1.0  0.08072  0.75287  0.40768  1.0000
  H   H17       1.0  0.57662  0.83362  0.88715  1.0000
  H   H18       1.0  0.07663  0.16638  0.61284  1.0000
  H   H19       1.0  0.42337  0.16638  0.11284  1.0000
  H   H20       1.0  0.92338  0.83362  0.38715  1.0000
  H   H21       1.0  0.41214  0.90820  0.95189  1.0000
  H   H22       1.0  0.91213  0.09179  0.54812  1.0000
  H   H23       1.0  0.58787  0.09179  0.04812  1.0000
  H   H24       1.0  0.08786  0.90820  0.45189  1.0000
  H   H25       1.0  0.52127  0.55821  0.62630  1.0000
  H   H26       1.0  0.02129  0.44179  0.87370  1.0000
  H   H27       1.0  0.47871  0.44179  0.37370  1.0000
  H   H28       1.0  0.97873  0.55821  0.12630  1.0000
  H   H29       1.0  0.76048  0.46714  0.53934  1.0000
  H   H30       1.0  0.26049  0.53286  0.96066  1.0000
  H   H31       1.0  0.23951  0.53286  0.46066  1.0000
  H   H32       1.0  0.73952  0.46714  0.03933  1.0000
  H   H33       1.0  0.97406  0.59596  0.52795  1.0000
  H   H34       1.0  0.47407  0.40404  0.97205  1.0000
  H   H35       1.0  0.02593  0.40403  0.47205  1.0000
  H   H36       1.0  0.52594  0.59596  0.02794  1.0000
  H   H37       1.0  0.93501  0.81224  0.60322  1.0000
  H   H38       1.0  0.43501  0.18776  0.89678  1.0000
  H   H39       1.0  0.06498  0.18775  0.39679  1.0000
  H   H40       1.0  0.56499  0.81224  0.10322  1.0000
  H   H41       1.0  0.05719  0.95894  0.89714  1.0000
  H   H42       1.0  0.55719  0.04107  0.60286  1.0000
  H   H43       1.0  0.94280  0.04107  0.10286  1.0000
  H   H44       1.0  0.44281  0.95894  0.39714  1.0000
  H   H45       1.0  0.81349  0.90635  0.96089  1.0000
  H   H46       1.0  0.31349  0.09364  0.53910  1.0000
  H   H47       1.0  0.18650  0.09364  0.03911  1.0000
  H   H48       1.0  0.68651  0.90635  0.46089  1.0000
  H   H49       1.0  0.74089  0.69426  0.90270  1.0000
  H   H50       1.0  0.24089  0.30574  0.59730  1.0000
  H   H51       1.0  0.25911  0.30574  0.09730  1.0000
  H   H52       1.0  0.75912  0.69426  0.40270  1.0000
  H   H53       1.0  0.91479  0.55071  0.78598  1.0000
  H   H54       1.0  0.41479  0.44929  0.71401  1.0000
  H   H55       1.0  0.08521  0.44929  0.21401  1.0000
  H   H56       1.0  0.58522  0.55071  0.28598  1.0000
  C   C1        1.0  0.28387  0.83282  0.60338  1.0000
  C   C2        1.0  0.78387  0.16718  0.89662  1.0000
  C   C3        1.0  0.71613  0.16718  0.39662  1.0000
  C   C4        1.0  0.21613  0.83282  0.10338  1.0000
  C   C5        1.0  0.45428  0.83045  0.89227  1.0000
  C   C6        1.0  0.95429  0.16955  0.60774  1.0000
  C   C7        1.0  0.54571  0.16955  0.10774  1.0000
  C   C8        1.0  0.04572  0.83045  0.39227  1.0000
  C   C9        1.0  0.68012  0.92140  0.69186  1.0000
  C   C10       1.0  0.18012  0.07860  0.80814  1.0000
  C   C11       1.0  0.31988  0.07860  0.30814  1.0000
  C   C12       1.0  0.81988  0.92140  0.19187  1.0000
  C   C13       1.0  0.71015  0.79367  0.65074  1.0000
  C   C14       1.0  0.21016  0.20633  0.84925  1.0000
  C   C15       1.0  0.28984  0.20633  0.34926  1.0000
  C   C16       1.0  0.78985  0.79367  0.15075  1.0000
  C   C17       1.0  0.61703  0.60980  0.61907  1.0000
  C   C18       1.0  0.11704  0.39021  0.88093  1.0000
  C   C19       1.0  0.38295  0.39021  0.38093  1.0000
  C   C20       1.0  0.88297  0.60980  0.11907  1.0000
  C   C21       1.0  0.75085  0.56055  0.57159  1.0000
  C   C22       1.0  0.25086  0.43945  0.92841  1.0000
  C   C23       1.0  0.24914  0.43945  0.42840  1.0000
  C   C24       1.0  0.74915  0.56055  0.07159  1.0000
  C   C25       1.0  0.86879  0.63219  0.56537  1.0000
  C   C26       1.0  0.36880  0.36781  0.93462  1.0000
  C   C27       1.0  0.13120  0.36781  0.43463  1.0000
  C   C28       1.0  0.63121  0.63219  0.06537  1.0000
  C   C29       1.0  0.84837  0.75101  0.60586  1.0000
  C   C30       1.0  0.34838  0.24899  0.89413  1.0000
  C   C31       1.0  0.15162  0.24899  0.39414  1.0000
  C   C32       1.0  0.65163  0.75101  0.10586  1.0000
  C   C33       1.0  0.18063  0.59358  0.70887  1.0000
  C   C34       1.0  0.68063  0.40642  0.79113  1.0000
  C   C35       1.0  0.81938  0.40642  0.29113  1.0000
  C   C36       1.0  0.31937  0.59359  0.20887  1.0000
  C   C37       1.0  0.07496  0.67927  0.78166  1.0000
  C   C38       1.0  0.57496  0.32073  0.71834  1.0000
  C   C39       1.0  0.92504  0.32073  0.21834  1.0000
  C   C40       1.0  0.42504  0.67927  0.28166  1.0000
  C   C41       1.0  0.02106  0.86982  0.87504  1.0000
  C   C42       1.0  0.52106  0.13018  0.62496  1.0000
  C   C43       1.0  0.97894  0.13018  0.12496  1.0000
  C   C44       1.0  0.47895  0.86982  0.37504  1.0000
  C   C45       1.0  0.88570  0.83958  0.91001  1.0000
  C   C46       1.0  0.38570  0.16042  0.58999  1.0000
  C   C47       1.0  0.11429  0.16042  0.09000  1.0000
  C   C48       1.0  0.61430  0.83958  0.41001  1.0000
  C   C49       1.0  0.84537  0.72351  0.87877  1.0000
  C   C50       1.0  0.34537  0.27649  0.62123  1.0000
  C   C51       1.0  0.15463  0.27649  0.12123  1.0000
  C   C52       1.0  0.65464  0.72351  0.37877  1.0000
  C   C53       1.0  0.94182  0.64211  0.81361  1.0000
  C   C54       1.0  0.44182  0.35789  0.68639  1.0000
  C   C55       1.0  0.05818  0.35789  0.18639  1.0000
  C   C56       1.0  0.55818  0.64211  0.31361  1.0000
  N   N1        1.0  0.59690  0.72449  0.65817  1.0000
  N   N2        1.0  0.09691  0.27551  0.84183  1.0000
  N   N3        1.0  0.40309  0.27551  0.34183  1.0000
  N   N4        1.0  0.90310  0.72449  0.15817  1.0000
  N   N5        1.0  0.11407  0.79129  0.81194  1.0000
  N   N6        1.0  0.61407  0.20871  0.68806  1.0000
  N   N7        1.0  0.88593  0.20871  0.18806  1.0000
  N   N8        1.0  0.38593  0.79129  0.31194  1.0000
  O   O1        1.0  0.56034  0.95636  0.74331  1.0000
  O   O2        1.0  0.06034  0.04363  0.75669  1.0000
  O   O3        1.0  0.43966  0.04363  0.25669  1.0000
  O   O4        1.0  0.93966  0.95637  0.24331  1.0000
  O   O5        1.0  0.77710  0.98465  0.66902  1.0000
  O   O6        1.0  0.27710  0.01535  0.83098  1.0000
  O   O7        1.0  0.22290  0.01535  0.33099  1.0000
  O   O8        1.0  0.72290  0.98465  0.16902  1.0000
  O   O9        1.0  0.30780  0.63454  0.69081  1.0000
  O   O10       1.0  0.80780  0.36547  0.80919  1.0000
  O   O11       1.0  0.69220  0.36547  0.30919  1.0000
  O   O12       1.0  0.19221  0.63453  0.19081  1.0000
  O   O13       1.0  0.14002  0.49127  0.67108  1.0000
  O   O14       1.0  0.64001  0.50873  0.82892  1.0000
  O   O15       1.0  0.86000  0.50873  0.32893  1.0000
  O   O16       1.0  0.35999  0.49127  0.17107  1.0000
