data_image0
_chemical_formula_structural       Sn4H56C56N8O16
_chemical_formula_sum              "Sn4 H56 C56 N8 O16"
_cell_length_a       8.91478
_cell_length_b       12.2467
_cell_length_c       13.7888
_cell_angle_alpha    109.48
_cell_angle_beta     90
_cell_angle_gamma    90.0001

_space_group_name_H-M_alt    "P 1"
_space_group_IT_number       1

loop_
  _space_group_symop_operation_xyz
  'x, y, z'

loop_
  _atom_site_type_symbol
  _atom_site_label
  _atom_site_symmetry_multiplicity
  _atom_site_fract_x
  _atom_site_fract_y
  _atom_site_fract_z
  _atom_site_occupancy
  Sn  Sn1       1.0  0.86457  0.82448  0.74901  1.0000
  Sn  Sn2       1.0  0.63543  0.82448  0.24901  1.0000
  Sn  Sn3       1.0  0.13543  0.17552  0.25099  1.0000
  Sn  Sn4       1.0  0.36457  0.17552  0.75099  1.0000
  H   H1        1.0  0.43241  0.81309  0.60093  1.0000
  H   H2        1.0  0.06759  0.81309  0.10093  1.0000
  H   H3        1.0  0.56759  0.18691  0.39907  1.0000
  H   H4        1.0  0.93241  0.18691  0.89907  1.0000
  H   H5        1.0  0.47190  0.59588  0.52680  1.0000
  H   H6        1.0  0.02809  0.59588  0.02680  1.0000
  H   H7        1.0  0.52809  0.40412  0.47320  1.0000
  H   H8        1.0  0.97190  0.40412  0.97321  1.0000
  H   H9        1.0  0.26003  0.46604  0.54025  1.0000
  H   H10       1.0  0.23997  0.46604  0.04025  1.0000
  H   H11       1.0  0.73997  0.53396  0.45975  1.0000
  H   H12       1.0  0.76003  0.53396  0.95975  1.0000
  H   H13       1.0  0.02293  0.55727  0.62924  1.0000
  H   H14       1.0  0.47707  0.55726  0.12923  1.0000
  H   H15       1.0  0.97707  0.44273  0.37077  1.0000
  H   H16       1.0  0.52293  0.44273  0.87077  1.0000
  H   H17       1.0  0.41006  0.55098  0.78335  1.0000
  H   H18       1.0  0.08994  0.55098  0.28335  1.0000
  H   H19       1.0  0.58994  0.44902  0.21665  1.0000
  H   H20       1.0  0.91007  0.44902  0.71665  1.0000
  H   H21       1.0  0.24050  0.69513  0.90301  1.0000
  H   H22       1.0  0.25950  0.69513  0.40301  1.0000
  H   H23       1.0  0.75950  0.30488  0.09699  1.0000
  H   H24       1.0  0.74051  0.30487  0.59699  1.0000
  H   H25       1.0  0.31892  0.90645  0.96584  1.0000
  H   H26       1.0  0.18108  0.90645  0.46584  1.0000
  H   H27       1.0  0.68108  0.09355  0.03416  1.0000
  H   H28       1.0  0.81892  0.09355  0.53416  1.0000
  H   H29       1.0  0.56206  0.95942  0.90133  1.0000
  H   H30       1.0  0.93794  0.95942  0.40133  1.0000
  H   H31       1.0  0.43794  0.04058  0.09867  1.0000
  H   H32       1.0  0.06206  0.04058  0.59867  1.0000
  H   H33       1.0  0.83448  0.91691  0.59873  1.0000
  H   H34       1.0  0.66552  0.91691  0.09873  1.0000
  H   H35       1.0  0.16552  0.08309  0.40127  1.0000
  H   H36       1.0  0.33448  0.08309  0.90127  1.0000
  H   H37       1.0  0.66654  0.84182  0.60899  1.0000
  H   H38       1.0  0.83346  0.84182  0.10899  1.0000
  H   H39       1.0  0.33345  0.15818  0.39101  1.0000
  H   H40       1.0  0.16654  0.15818  0.89101  1.0000
  H   H41       1.0  0.82820  0.76129  0.54407  1.0000
  H   H42       1.0  0.67180  0.76129  0.04407  1.0000
  H   H43       1.0  0.17180  0.23871  0.45593  1.0000
  H   H44       1.0  0.32820  0.23871  0.95593  1.0000
  H   H45       1.0  0.06654  0.86560  0.89991  1.0000
  H   H46       1.0  0.43346  0.86560  0.39991  1.0000
  H   H47       1.0  0.93346  0.13440  0.10008  1.0000
  H   H48       1.0  0.56654  0.13440  0.60009  1.0000
  H   H49       1.0  0.96268  0.73621  0.89082  1.0000
  H   H50       1.0  0.53732  0.73621  0.39082  1.0000
  H   H51       1.0  0.03732  0.26379  0.10918  1.0000
  H   H52       1.0  0.46268  0.26380  0.60918  1.0000
  H   H53       1.0  0.88178  0.87726  0.95387  1.0000
  H   H54       1.0  0.61823  0.87726  0.45387  1.0000
  H   H55       1.0  0.11822  0.12274  0.04613  1.0000
  H   H56       1.0  0.38177  0.12274  0.54613  1.0000
  C   C1        1.0  0.18215  0.92286  0.69316  1.0000
  C   C2        1.0  0.31784  0.92286  0.19316  1.0000
  C   C3        1.0  0.81784  0.07714  0.30684  1.0000
  C   C4        1.0  0.68215  0.07714  0.80684  1.0000
  C   C5        1.0  0.21071  0.79429  0.65188  1.0000
  C   C6        1.0  0.28929  0.79429  0.15188  1.0000
  C   C7        1.0  0.78928  0.20571  0.34812  1.0000
  C   C8        1.0  0.71071  0.20571  0.84812  1.0000
  C   C9        1.0  0.34721  0.75132  0.60532  1.0000
  C   C10       1.0  0.15279  0.75132  0.10532  1.0000
  C   C11       1.0  0.65279  0.24868  0.39468  1.0000
  C   C12       1.0  0.84721  0.24868  0.89468  1.0000
  C   C13       1.0  0.36753  0.63197  0.56500  1.0000
  C   C14       1.0  0.13247  0.63197  0.06500  1.0000
  C   C15       1.0  0.63247  0.36803  0.43500  1.0000
  C   C16       1.0  0.86753  0.36803  0.93500  1.0000
  C   C17       1.0  0.25051  0.55989  0.57267  1.0000
  C   C18       1.0  0.24949  0.55989  0.07267  1.0000
  C   C19       1.0  0.74949  0.44011  0.42733  1.0000
  C   C20       1.0  0.75051  0.44011  0.92733  1.0000
  C   C21       1.0  0.11802  0.60942  0.62134  1.0000
  C   C22       1.0  0.38198  0.60941  0.12133  1.0000
  C   C23       1.0  0.88198  0.39059  0.37866  1.0000
  C   C24       1.0  0.61802  0.39058  0.87866  1.0000
  C   C25       1.0  0.67714  0.59381  0.70775  1.0000
  C   C26       1.0  0.82286  0.59382  0.20775  1.0000
  C   C27       1.0  0.32286  0.40619  0.29225  1.0000
  C   C28       1.0  0.17714  0.40619  0.79225  1.0000
  C   C29       1.0  0.57305  0.67940  0.78127  1.0000
  C   C30       1.0  0.92695  0.67940  0.28127  1.0000
  C   C31       1.0  0.42695  0.32060  0.21873  1.0000
  C   C32       1.0  0.07305  0.32060  0.71873  1.0000
  C   C33       1.0  0.43941  0.64228  0.81250  1.0000
  C   C34       1.0  0.06059  0.64228  0.31250  1.0000
  C   C35       1.0  0.56059  0.35772  0.18750  1.0000
  C   C36       1.0  0.93941  0.35772  0.68750  1.0000
  C   C37       1.0  0.34545  0.72377  0.87931  1.0000
  C   C38       1.0  0.15455  0.72377  0.37931  1.0000
  C   C39       1.0  0.65455  0.27624  0.12069  1.0000
  C   C40       1.0  0.84546  0.27623  0.62069  1.0000
  C   C41       1.0  0.38882  0.83983  0.91291  1.0000
  C   C42       1.0  0.11119  0.83983  0.41291  1.0000
  C   C43       1.0  0.61119  0.16017  0.08709  1.0000
  C   C44       1.0  0.88882  0.16016  0.58709  1.0000
  C   C45       1.0  0.52406  0.87008  0.87806  1.0000
  C   C46       1.0  0.97595  0.87008  0.37806  1.0000
  C   C47       1.0  0.47594  0.12992  0.12194  1.0000
  C   C48       1.0  0.02406  0.12992  0.62194  1.0000
  C   C49       1.0  0.78900  0.83737  0.60666  1.0000
  C   C50       1.0  0.71100  0.83737  0.10666  1.0000
  C   C51       1.0  0.21100  0.16263  0.39334  1.0000
  C   C52       1.0  0.28900  0.16263  0.89334  1.0000
  C   C53       1.0  0.95539  0.82595  0.89202  1.0000
  C   C54       1.0  0.54461  0.82595  0.39202  1.0000
  C   C55       1.0  0.04461  0.17405  0.10798  1.0000
  C   C56       1.0  0.45539  0.17405  0.60798  1.0000
  N   N1        1.0  0.09831  0.72470  0.66060  1.0000
  N   N2        1.0  0.40169  0.72470  0.16060  1.0000
  N   N3        1.0  0.90168  0.27530  0.33940  1.0000
  N   N4        1.0  0.59832  0.27530  0.83940  1.0000
  N   N5        1.0  0.61466  0.79147  0.81346  1.0000
  N   N6        1.0  0.88534  0.79147  0.31346  1.0000
  N   N7        1.0  0.38534  0.20853  0.18654  1.0000
  N   N8        1.0  0.11467  0.20853  0.68654  1.0000
  O   O1        1.0  0.06431  0.95857  0.74536  1.0000
  O   O2        1.0  0.43569  0.95856  0.24536  1.0000
  O   O3        1.0  0.93569  0.04144  0.25464  1.0000
  O   O4        1.0  0.56430  0.04144  0.75464  1.0000
  O   O5        1.0  0.27939  0.98577  0.66896  1.0000
  O   O6        1.0  0.22062  0.98577  0.16896  1.0000
  O   O7        1.0  0.72062  0.01424  0.33104  1.0000
  O   O8        1.0  0.77938  0.01423  0.83104  1.0000
  O   O9        1.0  0.80467  0.63468  0.69023  1.0000
  O   O10       1.0  0.69533  0.63468  0.19022  1.0000
  O   O11       1.0  0.19533  0.36532  0.30977  1.0000
  O   O12       1.0  0.30466  0.36532  0.80978  1.0000
  O   O13       1.0  0.63530  0.49147  0.66915  1.0000
  O   O14       1.0  0.86470  0.49147  0.16915  1.0000
  O   O15       1.0  0.36470  0.50853  0.33086  1.0000
  O   O16       1.0  0.13530  0.50853  0.83085  1.0000
