data_image0
_chemical_formula_structural       Cu2H8C8Br4N4
_chemical_formula_sum              "Cu2 H8 C8 Br4 N4"
_cell_length_a       6.89611
_cell_length_b       7.62972
_cell_length_c       7.87858
_cell_angle_alpha    114.466
_cell_angle_beta     111.12
_cell_angle_gamma    99.2213

_space_group_name_H-M_alt    "P 1"
_space_group_IT_number       1

loop_
  _space_group_symop_operation_xyz
  'x, y, z'

loop_
  _atom_site_type_symbol
  _atom_site_label
  _atom_site_symmetry_multiplicity
  _atom_site_fract_x
  _atom_site_fract_y
  _atom_site_fract_z
  _atom_site_occupancy
  Cu  Cu1       1.0  0.49999  0.00000  0.00000  1.0000
  Cu  Cu2       1.0  0.99999  0.00000  1.00000  1.0000
  H   H1        1.0  0.35838  0.70524  0.56018  1.0000
  H   H2        1.0  0.70168  0.85528  0.56063  1.0000
  H   H3        1.0  0.64163  0.29477  0.43983  1.0000
  H   H4        1.0  0.29831  0.14471  0.43935  1.0000
  H   H5        1.0  0.02115  0.55518  0.20357  1.0000
  H   H6        1.0  0.68183  0.64896  0.20373  1.0000
  H   H7        1.0  0.97887  0.44483  0.79644  1.0000
  H   H8        1.0  0.31817  0.35104  0.79626  1.0000
  C   C1        1.0  0.20389  0.73170  0.54480  1.0000
  C   C2        1.0  0.84065  0.81331  0.54498  1.0000
  C   C3        1.0  0.79611  0.26830  0.45520  1.0000
  C   C4        1.0  0.15934  0.18669  0.45501  1.0000
  C   C5        1.0  0.01709  0.65102  0.34912  1.0000
  C   C6        1.0  0.83151  0.69842  0.34920  1.0000
  C   C7        1.0  0.98291  0.34898  0.65087  1.0000
  C   C8        1.0  0.16849  0.30158  0.65080  1.0000
  Br  Br1       1.0  0.65506  0.17128  0.84977  1.0000
  Br  Br2       1.0  0.69493  0.67813  0.84954  1.0000
  Br  Br3       1.0  0.34494  0.82871  0.15023  1.0000
  Br  Br4       1.0  0.30507  0.32187  0.15046  1.0000
  N   N1        1.0  0.20519  0.84702  0.72808  1.0000
  N   N2        1.0  0.02284  0.88116  0.72815  1.0000
  N   N3        1.0  0.79481  0.15298  0.27193  1.0000
  N   N4        1.0  0.97715  0.11884  0.27184  1.0000
