data_image0
_chemical_formula_structural       Cu2H8C8N4Cl4
_chemical_formula_sum              "Cu2 H8 C8 N4 Cl4"
_cell_length_a       6.7111
_cell_length_b       7.34166
_cell_length_c       7.69455
_cell_angle_alpha    114.131
_cell_angle_beta     111.181
_cell_angle_gamma    98.9715

_space_group_name_H-M_alt    "P 1"
_space_group_IT_number       1

loop_
  _space_group_symop_operation_xyz
  'x, y, z'

loop_
  _atom_site_type_symbol
  _atom_site_label
  _atom_site_symmetry_multiplicity
  _atom_site_fract_x
  _atom_site_fract_y
  _atom_site_fract_z
  _atom_site_occupancy
  Cu  Cu1       1.0  0.99999  0.00000  0.00000  1.0000
  Cu  Cu2       1.0  0.50000  0.00001  0.00000  1.0000
  H   H1        1.0  0.68650  0.85090  0.54998  1.0000
  H   H2        1.0  0.36401  0.69909  0.54989  1.0000
  H   H3        1.0  0.31350  0.14909  0.45001  1.0000
  H   H4        1.0  0.63598  0.30092  0.45012  1.0000
  H   H5        1.0  0.66804  0.63966  0.18652  1.0000
  H   H6        1.0  0.01889  0.54643  0.18646  1.0000
  H   H7        1.0  0.33196  0.36034  0.81347  1.0000
  H   H8        1.0  0.98112  0.45357  0.81354  1.0000
  C   C1        1.0  0.82944  0.80780  0.53382  1.0000
  C   C2        1.0  0.20491  0.72600  0.53378  1.0000
  C   C3        1.0  0.17057  0.19219  0.46618  1.0000
  C   C4        1.0  0.79509  0.27400  0.46622  1.0000
  C   C5        1.0  0.82156  0.69075  0.33453  1.0000
  C   C6        1.0  0.01344  0.64350  0.33452  1.0000
  C   C7        1.0  0.17844  0.30924  0.66546  1.0000
  C   C8        1.0  0.98656  0.35649  0.66548  1.0000
  N   N1        1.0  0.01651  0.87726  0.72012  1.0000
  N   N2        1.0  0.20395  0.84289  0.72007  1.0000
  N   N3        1.0  0.98348  0.12274  0.27987  1.0000
  N   N4        1.0  0.79605  0.15712  0.27994  1.0000
  Cl  Cl1       1.0  0.70161  0.69209  0.85659  1.0000
  Cl  Cl2       1.0  0.65502  0.16449  0.85641  1.0000
  Cl  Cl3       1.0  0.29839  0.30791  0.14341  1.0000
  Cl  Cl4       1.0  0.34498  0.83551  0.14359  1.0000
