data_image0
_chemical_formula_structural       Fe2Cu4H40C24N20
_chemical_formula_sum              "Fe2 Cu4 H40 C24 N20"
_cell_length_a       7.44932
_cell_length_b       10.501
_cell_length_c       12.3713
_cell_angle_alpha    90.0001
_cell_angle_beta     92.2781
_cell_angle_gamma    90.0003

_space_group_name_H-M_alt    "P 1"
_space_group_IT_number       1

loop_
  _space_group_symop_operation_xyz
  'x, y, z'

loop_
  _atom_site_type_symbol
  _atom_site_label
  _atom_site_symmetry_multiplicity
  _atom_site_fract_x
  _atom_site_fract_y
  _atom_site_fract_z
  _atom_site_occupancy
  Fe  Fe1       1.0  1.00000  1.00000  0.00001  1.0000
  Fe  Fe2       1.0  0.49999  0.49999  0.50000  1.0000
  Cu  Cu1       1.0  0.50202  0.76884  0.17066  1.0000
  Cu  Cu2       1.0  0.99798  0.26884  0.32935  1.0000
  Cu  Cu3       1.0  0.49799  0.23115  0.82935  1.0000
  Cu  Cu4       1.0  0.00202  0.73116  0.67065  1.0000
  H   H1        1.0  0.53945  0.53716  0.12440  1.0000
  H   H2        1.0  0.96055  0.03717  0.37560  1.0000
  H   H3        1.0  0.46055  0.46283  0.87560  1.0000
  H   H4        1.0  0.03944  0.96284  0.62440  1.0000
  H   H5        1.0  0.46411  0.62418  0.02013  1.0000
  H   H6        1.0  0.03589  0.12418  0.47987  1.0000
  H   H7        1.0  0.53589  0.37582  0.97987  1.0000
  H   H8        1.0  0.96411  0.87582  0.52013  1.0000
  H   H9        1.0  0.05705  0.49975  0.29731  1.0000
  H   H10       1.0  0.44295  0.99975  0.20269  1.0000
  H   H11       1.0  0.94294  0.50026  0.70269  1.0000
  H   H12       1.0  0.55706  0.00025  0.79731  1.0000
  H   H13       1.0  0.16587  0.42297  0.20381  1.0000
  H   H14       1.0  0.33413  0.92297  0.29619  1.0000
  H   H15       1.0  0.83413  0.57703  0.79619  1.0000
  H   H16       1.0  0.66588  0.07703  0.70382  1.0000
  H   H17       1.0  0.76501  0.69108  0.98216  1.0000
  H   H18       1.0  0.73499  0.19109  0.51784  1.0000
  H   H19       1.0  0.23500  0.30892  0.01784  1.0000
  H   H20       1.0  0.26500  0.80892  0.48216  1.0000
  H   H21       1.0  0.74577  0.52219  0.97077  1.0000
  H   H22       1.0  0.75422  0.02220  0.52923  1.0000
  H   H23       1.0  0.25423  0.47780  0.02923  1.0000
  H   H24       1.0  0.24577  0.97781  0.47077  1.0000
  H   H25       1.0  0.02337  0.60736  0.07794  1.0000
  H   H26       1.0  0.47663  0.10736  0.42206  1.0000
  H   H27       1.0  0.97663  0.39264  0.92206  1.0000
  H   H28       1.0  0.52336  0.89264  0.57793  1.0000
  H   H29       1.0  0.87848  0.65815  0.17730  1.0000
  H   H30       1.0  0.62152  0.15816  0.32269  1.0000
  H   H31       1.0  0.12152  0.34185  0.82269  1.0000
  H   H32       1.0  0.37848  0.84185  0.67730  1.0000
  H   H33       1.0  0.90085  0.37909  0.09922  1.0000
  H   H34       1.0  0.59915  0.87909  0.40078  1.0000
  H   H35       1.0  0.09915  0.62091  0.90078  1.0000
  H   H36       1.0  0.40086  0.12091  0.59922  1.0000
  H   H37       1.0  0.77167  0.43562  0.20634  1.0000
  H   H38       1.0  0.72834  0.93563  0.29366  1.0000
  H   H39       1.0  0.22834  0.56438  0.79366  1.0000
  H   H40       1.0  0.27167  0.06438  0.70634  1.0000
  C   C1        1.0  0.74410  0.60325  0.02783  1.0000
  C   C2        1.0  0.75591  0.10325  0.47217  1.0000
  C   C3        1.0  0.25590  0.39675  0.97216  1.0000
  C   C4        1.0  0.24409  0.89675  0.52783  1.0000
  C   C5        1.0  0.89416  0.58611  0.11376  1.0000
  C   C6        1.0  0.60584  0.08612  0.38624  1.0000
  C   C7        1.0  0.10584  0.41389  0.88624  1.0000
  C   C8        1.0  0.39416  0.91389  0.61376  1.0000
  C   C9        1.0  0.89499  0.45260  0.16237  1.0000
  C   C10       1.0  0.60502  0.95260  0.33762  1.0000
  C   C11       1.0  0.10502  0.54740  0.83763  1.0000
  C   C12       1.0  0.39499  0.04740  0.66237  1.0000
  C   C13       1.0  0.15383  0.86770  0.04846  1.0000
  C   C14       1.0  0.34616  0.36771  0.45154  1.0000
  C   C15       1.0  0.84616  0.13230  0.95154  1.0000
  C   C16       1.0  0.65384  0.63230  0.54847  1.0000
  C   C17       1.0  0.80303  0.92102  0.06041  1.0000
  C   C18       1.0  0.69697  0.42102  0.43960  1.0000
  C   C19       1.0  0.19697  0.07898  0.93960  1.0000
  C   C20       1.0  0.30304  0.57898  0.56041  1.0000
  C   C21       1.0  0.96376  0.90752  0.87090  1.0000
  C   C22       1.0  0.53624  0.40752  0.62911  1.0000
  C   C23       1.0  0.03624  0.09247  0.12911  1.0000
  C   C24       1.0  0.46375  0.59248  0.37090  1.0000
  N   N1        1.0  0.56702  0.61332  0.07644  1.0000
  N   N2        1.0  0.93298  0.11332  0.42356  1.0000
  N   N3        1.0  0.43297  0.38668  0.92357  1.0000
  N   N4        1.0  0.06703  0.88668  0.57644  1.0000
  N   N5        1.0  0.04577  0.42902  0.24052  1.0000
  N   N6        1.0  0.45423  0.92903  0.25947  1.0000
  N   N7        1.0  0.95424  0.57097  0.75947  1.0000
  N   N8        1.0  0.54577  0.07097  0.74052  1.0000
  N   N9        1.0  0.25329  0.78488  0.07568  1.0000
  N   N10       1.0  0.24671  0.28489  0.42433  1.0000
  N   N11       1.0  0.74673  0.21510  0.92433  1.0000
  N   N12       1.0  0.75328  0.71511  0.57567  1.0000
  N   N13       1.0  0.67914  0.87134  0.09908  1.0000
  N   N14       1.0  0.82086  0.37134  0.40091  1.0000
  N   N15       1.0  0.32086  0.12866  0.90092  1.0000
  N   N16       1.0  0.17914  0.62867  0.59909  1.0000
  N   N17       1.0  0.94832  0.84683  0.79056  1.0000
  N   N18       1.0  0.55168  0.34682  0.70944  1.0000
  N   N19       1.0  0.05168  0.15317  0.20944  1.0000
  N   N20       1.0  0.44832  0.65318  0.29057  1.0000
