data_image0
_chemical_formula_structural       K4Li4H24C16O28
_chemical_formula_sum              "K4 Li4 H24 C16 O28"
_cell_length_a       9.58053
_cell_length_b       9.6963
_cell_length_c       10.3282
_cell_angle_alpha    117.99
_cell_angle_beta     113.267
_cell_angle_gamma    89.9982

_space_group_name_H-M_alt    "P 1"
_space_group_IT_number       1

loop_
  _space_group_symop_operation_xyz
  'x, y, z'

loop_
  _atom_site_type_symbol
  _atom_site_label
  _atom_site_symmetry_multiplicity
  _atom_site_fract_x
  _atom_site_fract_y
  _atom_site_fract_z
  _atom_site_occupancy
  K   K1        1.0  0.74984  0.95879  0.00004  1.0000
  K   K2        1.0  0.25016  0.04122  0.99996  1.0000
  K   K3        1.0  0.74985  0.48171  0.99984  1.0000
  K   K4        1.0  0.25014  0.51828  0.00015  1.0000
  Li  Li1       1.0  0.92377  0.42387  0.32842  1.0000
  Li  Li2       1.0  0.57625  0.09546  0.67164  1.0000
  Li  Li3       1.0  0.07623  0.57614  0.67158  1.0000
  Li  Li4       1.0  0.42375  0.90454  0.32836  1.0000
  H   H1        1.0  0.91999  0.75059  0.75898  1.0000
  H   H2        1.0  0.58001  0.99159  0.24099  1.0000
  H   H3        1.0  0.08001  0.24941  0.24102  1.0000
  H   H4        1.0  0.41999  0.00841  0.75901  1.0000
  H   H5        1.0  0.11777  0.12298  0.67917  1.0000
  H   H6        1.0  0.38226  0.44373  0.32080  1.0000
  H   H7        1.0  0.88224  0.87702  0.32083  1.0000
  H   H8        1.0  0.61774  0.55627  0.67920  1.0000
  H   H9        1.0  0.73451  0.85629  0.59913  1.0000
  H   H10       1.0  0.76556  0.25711  0.40094  1.0000
  H   H11       1.0  0.26549  0.14371  0.40087  1.0000
  H   H12       1.0  0.23444  0.74289  0.59906  1.0000
  H   H13       1.0  0.85661  0.04645  0.56859  1.0000
  H   H14       1.0  0.64342  0.47782  0.43144  1.0000
  H   H15       1.0  0.14339  0.95355  0.43141  1.0000
  H   H16       1.0  0.35658  0.52218  0.56856  1.0000
  H   H17       1.0  0.14788  0.50618  0.28848  1.0000
  H   H18       1.0  0.35205  0.21764  0.71150  1.0000
  H   H19       1.0  0.85212  0.49382  0.71152  1.0000
  H   H20       1.0  0.64795  0.78236  0.28850  1.0000
  H   H21       1.0  0.03807  0.36421  0.10718  1.0000
  H   H22       1.0  0.46189  0.25698  0.89283  1.0000
  H   H23       1.0  0.96193  0.63579  0.89282  1.0000
  H   H24       1.0  0.53811  0.74302  0.10717  1.0000
  C   C1        1.0  0.88171  0.73764  0.49200  1.0000
  C   C2        1.0  0.61830  0.24552  0.50805  1.0000
  C   C3        1.0  0.11829  0.26236  0.50800  1.0000
  C   C4        1.0  0.38170  0.75448  0.49195  1.0000
  C   C5        1.0  0.86134  0.86921  0.63771  1.0000
  C   C6        1.0  0.63874  0.23144  0.36237  1.0000
  C   C7        1.0  0.13866  0.13079  0.36229  1.0000
  C   C8        1.0  0.36126  0.76856  0.63763  1.0000
  C   C9        1.0  0.92971  0.03296  0.67375  1.0000
  C   C10       1.0  0.57035  0.35916  0.32633  1.0000
  C   C11       1.0  0.07029  0.96704  0.32625  1.0000
  C   C12       1.0  0.42965  0.64084  0.67367  1.0000
  C   C13       1.0  0.91921  0.16757  0.82549  1.0000
  C   C14       1.0  0.58085  0.34197  0.17456  1.0000
  C   C15       1.0  0.08079  0.83243  0.17451  1.0000
  C   C16       1.0  0.41915  0.65803  0.82544  1.0000
  O   O1        1.0  0.81614  0.73306  0.35551  1.0000
  O   O2        1.0  0.68390  0.37735  0.64458  1.0000
  O   O3        1.0  0.18386  0.26694  0.64449  1.0000
  O   O4        1.0  0.31610  0.62265  0.35542  1.0000
  O   O5        1.0  0.95906  0.63787  0.51280  1.0000
  O   O6        1.0  0.54083  0.12497  0.48716  1.0000
  O   O7        1.0  0.04094  0.36213  0.48720  1.0000
  O   O8        1.0  0.45917  0.87503  0.51284  1.0000
  O   O9        1.0  0.93636  0.86346  0.78422  1.0000
  O   O10       1.0  0.56370  0.07927  0.21581  1.0000
  O   O11       1.0  0.06364  0.13653  0.21578  1.0000
  O   O12       1.0  0.43630  0.92073  0.78419  1.0000
  O   O13       1.0  0.08514  0.03554  0.69251  1.0000
  O   O14       1.0  0.41491  0.34300  0.30757  1.0000
  O   O15       1.0  0.91486  0.96446  0.30749  1.0000
  O   O16       1.0  0.58509  0.65700  0.69243  1.0000
  O   O17       1.0  0.04367  0.27371  0.93889  1.0000
  O   O18       1.0  0.45640  0.33478  0.06117  1.0000
  O   O19       1.0  0.95633  0.72629  0.06111  1.0000
  O   O20       1.0  0.54360  0.66522  0.93883  1.0000
  O   O21       1.0  0.78812  0.16493  0.82800  1.0000
  O   O22       1.0  0.71192  0.33670  0.17201  1.0000
  O   O23       1.0  0.21188  0.83507  0.17201  1.0000
  O   O24       1.0  0.28808  0.66330  0.82799  1.0000
  O   O25       1.0  0.04877  0.42202  0.22347  1.0000
  O   O26       1.0  0.45114  0.19842  0.77653  1.0000
  O   O27       1.0  0.95123  0.57798  0.77653  1.0000
  O   O28       1.0  0.54886  0.80158  0.22347  1.0000
