data_image0
_chemical_formula_structural       Rb4Li4H24C16O28
_chemical_formula_sum              "Rb4 Li4 H24 C16 O28"
_cell_length_a       9.6494
_cell_length_b       9.78885
_cell_length_c       10.409
_cell_angle_alpha    118.049
_cell_angle_beta     112.666
_cell_angle_gamma    89.9996

_space_group_name_H-M_alt    "P 1"
_space_group_IT_number       1

loop_
  _space_group_symop_operation_xyz
  'x, y, z'

loop_
  _atom_site_type_symbol
  _atom_site_label
  _atom_site_symmetry_multiplicity
  _atom_site_fract_x
  _atom_site_fract_y
  _atom_site_fract_z
  _atom_site_occupancy
  Rb  Rb1       1.0  0.75000  0.96834  1.00000  1.0000
  Rb  Rb2       1.0  0.25000  0.03166  0.00000  1.0000
  Rb  Rb3       1.0  0.75000  0.48589  0.99999  1.0000
  Rb  Rb4       1.0  0.25000  0.51411  0.00001  1.0000
  Li  Li1       1.0  0.92972  0.42326  0.33186  1.0000
  Li  Li2       1.0  0.57026  0.09141  0.66813  1.0000
  Li  Li3       1.0  0.07028  0.57674  0.66814  1.0000
  Li  Li4       1.0  0.42974  0.90859  0.33187  1.0000
  H   H1        1.0  0.90917  0.74654  0.74921  1.0000
  H   H2        1.0  0.59082  0.99732  0.25077  1.0000
  H   H3        1.0  0.09083  0.25346  0.25079  1.0000
  H   H4        1.0  0.40918  0.00268  0.74923  1.0000
  H   H5        1.0  0.10840  0.12046  0.67359  1.0000
  H   H6        1.0  0.39160  0.44689  0.32643  1.0000
  H   H7        1.0  0.89160  0.87954  0.32641  1.0000
  H   H8        1.0  0.60840  0.55311  0.67357  1.0000
  H   H9        1.0  0.03787  0.35905  0.10929  1.0000
  H   H10       1.0  0.46213  0.24976  0.89071  1.0000
  H   H11       1.0  0.96213  0.64095  0.89071  1.0000
  H   H12       1.0  0.53787  0.75024  0.10929  1.0000
  H   H13       1.0  0.15269  0.50217  0.28576  1.0000
  H   H14       1.0  0.34731  0.21642  0.71424  1.0000
  H   H15       1.0  0.84731  0.49783  0.71424  1.0000
  H   H16       1.0  0.65269  0.78358  0.28575  1.0000
  H   H17       1.0  0.72953  0.85204  0.58967  1.0000
  H   H18       1.0  0.77047  0.26237  0.41031  1.0000
  H   H19       1.0  0.27047  0.14796  0.41033  1.0000
  H   H20       1.0  0.22953  0.73764  0.58969  1.0000
  H   H21       1.0  0.85109  0.04493  0.56650  1.0000
  H   H22       1.0  0.64891  0.47842  0.43348  1.0000
  H   H23       1.0  0.14891  0.95507  0.43350  1.0000
  H   H24       1.0  0.35109  0.52158  0.56652  1.0000
  C   C1        1.0  0.87959  0.73573  0.48776  1.0000
  C   C2        1.0  0.62041  0.24795  0.51222  1.0000
  C   C3        1.0  0.12041  0.26427  0.51224  1.0000
  C   C4        1.0  0.37959  0.75205  0.48778  1.0000
  C   C5        1.0  0.85528  0.86526  0.63013  1.0000
  C   C6        1.0  0.64472  0.23511  0.36985  1.0000
  C   C7        1.0  0.14472  0.13475  0.36987  1.0000
  C   C8        1.0  0.35528  0.76489  0.63015  1.0000
  C   C9        1.0  0.92281  0.02896  0.66841  1.0000
  C   C10       1.0  0.57718  0.36054  0.33158  1.0000
  C   C11       1.0  0.07719  0.97104  0.33160  1.0000
  C   C12       1.0  0.42282  0.63945  0.66842  1.0000
  C   C13       1.0  0.90992  0.15876  0.82008  1.0000
  C   C14       1.0  0.59006  0.33866  0.17991  1.0000
  C   C15       1.0  0.09008  0.84124  0.17993  1.0000
  C   C16       1.0  0.40993  0.66134  0.82009  1.0000
  O   O1        1.0  0.81879  0.73257  0.35350  1.0000
  O   O2        1.0  0.68121  0.37907  0.64648  1.0000
  O   O3        1.0  0.18121  0.26743  0.64650  1.0000
  O   O4        1.0  0.31878  0.62093  0.35351  1.0000
  O   O5        1.0  0.95482  0.63614  0.50878  1.0000
  O   O6        1.0  0.54517  0.12736  0.49121  1.0000
  O   O7        1.0  0.04518  0.36386  0.49123  1.0000
  O   O8        1.0  0.45483  0.87264  0.50879  1.0000
  O   O9        1.0  0.92516  0.85826  0.77409  1.0000
  O   O10       1.0  0.57484  0.08415  0.22590  1.0000
  O   O11       1.0  0.07484  0.14174  0.22591  1.0000
  O   O12       1.0  0.42516  0.91585  0.77410  1.0000
  O   O13       1.0  0.07659  0.03307  0.68608  1.0000
  O   O14       1.0  0.42341  0.34698  0.31392  1.0000
  O   O15       1.0  0.92341  0.96693  0.31392  1.0000
  O   O16       1.0  0.57659  0.65302  0.68608  1.0000
  O   O17       1.0  0.03152  0.26296  0.93453  1.0000
  O   O18       1.0  0.46844  0.32838  0.06544  1.0000
  O   O19       1.0  0.96848  0.73705  0.06547  1.0000
  O   O20       1.0  0.53156  0.67162  0.93456  1.0000
  O   O21       1.0  0.77896  0.15366  0.82071  1.0000
  O   O22       1.0  0.72101  0.33296  0.17927  1.0000
  O   O23       1.0  0.22104  0.84634  0.17929  1.0000
  O   O24       1.0  0.27899  0.66704  0.82073  1.0000
  O   O25       1.0  0.05531  0.41976  0.22661  1.0000
  O   O26       1.0  0.44470  0.19316  0.77339  1.0000
  O   O27       1.0  0.94469  0.58024  0.77339  1.0000
  O   O28       1.0  0.55530  0.80684  0.22661  1.0000
