data_image0
_chemical_formula_structural       Zn2H32C40N4O8
_chemical_formula_sum              "Zn2 H32 C40 N4 O8"
_cell_length_a       7.40528
_cell_length_b       9.32651
_cell_length_c       13.7686
_cell_angle_alpha    88.7993
_cell_angle_beta     87.0736
_cell_angle_gamma    66.5264

_space_group_name_H-M_alt    "P 1"
_space_group_IT_number       1

loop_
  _space_group_symop_operation_xyz
  'x, y, z'

loop_
  _atom_site_type_symbol
  _atom_site_label
  _atom_site_symmetry_multiplicity
  _atom_site_fract_x
  _atom_site_fract_y
  _atom_site_fract_z
  _atom_site_occupancy
  Zn  Zn1       1.0  0.05600  0.26512  0.09128  1.0000
  Zn  Zn2       1.0  0.32025  0.73497  0.59025  1.0000
  H   H1        1.0  0.00345  0.98355  0.89864  1.0000
  H   H2        1.0  0.98660  0.01730  0.39839  1.0000
  H   H3        1.0  0.36556  0.01889  0.77608  1.0000
  H   H4        1.0  0.38540  0.97978  0.27596  1.0000
  H   H5        1.0  0.91160  0.84779  0.10471  1.0000
  H   H6        1.0  0.75917  0.15241  0.60526  1.0000
  H   H7        1.0  0.69748  0.08902  0.00506  1.0000
  H   H8        1.0  0.78716  0.91129  0.50505  1.0000
  H   H9        1.0  0.67168  0.91340  0.66939  1.0000
  H   H10       1.0  0.58465  0.08616  0.16914  1.0000
  H   H11       1.0  0.20198  0.82320  0.19608  1.0000
  H   H12       1.0  0.02450  0.17724  0.69679  1.0000
  H   H13       1.0  0.56405  0.42861  0.28771  1.0000
  H   H14       1.0  0.99084  0.57178  0.78785  1.0000
  H   H15       1.0  0.44744  0.62641  0.33081  1.0000
  H   H16       1.0  0.07215  0.37402  0.83118  1.0000
  H   H17       1.0  0.58564  0.58518  0.21911  1.0000
  H   H18       1.0  0.16955  0.41497  0.71955  1.0000
  H   H19       1.0  0.35337  0.32731  0.21544  1.0000
  H   H20       1.0  0.67844  0.67323  0.71510  1.0000
  H   H21       1.0  0.70267  0.32119  0.96538  1.0000
  H   H22       1.0  0.02276  0.67855  0.46431  1.0000
  H   H23       1.0  0.62653  0.84700  0.06174  1.0000
  H   H24       1.0  0.47403  0.15306  0.56173  1.0000
  H   H25       1.0  0.36119  0.81846  0.97121  1.0000
  H   H26       1.0  0.18005  0.18135  0.47132  1.0000
  H   H27       1.0  0.23128  0.65223  0.89034  1.0000
  H   H28       1.0  0.88311  0.34737  0.39040  1.0000
  H   H29       1.0  0.28857  0.47243  0.95574  1.0000
  H   H30       1.0  0.76019  0.52736  0.45547  1.0000
  H   H31       1.0  0.40885  0.47455  0.84193  1.0000
  H   H32       1.0  0.88245  0.52486  0.34157  1.0000
  C   C1        1.0  0.51200  0.06239  0.89649  1.0000
  C   C2        1.0  0.57524  0.93709  0.39640  1.0000
  C   C3        1.0  0.85721  0.93962  0.77811  1.0000
  C   C4        1.0  0.79630  0.06064  0.27788  1.0000
  C   C5        1.0  0.86423  0.98915  0.87276  1.0000
  C   C6        1.0  0.85312  0.01132  0.37258  1.0000
  C   C7        1.0  0.50504  0.01309  0.80179  1.0000
  C   C8        1.0  0.51871  0.98618  0.30165  1.0000
  C   C9        1.0  0.00920  0.73384  0.13131  1.0000
  C   C10       1.0  0.74249  0.26642  0.63159  1.0000
  C   C11       1.0  0.32749  0.12755  0.95956  1.0000
  C   C12       1.0  0.45624  0.87185  0.45956  1.0000
  C   C13       1.0  0.69229  0.05021  0.93148  1.0000
  C   C14       1.0  0.74292  0.94990  0.43142  1.0000
  C   C15       1.0  0.04165  0.87258  0.71521  1.0000
  C   C16       1.0  0.91322  0.12764  0.21474  1.0000
  C   C17       1.0  0.67680  0.95236  0.74293  1.0000
  C   C18       1.0  0.62900  0.04736  0.24272  1.0000
  C   C19       1.0  0.80856  0.59845  0.05940  1.0000
  C   C20       1.0  0.40659  0.40164  0.55899  1.0000
  C   C21       1.0  0.97532  0.59961  0.11357  1.0000
  C   C22       1.0  0.57419  0.40064  0.61337  1.0000
  C   C23       1.0  0.17339  0.71968  0.18195  1.0000
  C   C24       1.0  0.89220  0.28070  0.68235  1.0000
  C   C25       1.0  0.30386  0.57283  0.21404  1.0000
  C   C26       1.0  0.87528  0.42764  0.71420  1.0000
  C   C27       1.0  0.48508  0.55089  0.26626  1.0000
  C   C28       1.0  0.03441  0.44949  0.76656  1.0000
  C   C29       1.0  0.25855  0.44525  0.19315  1.0000
  C   C30       1.0  0.70215  0.55521  0.69296  1.0000
  C   C31       1.0  0.50817  0.56744  0.96003  1.0000
  C   C32       1.0  0.07512  0.43233  0.45970  1.0000
  C   C33       1.0  0.67987  0.44033  0.98439  1.0000
  C   C34       1.0  0.11944  0.55952  0.48364  1.0000
  C   C35       1.0  0.64208  0.73187  0.03812  1.0000
  C   C36       1.0  0.37407  0.26814  0.53793  1.0000
  C   C37       1.0  0.49234  0.71555  0.98805  1.0000
  C   C38       1.0  0.20792  0.28432  0.48792  1.0000
  C   C39       1.0  0.34972  0.54128  0.90938  1.0000
  C   C40       1.0  0.89034  0.45837  0.40918  1.0000
  N   N1        1.0  0.10052  0.45832  0.14480  1.0000
  N   N2        1.0  0.55753  0.54202  0.64439  1.0000
  N   N3        1.0  0.82362  0.45537  0.03236  1.0000
  N   N4        1.0  0.27827  0.54464  0.53156  1.0000
  O   O1        1.0  0.02493  0.85990  0.62295  1.0000
  O   O2        1.0  0.88403  0.14006  0.12254  1.0000
  O   O3        1.0  0.34522  0.14505  0.05135  1.0000
  O   O4        1.0  0.49089  0.85474  0.55138  1.0000
  O   O5        1.0  0.20901  0.82754  0.75145  1.0000
  O   O6        1.0  0.03546  0.17292  0.25084  1.0000
  O   O7        1.0  0.16081  0.16570  0.92412  1.0000
  O   O8        1.0  0.32804  0.83335  0.42408  1.0000
