data_image0
_chemical_formula_structural       Li4H40C36N8O12
_chemical_formula_sum              "Li4 H40 C36 N8 O12"
_cell_length_a       7.84049
_cell_length_b       10.2541
_cell_length_c       12.8879
_cell_angle_alpha    92.215
_cell_angle_beta     107.723
_cell_angle_gamma    90.0227

_space_group_name_H-M_alt    "P 1"
_space_group_IT_number       1

loop_
  _space_group_symop_operation_xyz
  'x, y, z'

loop_
  _atom_site_type_symbol
  _atom_site_label
  _atom_site_symmetry_multiplicity
  _atom_site_fract_x
  _atom_site_fract_y
  _atom_site_fract_z
  _atom_site_occupancy
  Li  Li1       1.0  0.51621  0.35264  0.93488  1.0000
  Li  Li2       1.0  0.58115  0.14726  0.06507  1.0000
  Li  Li3       1.0  0.48379  0.64736  0.06512  1.0000
  Li  Li4       1.0  0.41885  0.85275  0.93493  1.0000
  H   H1        1.0  0.57637  0.92492  0.67661  1.0000
  H   H2        1.0  0.89939  0.57516  0.32342  1.0000
  H   H3        1.0  0.42363  0.07508  0.32339  1.0000
  H   H4        1.0  0.10061  0.42484  0.67658  1.0000
  H   H5        1.0  0.36279  0.29864  0.73444  1.0000
  H   H6        1.0  0.62811  0.20121  0.26553  1.0000
  H   H7        1.0  0.63721  0.70136  0.26556  1.0000
  H   H8        1.0  0.37190  0.79879  0.73447  1.0000
  H   H9        1.0  0.30098  0.33652  0.53597  1.0000
  H   H10       1.0  0.76500  0.16334  0.46398  1.0000
  H   H11       1.0  0.69901  0.66348  0.46403  1.0000
  H   H12       1.0  0.23500  0.83666  0.53602  1.0000
  H   H13       1.0  0.83379  0.58099  0.96363  1.0000
  H   H14       1.0  0.86980  0.91888  0.03618  1.0000
  H   H15       1.0  0.16621  0.41901  0.03637  1.0000
  H   H16       1.0  0.13020  0.08112  0.96382  1.0000
  H   H17       1.0  0.76949  0.80503  0.79787  1.0000
  H   H18       1.0  0.97162  0.69502  0.20202  1.0000
  H   H19       1.0  0.23051  0.19497  0.20213  1.0000
  H   H20       1.0  0.02838  0.30498  0.79797  1.0000
  H   H21       1.0  0.95102  0.73189  0.76049  1.0000
  H   H22       1.0  0.19053  0.76833  0.23946  1.0000
  H   H23       1.0  0.04898  0.26810  0.23950  1.0000
  H   H24       1.0  0.80947  0.23167  0.76054  1.0000
  H   H25       1.0  0.95462  0.73749  0.89858  1.0000
  H   H26       1.0  0.05607  0.76262  0.10135  1.0000
  H   H27       1.0  0.04538  0.26250  0.10142  1.0000
  H   H28       1.0  0.94393  0.23738  0.89865  1.0000
  H   H29       1.0  0.78885  0.51808  0.64767  1.0000
  H   H30       1.0  0.14116  0.98215  0.35216  1.0000
  H   H31       1.0  0.21115  0.48192  0.35233  1.0000
  H   H32       1.0  0.85884  0.01785  0.64784  1.0000
  H   H33       1.0  0.61120  0.63031  0.63990  1.0000
  H   H34       1.0  0.97122  0.86983  0.35994  1.0000
  H   H35       1.0  0.38880  0.36969  0.36009  1.0000
  H   H36       1.0  0.02878  0.13017  0.64006  1.0000
  H   H37       1.0  0.60111  0.46902  0.68827  1.0000
  H   H38       1.0  0.91278  0.03107  0.31145  1.0000
  H   H39       1.0  0.39889  0.53098  0.31173  1.0000
  H   H40       1.0  0.08722  0.96893  0.68855  1.0000
  C   C1        1.0  0.47574  0.10769  0.72159  1.0000
  C   C2        1.0  0.75378  0.39230  0.27841  1.0000
  C   C3        1.0  0.52426  0.89231  0.27841  1.0000
  C   C4        1.0  0.24622  0.60770  0.72159  1.0000
  C   C5        1.0  0.51607  0.01772  0.64888  1.0000
  C   C6        1.0  0.86683  0.48235  0.35114  1.0000
  C   C7        1.0  0.48394  0.98228  0.35112  1.0000
  C   C8        1.0  0.13317  0.51765  0.64886  1.0000
  C   C9        1.0  0.39759  0.22532  0.68107  1.0000
  C   C10       1.0  0.71626  0.27461  0.31891  1.0000
  C   C11       1.0  0.60241  0.77468  0.31893  1.0000
  C   C12       1.0  0.28374  0.72539  0.68109  1.0000
  C   C13       1.0  0.51288  0.07443  0.83978  1.0000
  C   C14       1.0  0.67285  0.42552  0.16020  1.0000
  C   C15       1.0  0.48712  0.92557  0.16022  1.0000
  C   C16       1.0  0.32715  0.57449  0.83980  1.0000
  C   C17       1.0  0.47846  0.04722  0.53916  1.0000
  C   C18       1.0  0.93923  0.45276  0.46084  1.0000
  C   C19       1.0  0.52154  0.95278  0.46084  1.0000
  C   C20       1.0  0.06077  0.54725  0.53916  1.0000
  C   C21       1.0  0.36350  0.24615  0.57015  1.0000
  C   C22       1.0  0.79322  0.25377  0.42983  1.0000
  C   C23       1.0  0.63650  0.75385  0.42985  1.0000
  C   C24       1.0  0.20678  0.74623  0.57017  1.0000
  C   C25       1.0  0.76779  0.53146  0.88359  1.0000
  C   C26       1.0  0.88398  0.96847  0.11621  1.0000
  C   C27       1.0  0.23220  0.46854  0.11641  1.0000
  C   C28       1.0  0.11601  0.03153  0.88379  1.0000
  C   C29       1.0  0.86711  0.72550  0.81438  1.0000
  C   C30       1.0  0.05272  0.77460  0.18553  1.0000
  C   C31       1.0  0.13289  0.27450  0.18562  1.0000
  C   C32       1.0  0.94728  0.22540  0.81447  1.0000
  C   C33       1.0  0.68911  0.55132  0.68679  1.0000
  C   C34       1.0  0.00226  0.94882  0.31300  1.0000
  C   C35       1.0  0.31089  0.44868  0.31321  1.0000
  C   C36       1.0  0.99774  0.05118  0.68700  1.0000
  N   N1        1.0  0.40225  0.16051  0.49980  1.0000
  N   N2        1.0  0.90244  0.33943  0.50018  1.0000
  N   N3        1.0  0.59776  0.83949  0.50020  1.0000
  N   N4        1.0  0.09756  0.66057  0.49982  1.0000
  N   N5        1.0  0.77702  0.59887  0.79833  1.0000
  N   N6        1.0  0.97863  0.90119  0.20151  1.0000
  N   N7        1.0  0.22298  0.40112  0.20167  1.0000
  N   N8        1.0  0.02137  0.09881  0.79849  1.0000
  O   O1        1.0  0.49751  0.16529  0.90656  1.0000
  O   O2        1.0  0.59081  0.33457  0.09339  1.0000
  O   O3        1.0  0.50249  0.83471  0.09344  1.0000
  O   O4        1.0  0.40920  0.66543  0.90661  1.0000
  O   O5        1.0  0.55372  0.95771  0.86415  1.0000
  O   O6        1.0  0.68931  0.54222  0.13580  1.0000
  O   O7        1.0  0.44628  0.04229  0.13585  1.0000
  O   O8        1.0  0.31069  0.45778  0.86420  1.0000
  O   O9        1.0  0.69242  0.42279  0.87640  1.0000
  O   O10       1.0  0.81580  0.07711  0.12335  1.0000
  O   O11       1.0  0.30758  0.57721  0.12360  1.0000
  O   O12       1.0  0.18419  0.92289  0.87665  1.0000
