data_image0
_chemical_formula_structural       CuH12C14N2O6
_chemical_formula_sum              "Cu1 H12 C14 N2 O6"
_cell_length_a       7.02588
_cell_length_b       7.38316
_cell_length_c       7.43679
_cell_angle_alpha    93.6113
_cell_angle_beta     107.385
_cell_angle_gamma    110.621

_space_group_name_H-M_alt    "P 1"
_space_group_IT_number       1

loop_
  _space_group_symop_operation_xyz
  'x, y, z'

loop_
  _atom_site_type_symbol
  _atom_site_label
  _atom_site_symmetry_multiplicity
  _atom_site_fract_x
  _atom_site_fract_y
  _atom_site_fract_z
  _atom_site_occupancy
  Cu  Cu1       1.0  0.99999  0.50001  0.00001  1.0000
  H   H1        1.0  0.75409  0.82872  0.11041  1.0000
  H   H2        1.0  0.24589  0.17124  0.88961  1.0000
  H   H3        1.0  0.68488  0.02064  0.19387  1.0000
  H   H4        1.0  0.31516  0.97934  0.80611  1.0000
  H   H5        1.0  0.69558  0.07409  0.50254  1.0000
  H   H6        1.0  0.30437  0.92588  0.49746  1.0000
  H   H7        1.0  0.75121  0.56799  0.28302  1.0000
  H   H8        1.0  0.24878  0.43197  0.71698  1.0000
  H   H9        1.0  0.86711  0.48907  0.60557  1.0000
  H   H10       1.0  0.13290  0.51095  0.39445  1.0000
  H   H11       1.0  0.80309  0.01216  0.83443  1.0000
  H   H12       1.0  0.19684  0.98782  0.16556  1.0000
  C   C1        1.0  0.41623  0.74293  0.07140  1.0000
  C   C2        1.0  0.58377  0.25708  0.92859  1.0000
  C   C3        1.0  0.65595  0.86353  0.18681  1.0000
  C   C4        1.0  0.34407  0.13647  0.81319  1.0000
  C   C5        1.0  0.73385  0.94647  0.53409  1.0000
  C   C6        1.0  0.26614  0.05354  0.46588  1.0000
  C   C7        1.0  0.76969  0.66350  0.41049  1.0000
  C   C8        1.0  0.23036  0.33652  0.58953  1.0000
  C   C9        1.0  0.83185  0.62037  0.59000  1.0000
  C   C10       1.0  0.16819  0.37966  0.41000  1.0000
  C   C11       1.0  0.84720  0.74382  0.75380  1.0000
  C   C12       1.0  0.15282  0.25619  0.24622  1.0000
  C   C13       1.0  0.79152  0.90949  0.71652  1.0000
  C   C14       1.0  0.20847  0.09051  0.28348  1.0000
  N   N1        1.0  0.72381  0.82610  0.38199  1.0000
  N   N2        1.0  0.27622  0.17391  0.61801  1.0000
  O   O1        1.0  0.29000  0.68847  0.16996  1.0000
  O   O2        1.0  0.70997  0.31152  0.83001  1.0000
  O   O3        1.0  0.35953  0.70882  0.89237  1.0000
  O   O4        1.0  0.64050  0.29122  0.10763  1.0000
  O   O5        1.0  0.91108  0.71639  0.92836  1.0000
  O   O6        1.0  0.08887  0.28364  0.07161  1.0000
