data_image0
_chemical_formula_structural       Dy4H20C16S4N8O28
_chemical_formula_sum              "Dy4 H20 C16 S4 N8 O28"
_cell_length_a       6.4596
_cell_length_b       11.1697
_cell_length_c       12.1265
_cell_angle_alpha    108.272
_cell_angle_beta     90
_cell_angle_gamma    90

_space_group_name_H-M_alt    "P 1"
_space_group_IT_number       1

loop_
  _space_group_symop_operation_xyz
  'x, y, z'

loop_
  _atom_site_type_symbol
  _atom_site_label
  _atom_site_symmetry_multiplicity
  _atom_site_fract_x
  _atom_site_fract_y
  _atom_site_fract_z
  _atom_site_occupancy
  Dy  Dy1       1.0  0.86366  0.84035  0.39326  1.0000
  Dy  Dy2       1.0  0.36366  0.15965  0.10674  1.0000
  Dy  Dy3       1.0  0.13634  0.15965  0.60674  1.0000
  Dy  Dy4       1.0  0.63634  0.84035  0.89326  1.0000
  H   H1        1.0  0.72163  0.43615  0.55846  1.0000
  H   H2        1.0  0.22163  0.56385  0.94154  1.0000
  H   H3        1.0  0.27837  0.56385  0.44154  1.0000
  H   H4        1.0  0.77837  0.43615  0.05846  1.0000
  H   H5        1.0  0.77782  0.48650  0.22964  1.0000
  H   H6        1.0  0.27781  0.51350  0.27036  1.0000
  H   H7        1.0  0.22219  0.51350  0.77036  1.0000
  H   H8        1.0  0.72219  0.48650  0.72964  1.0000
  H   H9        1.0  0.72436  0.33060  0.34397  1.0000
  H   H10       1.0  0.22436  0.66940  0.15603  1.0000
  H   H11       1.0  0.27564  0.66940  0.65603  1.0000
  H   H12       1.0  0.77565  0.33060  0.84398  1.0000
  H   H13       1.0  0.04166  0.91303  0.19660  1.0000
  H   H14       1.0  0.54166  0.08697  0.30340  1.0000
  H   H15       1.0  0.95833  0.08697  0.80340  1.0000
  H   H16       1.0  0.45834  0.91303  0.69660  1.0000
  H   H17       1.0  0.06863  0.03353  0.31272  1.0000
  H   H18       1.0  0.56863  0.96647  0.18728  1.0000
  H   H19       1.0  0.93137  0.96647  0.68728  1.0000
  H   H20       1.0  0.43137  0.03353  0.81272  1.0000
  C   C1        1.0  0.73930  0.48748  0.49691  1.0000
  C   C2        1.0  0.23930  0.51252  0.00309  1.0000
  C   C3        1.0  0.26070  0.51252  0.50309  1.0000
  C   C4        1.0  0.76070  0.48748  0.99691  1.0000
  C   C5        1.0  0.77184  0.51118  0.32300  1.0000
  C   C6        1.0  0.27184  0.48882  0.17700  1.0000
  C   C7        1.0  0.22816  0.48882  0.67700  1.0000
  C   C8        1.0  0.72817  0.51118  0.82300  1.0000
  C   C9        1.0  0.76755  0.61322  0.50777  1.0000
  C   C10       1.0  0.26755  0.38678  0.99223  1.0000
  C   C11       1.0  0.23245  0.38678  0.49223  1.0000
  C   C12       1.0  0.73245  0.61322  0.00777  1.0000
  C   C13       1.0  0.77916  0.72780  0.60858  1.0000
  C   C14       1.0  0.27916  0.27220  0.89142  1.0000
  C   C15       1.0  0.22084  0.27220  0.39142  1.0000
  C   C16       1.0  0.72084  0.72780  0.10858  1.0000
  S   S1        1.0  0.32215  0.83621  0.46012  1.0000
  S   S2        1.0  0.82215  0.16379  0.03988  1.0000
  S   S3        1.0  0.67785  0.16379  0.53988  1.0000
  S   S4        1.0  0.17785  0.83621  0.96012  1.0000
  N   N1        1.0  0.74379  0.42539  0.38017  1.0000
  N   N2        1.0  0.24379  0.57461  0.11983  1.0000
  N   N3        1.0  0.25621  0.57461  0.61983  1.0000
  N   N4        1.0  0.75621  0.42539  0.88017  1.0000
  N   N5        1.0  0.78797  0.62598  0.39827  1.0000
  N   N6        1.0  0.28797  0.37402  0.10173  1.0000
  N   N7        1.0  0.21203  0.37402  0.60173  1.0000
  N   N8        1.0  0.71203  0.62598  0.89827  1.0000
  O   O1        1.0  0.72509  0.72284  0.70758  1.0000
  O   O2        1.0  0.22509  0.27716  0.79242  1.0000
  O   O3        1.0  0.27491  0.27716  0.29242  1.0000
  O   O4        1.0  0.77491  0.72284  0.20758  1.0000
  O   O5        1.0  0.84450  0.82687  0.58712  1.0000
  O   O6        1.0  0.34450  0.17313  0.91288  1.0000
  O   O7        1.0  0.15550  0.17313  0.41288  1.0000
  O   O8        1.0  0.65550  0.82686  0.08712  1.0000
  O   O9        1.0  0.51011  0.86333  0.40268  1.0000
  O   O10       1.0  0.01011  0.13667  0.09732  1.0000
  O   O11       1.0  0.48989  0.13667  0.59732  1.0000
  O   O12       1.0  0.98989  0.86333  0.90268  1.0000
  O   O13       1.0  0.37227  0.80097  0.56370  1.0000
  O   O14       1.0  0.87227  0.19903  0.93630  1.0000
  O   O15       1.0  0.62773  0.19903  0.43630  1.0000
  O   O16       1.0  0.12773  0.80097  0.06370  1.0000
  O   O17       1.0  0.19447  0.73707  0.37515  1.0000
  O   O18       1.0  0.69446  0.26294  0.12485  1.0000
  O   O19       1.0  0.80553  0.26294  0.62485  1.0000
  O   O20       1.0  0.30554  0.73706  0.87515  1.0000
  O   O21       1.0  0.18082  0.94977  0.49193  1.0000
  O   O22       1.0  0.68082  0.05023  0.00807  1.0000
  O   O23       1.0  0.81918  0.05023  0.50807  1.0000
  O   O24       1.0  0.31918  0.94977  0.99193  1.0000
  O   O25       1.0  0.99020  0.95409  0.27630  1.0000
  O   O26       1.0  0.49020  0.04592  0.22370  1.0000
  O   O27       1.0  0.00980  0.04592  0.72370  1.0000
  O   O28       1.0  0.50980  0.95408  0.77630  1.0000
