data_image0
_chemical_formula_structural       Zn2H32C36N12Cl4
_chemical_formula_sum              "Zn2 H32 C36 N12 Cl4"
_cell_length_a       5.79181
_cell_length_b       11.9538
_cell_length_c       13.6319
_cell_angle_alpha    90.769
_cell_angle_beta     102.262
_cell_angle_gamma    89.9825

_space_group_name_H-M_alt    "P 1"
_space_group_IT_number       1

loop_
  _space_group_symop_operation_xyz
  'x, y, z'

loop_
  _atom_site_type_symbol
  _atom_site_label
  _atom_site_symmetry_multiplicity
  _atom_site_fract_x
  _atom_site_fract_y
  _atom_site_fract_z
  _atom_site_occupancy
  Zn  Zn1       1.0  0.41955  0.25001  0.99994  1.0000
  Zn  Zn2       1.0  0.58048  0.74999  0.00006  1.0000
  H   H1        1.0  0.53704  0.31418  0.21802  1.0000
  H   H2        1.0  0.31854  0.18586  0.78184  1.0000
  H   H3        1.0  0.46297  0.68582  0.78198  1.0000
  H   H4        1.0  0.68146  0.81414  0.21816  1.0000
  H   H5        1.0  0.36071  0.42610  0.33802  1.0000
  H   H6        1.0  0.02209  0.07403  0.66188  1.0000
  H   H7        1.0  0.63928  0.57389  0.66198  1.0000
  H   H8        1.0  0.97792  0.92597  0.33812  1.0000
  H   H9        1.0  0.75295  0.47891  0.09698  1.0000
  H   H10       1.0  0.65593  0.02117  0.90313  1.0000
  H   H11       1.0  0.24704  0.52108  0.90301  1.0000
  H   H12       1.0  0.34407  0.97884  0.09688  1.0000
  H   H13       1.0  0.28890  0.67931  0.31930  1.0000
  H   H14       1.0  0.96950  0.82092  0.68106  1.0000
  H   H15       1.0  0.71107  0.32067  0.68070  1.0000
  H   H16       1.0  0.03049  0.17908  0.31895  1.0000
  H   H17       1.0  0.95704  0.36819  0.98655  1.0000
  H   H18       1.0  0.97061  0.13187  0.01353  1.0000
  H   H19       1.0  0.04298  0.63181  0.01344  1.0000
  H   H20       1.0  0.02940  0.86814  0.98647  1.0000
  H   H21       1.0  0.82699  0.60220  0.25341  1.0000
  H   H22       1.0  0.57322  0.89810  0.74671  1.0000
  H   H23       1.0  0.17299  0.39778  0.74660  1.0000
  H   H24       1.0  0.42679  0.10191  0.25330  1.0000
  H   H25       1.0  0.77852  0.47963  0.31798  1.0000
  H   H26       1.0  0.46012  0.02057  0.68202  1.0000
  H   H27       1.0  0.22147  0.52036  0.68201  1.0000
  H   H28       1.0  0.53991  0.97944  0.31798  1.0000
  H   H29       1.0  0.52043  0.70930  0.51869  1.0000
  H   H30       1.0  0.00305  0.79115  0.48183  1.0000
  H   H31       1.0  0.47953  0.29070  0.48130  1.0000
  H   H32       1.0  0.99693  0.20884  0.51818  1.0000
  C   C1        1.0  0.36389  0.35290  0.19466  1.0000
  C   C2        1.0  0.16888  0.14719  0.80528  1.0000
  C   C3        1.0  0.63614  0.64710  0.80534  1.0000
  C   C4        1.0  0.83116  0.85281  0.19473  1.0000
  C   C5        1.0  0.03852  0.46198  0.22774  1.0000
  C   C6        1.0  0.81041  0.03819  0.77224  1.0000
  C   C7        1.0  0.96150  0.53802  0.77226  1.0000
  C   C8        1.0  0.18959  0.96181  0.22777  1.0000
  C   C9        1.0  0.26149  0.41424  0.26130  1.0000
  C   C10       1.0  0.99981  0.08590  0.73861  1.0000
  C   C11       1.0  0.73852  0.58575  0.73870  1.0000
  C   C12       1.0  0.00020  0.91409  0.26138  1.0000
  C   C13       1.0  0.08149  0.53914  0.48479  1.0000
  C   C14       1.0  0.59690  0.96097  0.51533  1.0000
  C   C15       1.0  0.91849  0.46086  0.51521  1.0000
  C   C16       1.0  0.40309  0.03903  0.48467  1.0000
  C   C17       1.0  0.92670  0.44365  0.12738  1.0000
  C   C18       1.0  0.79925  0.05647  0.87266  1.0000
  C   C19       1.0  0.07332  0.55634  0.87261  1.0000
  C   C20       1.0  0.20076  0.94354  0.12734  1.0000
  C   C21       1.0  0.25574  0.64467  0.38820  1.0000
  C   C22       1.0  0.86747  0.85545  0.61209  1.0000
  C   C23       1.0  0.74423  0.35534  0.61180  1.0000
  C   C24       1.0  0.13251  0.14455  0.38792  1.0000
  C   C25       1.0  0.04141  0.38219  0.06506  1.0000
  C   C26       1.0  0.97633  0.11788  0.93497  1.0000
  C   C27       1.0  0.95861  0.61782  0.93494  1.0000
  C   C28       1.0  0.02367  0.88213  0.06503  1.0000
  C   C29       1.0  0.91583  0.53038  0.29488  1.0000
  C   C30       1.0  0.62046  0.96982  0.70514  1.0000
  C   C31       1.0  0.08417  0.46961  0.70512  1.0000
  C   C32       1.0  0.37954  0.03018  0.29486  1.0000
  C   C33       1.0  0.36762  0.65759  0.48745  1.0000
  C   C34       1.0  0.88100  0.84268  0.51293  1.0000
  C   C35       1.0  0.63233  0.34240  0.51254  1.0000
  C   C36       1.0  0.11899  0.15732  0.48708  1.0000
  N   N1        1.0  0.07377  0.56965  0.38667  1.0000
  N   N2        1.0  0.68676  0.93041  0.61344  1.0000
  N   N3        1.0  0.92621  0.43036  0.61332  1.0000
  N   N4        1.0  0.31323  0.06960  0.38657  1.0000
  N   N5        1.0  0.25696  0.33743  0.09741  1.0000
  N   N6        1.0  0.15937  0.16268  0.90255  1.0000
  N   N7        1.0  0.74306  0.66257  0.90259  1.0000
  N   N8        1.0  0.84063  0.83733  0.09746  1.0000
  N   N9        1.0  0.25895  0.59268  0.54680  1.0000
  N   N10       1.0  0.71310  0.90757  0.45348  1.0000
  N   N11       1.0  0.74104  0.40732  0.45319  1.0000
  N   N12       1.0  0.28689  0.09243  0.54653  1.0000
  Cl  Cl1       1.0  0.55474  0.35545  0.88764  1.0000
  Cl  Cl2       1.0  0.66705  0.14457  0.11230  1.0000
  Cl  Cl3       1.0  0.44528  0.64455  0.11236  1.0000
  Cl  Cl4       1.0  0.33296  0.85543  0.88770  1.0000
