data_image0
_chemical_formula_structural       K8H48C40N8O32
_chemical_formula_sum              "K8 H48 C40 N8 O32"
_cell_length_a       10.8962
_cell_length_b       12.7755
_cell_length_c       13.5746
_cell_angle_alpha    118.067
_cell_angle_beta     113.664
_cell_angle_gamma    89.9982

_space_group_name_H-M_alt    "P 1"
_space_group_IT_number       1

loop_
  _space_group_symop_operation_xyz
  'x, y, z'

loop_
  _atom_site_type_symbol
  _atom_site_label
  _atom_site_symmetry_multiplicity
  _atom_site_fract_x
  _atom_site_fract_y
  _atom_site_fract_z
  _atom_site_occupancy
  K   K1        1.0  0.25496  0.24995  0.49988  1.0000
  K   K2        1.0  0.24508  0.75017  0.50020  1.0000
  K   K3        1.0  0.74504  0.75005  0.50012  1.0000
  K   K4        1.0  0.75492  0.24983  0.49981  1.0000
  K   K5        1.0  0.36501  0.61487  0.72987  1.0000
  K   K6        1.0  0.13507  0.88502  0.27016  1.0000
  K   K7        1.0  0.63500  0.38513  0.27013  1.0000
  K   K8        1.0  0.86493  0.11498  0.72984  1.0000
  H   H1        1.0  0.66911  0.52632  0.76540  1.0000
  H   H2        1.0  0.09595  0.73887  0.76546  1.0000
  H   H3        1.0  0.83056  0.76134  0.23470  1.0000
  H   H4        1.0  0.40409  0.97397  0.23467  1.0000
  H   H5        1.0  0.33090  0.47368  0.23460  1.0000
  H   H6        1.0  0.90405  0.26113  0.23454  1.0000
  H   H7        1.0  0.16945  0.23866  0.76530  1.0000
  H   H8        1.0  0.59592  0.02604  0.76533  1.0000
  H   H9        1.0  0.77035  0.41798  0.77677  1.0000
  H   H10       1.0  0.00620  0.85865  0.77684  1.0000
  H   H11       1.0  0.72934  0.64162  0.22332  1.0000
  H   H12       1.0  0.49376  0.08241  0.22328  1.0000
  H   H13       1.0  0.22965  0.58202  0.22323  1.0000
  H   H14       1.0  0.99380  0.14135  0.22316  1.0000
  H   H15       1.0  0.27066  0.35839  0.77668  1.0000
  H   H16       1.0  0.50624  0.91760  0.77673  1.0000
  H   H17       1.0  0.76740  0.53654  0.91208  1.0000
  H   H18       1.0  0.14444  0.87532  0.91215  1.0000
  H   H19       1.0  0.73233  0.62487  0.08803  1.0000
  H   H20       1.0  0.35562  0.96374  0.08798  1.0000
  H   H21       1.0  0.23261  0.46346  0.08792  1.0000
  H   H22       1.0  0.85556  0.12468  0.08785  1.0000
  H   H23       1.0  0.26767  0.37513  0.91196  1.0000
  H   H24       1.0  0.64439  0.03626  0.91203  1.0000
  H   H25       1.0  0.96751  0.04971  0.41834  1.0000
  H   H26       1.0  0.45091  0.86863  0.41821  1.0000
  H   H27       1.0  0.53288  0.63145  0.58190  1.0000
  H   H28       1.0  0.04920  0.45036  0.58168  1.0000
  H   H29       1.0  0.03249  0.95029  0.58166  1.0000
  H   H30       1.0  0.54909  0.13137  0.58179  1.0000
  H   H31       1.0  0.46711  0.36855  0.41809  1.0000
  H   H32       1.0  0.95080  0.54964  0.41832  1.0000
  H   H33       1.0  0.11549  0.04315  0.50373  1.0000
  H   H34       1.0  0.38821  0.96036  0.50360  1.0000
  H   H35       1.0  0.38474  0.53983  0.49651  1.0000
  H   H36       1.0  0.11185  0.45703  0.49637  1.0000
  H   H37       1.0  0.88451  0.95685  0.49627  1.0000
  H   H38       1.0  0.61179  0.03964  0.49640  1.0000
  H   H39       1.0  0.61525  0.46017  0.50348  1.0000
  H   H40       1.0  0.88815  0.54298  0.50363  1.0000
  H   H41       1.0  0.71168  0.32637  0.88614  1.0000
  H   H42       1.0  0.17432  0.05964  0.88629  1.0000
  H   H43       1.0  0.78817  0.44058  0.11376  1.0000
  H   H44       1.0  0.32570  0.17392  0.11389  1.0000
  H   H45       1.0  0.28832  0.67363  0.11386  1.0000
  H   H46       1.0  0.82568  0.94035  0.11371  1.0000
  H   H47       1.0  0.21182  0.55942  0.88624  1.0000
  H   H48       1.0  0.67430  0.82608  0.88611  1.0000
  C   C1        1.0  0.52416  0.26376  0.94538  1.0000
  C   C2        1.0  0.42117  0.18144  0.94546  1.0000
  C   C3        1.0  0.97580  0.31879  0.05462  1.0000
  C   C4        1.0  0.07888  0.23652  0.05465  1.0000
  C   C5        1.0  0.47584  0.73624  0.05462  1.0000
  C   C6        1.0  0.57883  0.81856  0.05455  1.0000
  C   C7        1.0  0.02419  0.68121  0.94538  1.0000
  C   C8        1.0  0.92112  0.76347  0.94535  1.0000
  C   C9        1.0  0.51004  0.24430  0.82917  1.0000
  C   C10       1.0  0.31904  0.08465  0.82932  1.0000
  C   C11       1.0  0.98983  0.41556  0.17078  1.0000
  C   C12       1.0  0.18096  0.25591  0.17082  1.0000
  C   C13       1.0  0.48996  0.75570  0.17083  1.0000
  C   C14       1.0  0.68096  0.91535  0.17069  1.0000
  C   C15       1.0  0.01016  0.58443  0.82921  1.0000
  C   C16       1.0  0.81903  0.74409  0.82918  1.0000
  C   C17       1.0  0.41116  0.14605  0.71488  1.0000
  C   C18       1.0  0.30358  0.06849  0.71497  1.0000
  C   C19       1.0  0.08874  0.43169  0.28513  1.0000
  C   C20       1.0  0.19639  0.35409  0.28516  1.0000
  C   C21       1.0  0.58884  0.85395  0.28512  1.0000
  C   C22       1.0  0.69642  0.93151  0.28504  1.0000
  C   C23       1.0  0.91126  0.56830  0.71487  1.0000
  C   C24       1.0  0.80360  0.64591  0.71484  1.0000
  C   C25       1.0  0.57965  0.39559  0.78758  1.0000
  C   C26       1.0  0.20777  0.89182  0.78771  1.0000
  C   C27       1.0  0.92013  0.60846  0.21258  1.0000
  C   C28       1.0  0.29218  0.10461  0.21236  1.0000
  C   C29       1.0  0.42035  0.60441  0.21242  1.0000
  C   C30       1.0  0.79223  0.10818  0.21229  1.0000
  C   C31       1.0  0.07987  0.39154  0.78742  1.0000
  C   C32       1.0  0.70782  0.89539  0.78764  1.0000
  C   C33       1.0  0.70357  0.47327  0.81103  1.0000
  C   C34       1.0  0.10723  0.83758  0.81111  1.0000
  C   C35       1.0  0.79617  0.66265  0.18908  1.0000
  C   C36       1.0  0.39277  0.02703  0.18901  1.0000
  C   C37       1.0  0.29644  0.52672  0.18897  1.0000
  C   C38       1.0  0.89277  0.16242  0.18889  1.0000
  C   C39       1.0  0.20384  0.33735  0.81092  1.0000
  C   C40       1.0  0.60723  0.97297  0.81099  1.0000
  N   N1        1.0  0.60924  0.31996  0.83333  1.0000
  N   N2        1.0  0.22400  0.01322  0.83355  1.0000
  N   N3        1.0  0.89058  0.48703  0.16659  1.0000
  N   N4        1.0  0.27601  0.18025  0.16663  1.0000
  N   N5        1.0  0.39076  0.68004  0.16667  1.0000
  N   N6        1.0  0.77600  0.98678  0.16646  1.0000
  N   N7        1.0  0.10942  0.51297  0.83341  1.0000
  N   N8        1.0  0.72398  0.81974  0.83336  1.0000
  O   O1        1.0  0.40441  0.11573  0.60820  1.0000
  O   O2        1.0  0.20363  0.99212  0.60833  1.0000
  O   O3        1.0  0.09544  0.50803  0.39179  1.0000
  O   O4        1.0  0.29629  0.38435  0.39183  1.0000
  O   O5        1.0  0.59559  0.88426  0.39180  1.0000
  O   O6        1.0  0.79637  0.00789  0.39167  1.0000
  O   O7        1.0  0.90456  0.49197  0.60821  1.0000
  O   O8        1.0  0.70371  0.61565  0.60817  1.0000
  O   O9        1.0  0.45939  0.40201  0.73012  1.0000
  O   O10       1.0  0.27060  0.82799  0.73028  1.0000
  O   O11       1.0  0.04038  0.67240  0.27026  1.0000
  O   O12       1.0  0.22930  0.09813  0.26975  1.0000
  O   O13       1.0  0.54061  0.59799  0.26988  1.0000
  O   O14       1.0  0.72940  0.17201  0.26972  1.0000
  O   O15       1.0  0.95962  0.32760  0.72974  1.0000
  O   O16       1.0  0.77070  0.90187  0.73025  1.0000
  O   O17       1.0  0.61917  0.34384  0.05018  1.0000
  O   O18       1.0  0.43113  0.20631  0.05035  1.0000
  O   O19       1.0  0.88081  0.29396  0.94977  1.0000
  O   O20       1.0  0.06906  0.15648  0.94983  1.0000
  O   O21       1.0  0.38083  0.65615  0.94981  1.0000
  O   O22       1.0  0.56888  0.79369  0.94966  1.0000
  O   O23       1.0  0.11919  0.70603  0.05023  1.0000
  O   O24       1.0  0.93094  0.84352  0.05017  1.0000
  O   O25       1.0  0.06656  0.06605  0.44007  1.0000
  O   O26       1.0  0.37358  0.87386  0.43991  1.0000
  O   O27       1.0  0.43385  0.62630  0.56024  1.0000
  O   O28       1.0  0.12657  0.43412  0.56002  1.0000
  O   O29       1.0  0.93344  0.93395  0.55992  1.0000
  O   O30       1.0  0.62643  0.12614  0.56010  1.0000
  O   O31       1.0  0.56614  0.37370  0.43976  1.0000
  O   O32       1.0  0.87343  0.56588  0.43998  1.0000
