data_image0
_chemical_formula_structural       Rb4V4H56C40N8O32
_chemical_formula_sum              "Rb4 V4 H56 C40 N8 O32"
_cell_length_a       6.77479
_cell_length_b       12.5162
_cell_length_c       17.4827
_cell_angle_alpha    89.9989
_cell_angle_beta     92.9636
_cell_angle_gamma    89.9999

_space_group_name_H-M_alt    "P 1"
_space_group_IT_number       1

loop_
  _space_group_symop_operation_xyz
  'x, y, z'

loop_
  _atom_site_type_symbol
  _atom_site_label
  _atom_site_symmetry_multiplicity
  _atom_site_fract_x
  _atom_site_fract_y
  _atom_site_fract_z
  _atom_site_occupancy
  Rb  Rb1       1.0  0.25125  0.40050  0.99563  1.0000
  Rb  Rb2       1.0  0.74875  0.90050  0.50437  1.0000
  Rb  Rb3       1.0  0.74875  0.59950  0.00437  1.0000
  Rb  Rb4       1.0  0.25125  0.09949  0.49563  1.0000
  V   V1        1.0  0.72604  0.26863  0.07289  1.0000
  V   V2        1.0  0.27396  0.76862  0.42711  1.0000
  V   V3        1.0  0.27396  0.73137  0.92711  1.0000
  V   V4        1.0  0.72603  0.23138  0.57289  1.0000
  H   H1        1.0  0.79094  0.10499  0.21725  1.0000
  H   H2        1.0  0.20908  0.60499  0.28275  1.0000
  H   H3        1.0  0.20908  0.89501  0.78275  1.0000
  H   H4        1.0  0.79091  0.39501  0.71724  1.0000
  H   H5        1.0  0.82523  0.90768  0.24138  1.0000
  H   H6        1.0  0.17475  0.40768  0.25862  1.0000
  H   H7        1.0  0.17477  0.09233  0.75863  1.0000
  H   H8        1.0  0.82524  0.59232  0.74138  1.0000
  H   H9        1.0  0.81445  0.78364  0.12945  1.0000
  H   H10       1.0  0.18552  0.28364  0.37055  1.0000
  H   H11       1.0  0.18552  0.21636  0.87056  1.0000
  H   H12       1.0  0.81449  0.71636  0.62945  1.0000
  H   H13       1.0  0.77463  0.86064  0.99664  1.0000
  H   H14       1.0  0.22536  0.36064  0.50336  1.0000
  H   H15       1.0  0.22535  0.13935  0.00337  1.0000
  H   H16       1.0  0.77467  0.63936  0.49664  1.0000
  H   H17       1.0  0.72463  0.93219  0.89449  1.0000
  H   H18       1.0  0.27538  0.43218  0.60552  1.0000
  H   H19       1.0  0.27536  0.06781  0.10552  1.0000
  H   H20       1.0  0.72462  0.56782  0.39448  1.0000
  H   H21       1.0  0.68870  0.03285  0.77180  1.0000
  H   H22       1.0  0.31130  0.53284  0.72820  1.0000
  H   H23       1.0  0.31128  0.96715  0.22820  1.0000
  H   H24       1.0  0.68869  0.46716  0.27180  1.0000
  H   H25       1.0  0.66717  0.23306  0.77495  1.0000
  H   H26       1.0  0.33283  0.73306  0.72505  1.0000
  H   H27       1.0  0.33282  0.76694  0.22505  1.0000
  H   H28       1.0  0.66716  0.26695  0.27495  1.0000
  H   H29       1.0  0.68830  0.32440  0.90406  1.0000
  H   H30       1.0  0.31172  0.82440  0.59593  1.0000
  H   H31       1.0  0.31171  0.67560  0.09593  1.0000
  H   H32       1.0  0.68828  0.17560  0.40406  1.0000
  H   H33       1.0  0.13849  0.42379  0.82603  1.0000
  H   H34       1.0  0.86151  0.92379  0.67398  1.0000
  H   H35       1.0  0.86151  0.57621  0.17398  1.0000
  H   H36       1.0  0.13849  0.07621  0.32602  1.0000
  H   H37       1.0  0.24280  0.34643  0.76686  1.0000
  H   H38       1.0  0.75720  0.84643  0.73314  1.0000
  H   H39       1.0  0.75720  0.65357  0.23314  1.0000
  H   H40       1.0  0.24280  0.15357  0.26686  1.0000
  H   H41       1.0  0.98468  0.42559  0.13917  1.0000
  H   H42       1.0  0.01531  0.92558  0.36083  1.0000
  H   H43       1.0  0.01531  0.57442  0.86083  1.0000
  H   H44       1.0  0.98470  0.07442  0.63917  1.0000
  H   H45       1.0  0.16828  0.50481  0.14608  1.0000
  H   H46       1.0  0.83172  0.00481  0.35392  1.0000
  H   H47       1.0  0.83172  0.49519  0.85392  1.0000
  H   H48       1.0  0.16828  0.99519  0.64608  1.0000
  H   H49       1.0  0.46528  0.40814  0.15489  1.0000
  H   H50       1.0  0.53471  0.90814  0.34511  1.0000
  H   H51       1.0  0.53472  0.59186  0.84511  1.0000
  H   H52       1.0  0.46530  0.09186  0.65489  1.0000
  H   H53       1.0  0.52657  0.53129  0.16705  1.0000
  H   H54       1.0  0.47343  0.03129  0.33295  1.0000
  H   H55       1.0  0.47343  0.46871  0.83295  1.0000
  H   H56       1.0  0.52657  0.96871  0.66705  1.0000
  C   C1        1.0  0.78748  0.04765  0.17026  1.0000
  C   C2        1.0  0.21253  0.54765  0.32973  1.0000
  C   C3        1.0  0.21253  0.95235  0.82974  1.0000
  C   C4        1.0  0.78747  0.45235  0.67027  1.0000
  C   C5        1.0  0.80679  0.93817  0.18325  1.0000
  C   C6        1.0  0.19321  0.43816  0.31677  1.0000
  C   C7        1.0  0.19322  0.06183  0.81676  1.0000
  C   C8        1.0  0.80678  0.56184  0.68323  1.0000
  C   C9        1.0  0.80124  0.86957  0.12041  1.0000
  C   C10       1.0  0.19875  0.36958  0.37958  1.0000
  C   C11       1.0  0.19875  0.13043  0.87960  1.0000
  C   C12       1.0  0.80126  0.63042  0.62042  1.0000
  C   C13       1.0  0.77730  0.91203  0.04697  1.0000
  C   C14       1.0  0.22269  0.41202  0.45305  1.0000
  C   C15       1.0  0.22268  0.08797  0.95304  1.0000
  C   C16       1.0  0.77732  0.58798  0.54695  1.0000
  C   C17       1.0  0.75742  0.02286  0.03875  1.0000
  C   C18       1.0  0.24259  0.52286  0.46125  1.0000
  C   C19       1.0  0.24258  0.97714  0.96126  1.0000
  C   C20       1.0  0.75742  0.47714  0.53875  1.0000
  C   C21       1.0  0.73086  0.07570  0.96369  1.0000
  C   C22       1.0  0.26915  0.57568  0.53632  1.0000
  C   C23       1.0  0.26914  0.92430  0.03632  1.0000
  C   C24       1.0  0.73085  0.42432  0.46368  1.0000
  C   C25       1.0  0.71957  0.01925  0.89441  1.0000
  C   C26       1.0  0.28044  0.51925  0.60558  1.0000
  C   C27       1.0  0.28043  0.98075  0.10559  1.0000
  C   C28       1.0  0.71955  0.48076  0.39441  1.0000
  C   C29       1.0  0.69777  0.07569  0.82603  1.0000
  C   C30       1.0  0.30224  0.57568  0.67398  1.0000
  C   C31       1.0  0.30222  0.92431  0.17397  1.0000
  C   C32       1.0  0.69775  0.42433  0.32602  1.0000
  C   C33       1.0  0.68709  0.18691  0.82767  1.0000
  C   C34       1.0  0.31291  0.68691  0.67233  1.0000
  C   C35       1.0  0.31291  0.81309  0.17234  1.0000
  C   C36       1.0  0.68708  0.31309  0.32767  1.0000
  C   C37       1.0  0.69759  0.23787  0.89839  1.0000
  C   C38       1.0  0.30243  0.73785  0.60162  1.0000
  C   C39       1.0  0.30242  0.76213  0.10161  1.0000
  C   C40       1.0  0.69757  0.26215  0.39838  1.0000
  N   N1        1.0  0.76284  0.08886  0.09984  1.0000
  N   N2        1.0  0.23718  0.58885  0.40018  1.0000
  N   N3        1.0  0.23717  0.91114  0.90016  1.0000
  N   N4        1.0  0.76283  0.41114  0.59982  1.0000
  N   N5        1.0  0.71842  0.18388  0.96494  1.0000
  N   N6        1.0  0.28159  0.68387  0.53505  1.0000
  N   N7        1.0  0.28158  0.81612  0.03505  1.0000
  N   N8        1.0  0.71842  0.31613  0.46495  1.0000
  O   O1        1.0  0.45646  0.22711  0.08152  1.0000
  O   O2        1.0  0.54354  0.72711  0.41848  1.0000
  O   O3        1.0  0.54354  0.77289  0.91848  1.0000
  O   O4        1.0  0.45646  0.27288  0.58152  1.0000
  O   O5        1.0  0.54119  0.27643  0.15121  1.0000
  O   O6        1.0  0.45880  0.77642  0.34879  1.0000
  O   O7        1.0  0.45881  0.72358  0.84879  1.0000
  O   O8        1.0  0.54120  0.22357  0.65121  1.0000
  O   O9        1.0  0.00622  0.25319  0.07399  1.0000
  O   O10       1.0  0.99378  0.75317  0.42601  1.0000
  O   O11       1.0  0.99378  0.74682  0.92601  1.0000
  O   O12       1.0  0.00622  0.24682  0.57399  1.0000
  O   O13       1.0  0.93871  0.29515  0.14586  1.0000
  O   O14       1.0  0.06128  0.79514  0.35415  1.0000
  O   O15       1.0  0.06129  0.70485  0.85414  1.0000
  O   O16       1.0  0.93872  0.20485  0.64585  1.0000
  O   O17       1.0  0.69379  0.38259  0.02703  1.0000
  O   O18       1.0  0.30621  0.88258  0.47297  1.0000
  O   O19       1.0  0.30622  0.61741  0.97296  1.0000
  O   O20       1.0  0.69379  0.11742  0.52703  1.0000
  O   O21       1.0  0.26363  0.38310  0.81568  1.0000
  O   O22       1.0  0.73637  0.88310  0.68433  1.0000
  O   O23       1.0  0.73637  0.61690  0.18432  1.0000
  O   O24       1.0  0.26363  0.11690  0.31567  1.0000
  O   O25       1.0  0.02307  0.50294  0.13318  1.0000
  O   O26       1.0  0.97693  0.00293  0.36682  1.0000
  O   O27       1.0  0.97693  0.49707  0.86682  1.0000
  O   O28       1.0  0.02307  0.99706  0.63318  1.0000
  O   O29       1.0  0.41442  0.48336  0.15290  1.0000
  O   O30       1.0  0.58558  0.98336  0.34710  1.0000
  O   O31       1.0  0.58558  0.51664  0.84710  1.0000
  O   O32       1.0  0.41443  0.01664  0.65290  1.0000
