data_image0
_chemical_formula_structural       MnH20C16S2N14
_chemical_formula_sum              "Mn1 H20 C16 S2 N14"
_cell_length_a       7.67568
_cell_length_b       8.39545
_cell_length_c       9.66775
_cell_angle_alpha    77.1567
_cell_angle_beta     72.9595
_cell_angle_gamma    66.6004

_space_group_name_H-M_alt    "P 1"
_space_group_IT_number       1

loop_
  _space_group_symop_operation_xyz
  'x, y, z'

loop_
  _atom_site_type_symbol
  _atom_site_label
  _atom_site_symmetry_multiplicity
  _atom_site_fract_x
  _atom_site_fract_y
  _atom_site_fract_z
  _atom_site_occupancy
  Mn  Mn1       1.0  0.50000  0.50000  0.50000  1.0000
  H   H1        1.0  0.38510  0.14148  0.52487  1.0000
  H   H2        1.0  0.61490  0.85852  0.47513  1.0000
  H   H3        1.0  0.33303  0.41657  0.85934  1.0000
  H   H4        1.0  0.66696  0.58343  0.14066  1.0000
  H   H5        1.0  0.01878  0.14754  0.00121  1.0000
  H   H6        1.0  0.98122  0.85247  0.99879  1.0000
  H   H7        1.0  0.10429  0.28534  0.05729  1.0000
  H   H8        1.0  0.89571  0.71466  0.94271  1.0000
  H   H9        1.0  0.38461  0.04383  0.11982  1.0000
  H   H10       1.0  0.61539  0.95617  0.88018  1.0000
  H   H11       1.0  0.34487  0.89588  0.03619  1.0000
  H   H12       1.0  0.65512  0.10412  0.96381  1.0000
  H   H13       1.0  0.04526  0.90661  0.22085  1.0000
  H   H14       1.0  0.95475  0.09339  0.77915  1.0000
  H   H15       1.0  0.23983  0.85431  0.30666  1.0000
  H   H16       1.0  0.76017  0.14569  0.69334  1.0000
  H   H17       1.0  0.96514  0.37262  0.53181  1.0000
  H   H18       1.0  0.03486  0.62738  0.46819  1.0000
  H   H19       1.0  0.74118  0.16368  0.29488  1.0000
  H   H20       1.0  0.25882  0.83632  0.70511  1.0000
  C   C1        1.0  0.35653  0.18023  0.63153  1.0000
  C   C2        1.0  0.64347  0.81977  0.36846  1.0000
  C   C3        1.0  0.32759  0.32564  0.79792  1.0000
  C   C4        1.0  0.67240  0.67437  0.20208  1.0000
  C   C5        1.0  0.15053  0.16539  0.00731  1.0000
  C   C6        1.0  0.84947  0.83461  0.99269  1.0000
  C   C7        1.0  0.27230  0.01029  0.09686  1.0000
  C   C8        1.0  0.72770  0.98971  0.90314  1.0000
  C   C9        1.0  0.14712  0.95679  0.23990  1.0000
  C   C10       1.0  0.85288  0.04320  0.76010  1.0000
  C   C11       1.0  0.95518  0.29458  0.46094  1.0000
  C   C12       1.0  0.04483  0.70542  0.53905  1.0000
  C   C13       1.0  0.83534  0.19217  0.34273  1.0000
  C   C14       1.0  0.16466  0.80783  0.65727  1.0000
  C   C15       1.0  0.33309  0.48150  0.25152  1.0000
  C   C16       1.0  0.66691  0.51851  0.74848  1.0000
  S   S1        1.0  0.22242  0.51858  0.12256  1.0000
  S   S2        1.0  0.77758  0.48142  0.87744  1.0000
  N   N1        1.0  0.25424  0.19810  0.85771  1.0000
  N   N2        1.0  0.74576  0.80190  0.14229  1.0000
  N   N3        1.0  0.27185  0.10372  0.75343  1.0000
  N   N4        1.0  0.72815  0.89627  0.24657  1.0000
  N   N5        1.0  0.39431  0.31760  0.65383  1.0000
  N   N6        1.0  0.60569  0.68240  0.34617  1.0000
  N   N7        1.0  0.02820  0.10178  0.32560  1.0000
  N   N8        1.0  0.97181  0.89821  0.67439  1.0000
  N   N9        1.0  0.10713  0.16528  0.39989  1.0000
  N   N10       1.0  0.89287  0.83472  0.60011  1.0000
  N   N11       1.0  0.78363  0.31559  0.42948  1.0000
  N   N12       1.0  0.21638  0.68442  0.57051  1.0000
  N   N13       1.0  0.40941  0.46088  0.34850  1.0000
  N   N14       1.0  0.59058  0.53913  0.65150  1.0000
