data_image0
_chemical_formula_structural       Fe2H24C24S4N28
_chemical_formula_sum              "Fe2 H24 C24 S4 N28"
_cell_length_a       7.88402
_cell_length_b       7.88138
_cell_length_c       16.9789
_cell_angle_alpha    89.4181
_cell_angle_beta     89.3714
_cell_angle_gamma    106.781

_space_group_name_H-M_alt    "P 1"
_space_group_IT_number       1

loop_
  _space_group_symop_operation_xyz
  'x, y, z'

loop_
  _atom_site_type_symbol
  _atom_site_label
  _atom_site_symmetry_multiplicity
  _atom_site_fract_x
  _atom_site_fract_y
  _atom_site_fract_z
  _atom_site_occupancy
  Fe  Fe1       1.0  0.00001  0.99997  0.49926  1.0000
  Fe  Fe2       1.0  0.00665  0.00602  0.00934  1.0000
  H   H1        1.0  0.58834  0.83624  0.55722  1.0000
  H   H2        1.0  0.42002  0.16647  0.06182  1.0000
  H   H3        1.0  0.16386  0.41159  0.44102  1.0000
  H   H4        1.0  0.83857  0.57319  0.93904  1.0000
  H   H5        1.0  0.41163  0.16390  0.44106  1.0000
  H   H6        1.0  0.57254  0.83855  0.93874  1.0000
  H   H7        1.0  0.83634  0.58832  0.55726  1.0000
  H   H8        1.0  0.16675  0.41970  0.06194  1.0000
  H   H9        1.0  0.98658  0.27890  0.63816  1.0000
  H   H10       1.0  0.01702  0.72404  0.14842  1.0000
  H   H11       1.0  0.72056  0.01358  0.36067  1.0000
  H   H12       1.0  0.28351  0.97584  0.85554  1.0000
  H   H13       1.0  0.01376  0.72051  0.36061  1.0000
  H   H14       1.0  0.97536  0.28350  0.85541  1.0000
  H   H15       1.0  0.27876  0.98681  0.63819  1.0000
  H   H16       1.0  0.72439  0.01661  0.14847  1.0000
  H   H17       1.0  0.56610  0.27486  0.74415  1.0000
  H   H18       1.0  0.43438  0.72609  0.25364  1.0000
  H   H19       1.0  0.72620  0.43424  0.25374  1.0000
  H   H20       1.0  0.27441  0.56629  0.74421  1.0000
  H   H21       1.0  0.80130  0.37737  0.74429  1.0000
  H   H22       1.0  0.19952  0.62208  0.25425  1.0000
  H   H23       1.0  0.62223  0.19929  0.25434  1.0000
  H   H24       1.0  0.37705  0.80154  0.74434  1.0000
  C   C1        1.0  0.29764  0.29778  0.57357  1.0000
  C   C2        1.0  0.70014  0.69977  0.08040  1.0000
  C   C3        1.0  0.70271  0.70256  0.42455  1.0000
  C   C4        1.0  0.30090  0.30096  0.92414  1.0000
  C   C5        1.0  0.65793  0.95145  0.59058  1.0000
  C   C6        1.0  0.34920  0.05110  0.09666  1.0000
  C   C7        1.0  0.04867  0.34205  0.40768  1.0000
  C   C8        1.0  0.95369  0.64521  0.90422  1.0000
  C   C9        1.0  0.34211  0.04868  0.40769  1.0000
  C   C10       1.0  0.64459  0.95376  0.90398  1.0000
  C   C11       1.0  0.95145  0.65799  0.59064  1.0000
  C   C12       1.0  0.05140  0.34884  0.09678  1.0000
  C   C13       1.0  0.86487  0.17350  0.63075  1.0000
  C   C14       1.0  0.13946  0.82921  0.14002  1.0000
  C   C15       1.0  0.82620  0.13520  0.36786  1.0000
  C   C16       1.0  0.17686  0.85397  0.86294  1.0000
  C   C17       1.0  0.13536  0.82616  0.36782  1.0000
  C   C18       1.0  0.85344  0.17691  0.86278  1.0000
  C   C19       1.0  0.17338  0.86507  0.63080  1.0000
  C   C20       1.0  0.82955  0.13906  0.14009  1.0000
  C   C21       1.0  0.69627  0.25091  0.74475  1.0000
  C   C22       1.0  0.30381  0.74904  0.25353  1.0000
  C   C23       1.0  0.74914  0.30362  0.25361  1.0000
  C   C24       1.0  0.25057  0.69656  0.74483  1.0000
  S   S1        1.0  0.45040  0.45053  0.61652  1.0000
  S   S2        1.0  0.54132  0.54105  0.11956  1.0000
  S   S3        1.0  0.55025  0.55023  0.38119  1.0000
  S   S4        1.0  0.45234  0.45276  0.87692  1.0000
  N   N1        1.0  0.18500  0.18513  0.54272  1.0000
  N   N2        1.0  0.81718  0.81667  0.05245  1.0000
  N   N3        1.0  0.81516  0.81496  0.45563  1.0000
  N   N4        1.0  0.18954  0.18931  0.95843  1.0000
  N   N5        1.0  0.71754  0.15355  0.67510  1.0000
  N   N6        1.0  0.28592  0.84709  0.18296  1.0000
  N   N7        1.0  0.84611  0.28250  0.32343  1.0000
  N   N8        1.0  0.15257  0.71277  0.81571  1.0000
  N   N9        1.0  0.28265  0.84607  0.32338  1.0000
  N   N10       1.0  0.71232  0.15284  0.81559  1.0000
  N   N11       1.0  0.15329  0.71779  0.67519  1.0000
  N   N12       1.0  0.84725  0.28563  0.18302  1.0000
  N   N13       1.0  0.58495  0.01248  0.65063  1.0000
  N   N14       1.0  0.41996  0.98798  0.15662  1.0000
  N   N15       1.0  0.98759  0.41496  0.34767  1.0000
  N   N16       1.0  0.01028  0.57870  0.84090  1.0000
  N   N17       1.0  0.41506  0.98757  0.34764  1.0000
  N   N18       1.0  0.57819  0.01055  0.84073  1.0000
  N   N19       1.0  0.01232  0.58511  0.65071  1.0000
  N   N20       1.0  0.98811  0.41971  0.15671  1.0000
  N   N21       1.0  0.83108  0.04718  0.57616  1.0000
  N   N22       1.0  0.17552  0.95667  0.08425  1.0000
  N   N23       1.0  0.95270  0.16900  0.42231  1.0000
  N   N24       1.0  0.05343  0.81404  0.91975  1.0000
  N   N25       1.0  0.16910  0.95267  0.42230  1.0000
  N   N26       1.0  0.81338  0.05338  0.91951  1.0000
  N   N27       1.0  0.04719  0.83116  0.57620  1.0000
  N   N28       1.0  0.95711  0.17508  0.08435  1.0000
