data_image0
_chemical_formula_structural       Zn2H16C12O12
_chemical_formula_sum              "Zn2 H16 C12 O12"
_cell_length_a       5.4067
_cell_length_b       8.61334
_cell_length_c       10.1271
_cell_angle_alpha    109.192
_cell_angle_beta     90.0018
_cell_angle_gamma    108.272

_space_group_name_H-M_alt    "P 1"
_space_group_IT_number       1

loop_
  _space_group_symop_operation_xyz
  'x, y, z'

loop_
  _atom_site_type_symbol
  _atom_site_label
  _atom_site_symmetry_multiplicity
  _atom_site_fract_x
  _atom_site_fract_y
  _atom_site_fract_z
  _atom_site_occupancy
  Zn  Zn1       1.0  0.04505  0.99996  0.75005  1.0000
  Zn  Zn2       1.0  0.95497  0.00002  0.24994  1.0000
  H   H1        1.0  0.36756  0.63614  0.41462  1.0000
  H   H2        1.0  0.73092  0.36336  0.08541  1.0000
  H   H3        1.0  0.63252  0.36385  0.58538  1.0000
  H   H4        1.0  0.26912  0.63666  0.91461  1.0000
  H   H5        1.0  0.08658  0.55112  0.66005  1.0000
  H   H6        1.0  0.53614  0.44922  0.84010  1.0000
  H   H7        1.0  0.91334  0.44886  0.33997  1.0000
  H   H8        1.0  0.46396  0.55082  0.15992  1.0000
  H   H9        1.0  0.16231  0.89019  0.94851  1.0000
  H   H10       1.0  0.27193  0.11009  0.55149  1.0000
  H   H11       1.0  0.83767  0.10982  0.05149  1.0000
  H   H12       1.0  0.72803  0.88989  0.44851  1.0000
  H   H13       1.0  0.36224  0.85727  0.83019  1.0000
  H   H14       1.0  0.50447  0.14266  0.66964  1.0000
  H   H15       1.0  0.63774  0.14273  0.16979  1.0000
  H   H16       1.0  0.49551  0.85732  0.33037  1.0000
  C   C1        1.0  0.57116  0.74705  0.62975  1.0000
  C   C2        1.0  0.82393  0.25278  0.87026  1.0000
  C   C3        1.0  0.42882  0.25298  0.37022  1.0000
  C   C4        1.0  0.17610  0.74723  0.12975  1.0000
  C   C5        1.0  0.34503  0.63875  0.52218  1.0000
  C   C6        1.0  0.70629  0.36120  0.97792  1.0000
  C   C7        1.0  0.65492  0.36128  0.47782  1.0000
  C   C8        1.0  0.29376  0.63883  0.02210  1.0000
  C   C9        1.0  0.11108  0.54968  0.55252  1.0000
  C   C10       1.0  0.56162  0.45042  0.94757  1.0000
  C   C11       1.0  0.88894  0.45026  0.44749  1.0000
  C   C12       1.0  0.43842  0.54960  0.05245  1.0000
  O   O1        1.0  0.77847  0.83515  0.58699  1.0000
  O   O2        1.0  0.94309  0.16461  0.91307  1.0000
  O   O3        1.0  0.22153  0.16484  0.41300  1.0000
  O   O4        1.0  0.05689  0.83538  0.08693  1.0000
  O   O5        1.0  0.56537  0.75766  0.75697  1.0000
  O   O6        1.0  0.80733  0.24207  0.74301  1.0000
  O   O7        1.0  0.43459  0.24230  0.24300  1.0000
  O   O8        1.0  0.19264  0.75792  0.25697  1.0000
  O   O9        1.0  0.24313  0.92575  0.86936  1.0000
  O   O10       1.0  0.31691  0.07437  0.63057  1.0000
  O   O11       1.0  0.75686  0.07425  0.13064  1.0000
  O   O12       1.0  0.68307  0.92562  0.36942  1.0000
