data_image0
_chemical_formula_structural       Zn2H32C36N4O12
_chemical_formula_sum              "Zn2 H32 C36 N4 O12"
_cell_length_a       7.38207
_cell_length_b       10.4073
_cell_length_c       11.3319
_cell_angle_alpha    89.9995
_cell_angle_beta     89.9998
_cell_angle_gamma    91.1558

_space_group_name_H-M_alt    "P 1"
_space_group_IT_number       1

loop_
  _space_group_symop_operation_xyz
  'x, y, z'

loop_
  _atom_site_type_symbol
  _atom_site_label
  _atom_site_symmetry_multiplicity
  _atom_site_fract_x
  _atom_site_fract_y
  _atom_site_fract_z
  _atom_site_occupancy
  Zn  Zn1       1.0  0.75000  0.75000  0.72388  1.0000
  Zn  Zn2       1.0  0.24999  0.25000  0.27612  1.0000
  H   H1        1.0  0.05775  0.55298  0.94194  1.0000
  H   H2        1.0  0.44226  0.94702  0.94195  1.0000
  H   H3        1.0  0.94225  0.44701  0.05805  1.0000
  H   H4        1.0  0.55774  0.05298  0.05806  1.0000
  H   H5        1.0  0.15610  0.64767  0.13371  1.0000
  H   H6        1.0  0.34390  0.85232  0.13371  1.0000
  H   H7        1.0  0.84390  0.35232  0.86629  1.0000
  H   H8        1.0  0.65610  0.14767  0.86629  1.0000
  H   H9        1.0  0.62763  0.57011  0.91770  1.0000
  H   H10       1.0  0.87239  0.92989  0.91769  1.0000
  H   H11       1.0  0.37238  0.42989  0.08230  1.0000
  H   H12       1.0  0.12762  0.07011  0.08231  1.0000
  H   H13       1.0  0.61401  0.56476  0.13927  1.0000
  H   H14       1.0  0.88601  0.93525  0.13927  1.0000
  H   H15       1.0  0.38600  0.43525  0.86073  1.0000
  H   H16       1.0  0.11400  0.06476  0.86074  1.0000
  H   H17       1.0  0.03846  0.78776  0.30497  1.0000
  H   H18       1.0  0.46155  0.71225  0.30497  1.0000
  H   H19       1.0  0.96154  0.21224  0.69503  1.0000
  H   H20       1.0  0.53846  0.28776  0.69503  1.0000
  H   H21       1.0  0.02851  0.78105  0.52522  1.0000
  H   H22       1.0  0.47149  0.71896  0.52522  1.0000
  H   H23       1.0  0.97148  0.21895  0.47478  1.0000
  H   H24       1.0  0.52850  0.28104  0.47478  1.0000
  H   H25       1.0  0.04860  0.91763  0.69079  1.0000
  H   H26       1.0  0.45141  0.58238  0.69079  1.0000
  H   H27       1.0  0.95140  0.08237  0.30921  1.0000
  H   H28       1.0  0.54859  0.41762  0.30921  1.0000
  H   H29       1.0  0.85116  0.97546  0.66063  1.0000
  H   H30       1.0  0.64885  0.52454  0.66063  1.0000
  H   H31       1.0  0.14884  0.02454  0.33937  1.0000
  H   H32       1.0  0.35116  0.47546  0.33937  1.0000
  C   C1        1.0  0.13405  0.62950  0.72285  1.0000
  C   C2        1.0  0.36596  0.87050  0.72285  1.0000
  C   C3        1.0  0.86595  0.37049  0.27715  1.0000
  C   C4        1.0  0.63404  0.12950  0.27715  1.0000
  C   C5        1.0  0.19475  0.69427  0.83595  1.0000
  C   C6        1.0  0.30526  0.80573  0.83595  1.0000
  C   C7        1.0  0.80525  0.30573  0.16405  1.0000
  C   C8        1.0  0.69474  0.19426  0.16405  1.0000
  C   C9        1.0  0.14309  0.63929  0.94392  1.0000
  C   C10       1.0  0.35690  0.86071  0.94392  1.0000
  C   C11       1.0  0.85690  0.36070  0.05608  1.0000
  C   C12       1.0  0.64309  0.13928  0.05608  1.0000
  C   C13       1.0  0.19730  0.69344  0.05102  1.0000
  C   C14       1.0  0.30270  0.80656  0.05102  1.0000
  C   C15       1.0  0.80269  0.30655  0.94898  1.0000
  C   C16       1.0  0.69729  0.19344  0.94898  1.0000
  C   C17       1.0  0.68009  0.64963  0.97083  1.0000
  C   C18       1.0  0.81992  0.85037  0.97083  1.0000
  C   C19       1.0  0.31991  0.35037  0.02917  1.0000
  C   C20       1.0  0.18009  0.14964  0.02917  1.0000
  C   C21       1.0  0.67421  0.64701  0.09332  1.0000
  C   C22       1.0  0.82580  0.85299  0.09331  1.0000
  C   C23       1.0  0.32579  0.35299  0.90668  1.0000
  C   C24       1.0  0.17421  0.14702  0.90669  1.0000
  C   C25       1.0  0.75000  0.75000  0.15696  1.0000
  C   C26       1.0  0.25000  0.25000  0.84304  1.0000
  C   C27       1.0  0.75001  0.75001  0.28706  1.0000
  C   C28       1.0  0.25000  0.25000  0.71293  1.0000
  C   C29       1.0  0.91021  0.77131  0.35071  1.0000
  C   C30       1.0  0.58980  0.72870  0.35071  1.0000
  C   C31       1.0  0.08979  0.22869  0.64929  1.0000
  C   C32       1.0  0.41020  0.27131  0.64929  1.0000
  C   C33       1.0  0.90515  0.76832  0.47320  1.0000
  C   C34       1.0  0.59486  0.73169  0.47320  1.0000
  C   C35       1.0  0.09484  0.23168  0.52680  1.0000
  C   C36       1.0  0.40514  0.26831  0.52680  1.0000
  N   N1        1.0  0.75000  0.75000  0.53363  1.0000
  N   N2        1.0  0.24999  0.25000  0.46637  1.0000
  N   N3        1.0  0.75000  0.75000  0.91010  1.0000
  N   N4        1.0  0.25000  0.25000  0.08990  1.0000
  O   O1        1.0  0.96437  0.61449  0.70641  1.0000
  O   O2        1.0  0.53564  0.88552  0.70641  1.0000
  O   O3        1.0  0.03563  0.38552  0.29359  1.0000
  O   O4        1.0  0.46436  0.11448  0.29359  1.0000
  O   O5        1.0  0.25465  0.59044  0.65221  1.0000
  O   O6        1.0  0.24536  0.90958  0.65221  1.0000
  O   O7        1.0  0.74535  0.40956  0.34779  1.0000
  O   O8        1.0  0.75464  0.09043  0.34779  1.0000
  O   O9        1.0  0.91595  0.92554  0.71907  1.0000
  O   O10       1.0  0.58405  0.57447  0.71907  1.0000
  O   O11       1.0  0.08405  0.07446  0.28093  1.0000
  O   O12       1.0  0.41595  0.42553  0.28093  1.0000
