data_image0
_chemical_formula_structural       La4H16C8S4O32
_chemical_formula_sum              "La4 H16 C8 S4 O32"
_cell_length_a       6.54563
_cell_length_b       9.72601
_cell_length_c       10.9379
_cell_angle_alpha    89.9998
_cell_angle_beta     89.9995
_cell_angle_gamma    97.4176

_space_group_name_H-M_alt    "P 1"
_space_group_IT_number       1

loop_
  _space_group_symop_operation_xyz
  'x, y, z'

loop_
  _atom_site_type_symbol
  _atom_site_label
  _atom_site_symmetry_multiplicity
  _atom_site_fract_x
  _atom_site_fract_y
  _atom_site_fract_z
  _atom_site_occupancy
  La  La1       1.0  0.33042  0.89095  0.84292  1.0000
  La  La2       1.0  0.16957  0.60905  0.34292  1.0000
  La  La3       1.0  0.66956  0.10905  0.15708  1.0000
  La  La4       1.0  0.83043  0.39095  0.65708  1.0000
  H   H1        1.0  0.20903  0.18780  0.80350  1.0000
  H   H2        1.0  0.29097  0.31220  0.30350  1.0000
  H   H3        1.0  0.79097  0.81220  0.19650  1.0000
  H   H4        1.0  0.70903  0.68780  0.69651  1.0000
  H   H5        1.0  0.37918  0.19650  0.90554  1.0000
  H   H6        1.0  0.12082  0.30350  0.40554  1.0000
  H   H7        1.0  0.62081  0.80350  0.09446  1.0000
  H   H8        1.0  0.87919  0.69650  0.59447  1.0000
  H   H9        1.0  0.99260  0.63188  0.89244  1.0000
  H   H10       1.0  0.50741  0.86812  0.39245  1.0000
  H   H11       1.0  0.00740  0.36812  0.10756  1.0000
  H   H12       1.0  0.49260  0.13188  0.60756  1.0000
  H   H13       1.0  0.11064  0.65642  0.01755  1.0000
  H   H14       1.0  0.38936  0.84358  0.51755  1.0000
  H   H15       1.0  0.88936  0.34358  0.98245  1.0000
  H   H16       1.0  0.61064  0.15641  0.48245  1.0000
  C   C1        1.0  0.52348  0.60479  0.97738  1.0000
  C   C2        1.0  0.97653  0.89521  0.47739  1.0000
  C   C3        1.0  0.47653  0.39521  0.02260  1.0000
  C   C4        1.0  0.02347  0.10479  0.52260  1.0000
  C   C5        1.0  0.62188  0.48275  0.94388  1.0000
  C   C6        1.0  0.87814  0.01724  0.44388  1.0000
  C   C7        1.0  0.37814  0.51725  0.05611  1.0000
  C   C8        1.0  0.12187  0.98275  0.55611  1.0000
  S   S1        1.0  0.80651  0.03323  0.82234  1.0000
  S   S2        1.0  0.69349  0.46678  0.32234  1.0000
  S   S3        1.0  0.19348  0.96677  0.17767  1.0000
  S   S4        1.0  0.30652  0.53323  0.67766  1.0000
  O   O1        1.0  0.66631  0.96262  0.72812  1.0000
  O   O2        1.0  0.83369  0.53738  0.22812  1.0000
  O   O3        1.0  0.33367  0.03738  0.27189  1.0000
  O   O4        1.0  0.16632  0.46262  0.77188  1.0000
  O   O5        1.0  0.67799  0.03216  0.93712  1.0000
  O   O6        1.0  0.82200  0.46784  0.43712  1.0000
  O   O7        1.0  0.32200  0.96784  0.06289  1.0000
  O   O8        1.0  0.17800  0.53217  0.56288  1.0000
  O   O9        1.0  0.98269  0.95630  0.84256  1.0000
  O   O10       1.0  0.51731  0.54371  0.34255  1.0000
  O   O11       1.0  0.01731  0.04370  0.15745  1.0000
  O   O12       1.0  0.48269  0.45630  0.65745  1.0000
  O   O13       1.0  0.88115  0.17877  0.78789  1.0000
  O   O14       1.0  0.61885  0.32123  0.28788  1.0000
  O   O15       1.0  0.11884  0.82123  0.21212  1.0000
  O   O16       1.0  0.38115  0.67878  0.71212  1.0000
  O   O17       1.0  0.55270  0.73250  0.95295  1.0000
  O   O18       1.0  0.94731  0.76750  0.45295  1.0000
  O   O19       1.0  0.44730  0.26751  0.04704  1.0000
  O   O20       1.0  0.05269  0.23250  0.54704  1.0000
  O   O21       1.0  0.77309  0.45987  0.87832  1.0000
  O   O22       1.0  0.72692  0.04013  0.37832  1.0000
  O   O23       1.0  0.22693  0.54014  0.12167  1.0000
  O   O24       1.0  0.27308  0.95987  0.62168  1.0000
  O   O25       1.0  0.34205  0.15711  0.82367  1.0000
  O   O26       1.0  0.15795  0.34289  0.32367  1.0000
  O   O27       1.0  0.65794  0.84289  0.17633  1.0000
  O   O28       1.0  0.84205  0.65711  0.67633  1.0000
  O   O29       1.0  0.07888  0.70213  0.94066  1.0000
  O   O30       1.0  0.42112  0.79786  0.44066  1.0000
  O   O31       1.0  0.92111  0.29786  0.05934  1.0000
  O   O32       1.0  0.57888  0.20214  0.55934  1.0000
