data_image0
_chemical_formula_structural       Cd4H32C36N28Cl4O4
_chemical_formula_sum              "Cd4 H32 C36 N28 Cl4 O4"
_cell_length_a       8.21566
_cell_length_b       8.21566
_cell_length_c       17.975
_cell_angle_alpha    94.4865
_cell_angle_beta     94.4861
_cell_angle_gamma    92.8871

_space_group_name_H-M_alt    "P 1"
_space_group_IT_number       1

loop_
  _space_group_symop_operation_xyz
  'x, y, z'

loop_
  _atom_site_type_symbol
  _atom_site_label
  _atom_site_symmetry_multiplicity
  _atom_site_fract_x
  _atom_site_fract_y
  _atom_site_fract_z
  _atom_site_occupancy
  Cd  Cd1       1.0  0.37862  0.91977  0.80780  1.0000
  Cd  Cd2       1.0  0.08024  0.62138  0.69220  1.0000
  Cd  Cd3       1.0  0.62138  0.08024  0.19220  1.0000
  Cd  Cd4       1.0  0.91976  0.37862  0.30780  1.0000
  H   H1        1.0  0.99688  0.82437  0.94142  1.0000
  H   H2        1.0  0.17563  0.00313  0.55858  1.0000
  H   H3        1.0  0.00313  0.17564  0.05858  1.0000
  H   H4        1.0  0.82437  0.99687  0.44142  1.0000
  H   H5        1.0  0.42897  0.23434  0.89775  1.0000
  H   H6        1.0  0.76566  0.57103  0.60225  1.0000
  H   H7        1.0  0.57103  0.76567  0.10225  1.0000
  H   H8        1.0  0.23434  0.42897  0.39775  1.0000
  H   H9        1.0  0.24571  0.17428  0.89150  1.0000
  H   H10       1.0  0.82572  0.75429  0.60850  1.0000
  H   H11       1.0  0.75429  0.82572  0.10850  1.0000
  H   H12       1.0  0.17428  0.24571  0.39150  1.0000
  H   H13       1.0  0.85525  0.95142  0.82386  1.0000
  H   H14       1.0  0.04858  0.14476  0.67614  1.0000
  H   H15       1.0  0.14476  0.04858  0.17614  1.0000
  H   H16       1.0  0.95142  0.85524  0.32386  1.0000
  H   H17       1.0  0.81398  0.54421  0.15512  1.0000
  H   H18       1.0  0.45577  0.18602  0.34489  1.0000
  H   H19       1.0  0.18602  0.45579  0.84489  1.0000
  H   H20       1.0  0.54422  0.81398  0.65511  1.0000
  H   H21       1.0  0.93187  0.66911  0.04896  1.0000
  H   H22       1.0  0.33088  0.06812  0.45105  1.0000
  H   H23       1.0  0.06812  0.33087  0.95104  1.0000
  H   H24       1.0  0.66912  0.93187  0.54896  1.0000
  H   H25       1.0  0.40967  0.55765  0.14531  1.0000
  H   H26       1.0  0.44234  0.59033  0.35468  1.0000
  H   H27       1.0  0.59033  0.44234  0.85468  1.0000
  H   H28       1.0  0.55765  0.40967  0.64532  1.0000
  H   H29       1.0  0.27077  0.43511  0.24650  1.0000
  H   H30       1.0  0.56489  0.72924  0.25350  1.0000
  H   H31       1.0  0.72924  0.56489  0.75350  1.0000
  H   H32       1.0  0.43511  0.27077  0.74650  1.0000
  C   C1        1.0  0.26628  0.70663  0.03013  1.0000
  C   C2        1.0  0.29337  0.73371  0.46987  1.0000
  C   C3        1.0  0.73372  0.29336  0.96987  1.0000
  C   C4        1.0  0.70664  0.26628  0.53013  1.0000
  C   C5        1.0  0.45926  0.78952  0.96884  1.0000
  C   C6        1.0  0.21049  0.54075  0.53117  1.0000
  C   C7        1.0  0.54074  0.21049  0.03117  1.0000
  C   C8        1.0  0.78951  0.45925  0.46883  1.0000
  C   C9        1.0  0.79331  0.90711  0.87015  1.0000
  C   C10       1.0  0.09290  0.20669  0.62985  1.0000
  C   C11       1.0  0.20669  0.09290  0.12985  1.0000
  C   C12       1.0  0.90710  0.79331  0.37015  1.0000
  C   C13       1.0  0.61807  0.82761  0.94290  1.0000
  C   C14       1.0  0.17239  0.38193  0.55710  1.0000
  C   C15       1.0  0.38193  0.17240  0.05710  1.0000
  C   C16       1.0  0.82760  0.61807  0.44290  1.0000
  C   C17       1.0  0.94588  0.55093  0.15106  1.0000
  C   C18       1.0  0.44906  0.05412  0.34894  1.0000
  C   C19       1.0  0.05412  0.44907  0.84894  1.0000
  C   C20       1.0  0.55093  0.94588  0.65106  1.0000
  C   C21       1.0  0.01338  0.62216  0.09193  1.0000
  C   C22       1.0  0.37784  0.98660  0.40807  1.0000
  C   C23       1.0  0.98661  0.37784  0.90807  1.0000
  C   C24       1.0  0.62216  0.01339  0.59193  1.0000
  C   C25       1.0  0.18363  0.63085  0.08887  1.0000
  C   C26       1.0  0.36915  0.81637  0.41113  1.0000
  C   C27       1.0  0.81637  0.36914  0.91113  1.0000
  C   C28       1.0  0.63086  0.18364  0.58887  1.0000
  C   C29       1.0  0.27742  0.56051  0.14555  1.0000
  C   C30       1.0  0.43948  0.72258  0.35445  1.0000
  C   C31       1.0  0.72258  0.43947  0.85444  1.0000
  C   C32       1.0  0.56052  0.27742  0.64555  1.0000
  C   C33       1.0  0.20047  0.49125  0.20236  1.0000
  C   C34       1.0  0.50875  0.79953  0.29763  1.0000
  C   C35       1.0  0.79953  0.50875  0.79763  1.0000
  C   C36       1.0  0.49125  0.20047  0.70237  1.0000
  N   N1        1.0  0.31952  0.82207  0.92954  1.0000
  N   N2        1.0  0.17793  0.68049  0.57046  1.0000
  N   N3        1.0  0.68049  0.17794  0.07047  1.0000
  N   N4        1.0  0.82207  0.31952  0.42954  1.0000
  N   N5        1.0  0.19501  0.76973  0.96888  1.0000
  N   N6        1.0  0.23027  0.80500  0.53112  1.0000
  N   N7        1.0  0.80500  0.23026  0.03111  1.0000
  N   N8        1.0  0.76973  0.19500  0.46888  1.0000
  N   N9        1.0  0.43208  0.71812  0.03184  1.0000
  N   N10       1.0  0.28189  0.56793  0.46816  1.0000
  N   N11       1.0  0.56793  0.28189  0.96816  1.0000
  N   N12       1.0  0.71811  0.43207  0.53184  1.0000
  N   N13       1.0  0.76185  0.79617  0.97705  1.0000
  N   N14       1.0  0.20383  0.23815  0.52295  1.0000
  N   N15       1.0  0.23816  0.20384  0.02295  1.0000
  N   N16       1.0  0.79616  0.76185  0.47705  1.0000
  N   N17       1.0  0.87134  0.84755  0.92975  1.0000
  N   N18       1.0  0.15245  0.12866  0.57025  1.0000
  N   N19       1.0  0.12867  0.15245  0.07025  1.0000
  N   N20       1.0  0.84755  0.87133  0.42975  1.0000
  N   N21       1.0  0.63246  0.89730  0.87687  1.0000
  N   N22       1.0  0.10271  0.36754  0.62313  1.0000
  N   N23       1.0  0.36754  0.10271  0.12313  1.0000
  N   N24       1.0  0.89729  0.63246  0.37687  1.0000
  N   N25       1.0  0.03696  0.48801  0.20618  1.0000
  N   N26       1.0  0.51198  0.96304  0.29382  1.0000
  N   N27       1.0  0.96304  0.51198  0.79382  1.0000
  N   N28       1.0  0.48802  0.03696  0.70618  1.0000
  Cl  Cl1       1.0  0.38456  0.61544  0.75000  1.0000
  Cl  Cl2       1.0  0.61544  0.38456  0.25000  1.0000
  Cl  Cl3       1.0  0.07650  0.92350  0.75000  1.0000
  Cl  Cl4       1.0  0.92350  0.07650  0.25000  1.0000
  O   O1        1.0  0.33613  0.18735  0.85985  1.0000
  O   O2        1.0  0.81265  0.66387  0.64015  1.0000
  O   O3        1.0  0.66387  0.81265  0.14015  1.0000
  O   O4        1.0  0.18735  0.33613  0.35985  1.0000
