data_image0
_chemical_formula_structural       Zn4H26C34N14O12
_chemical_formula_sum              "Zn4 H26 C34 N14 O12"
_cell_length_a       7.25017
_cell_length_b       10.0874
_cell_length_c       14.5649
_cell_angle_alpha    85.4632
_cell_angle_beta     80.8013
_cell_angle_gamma    89.4167

_space_group_name_H-M_alt    "P 1"
_space_group_IT_number       1

loop_
  _space_group_symop_operation_xyz
  'x, y, z'

loop_
  _atom_site_type_symbol
  _atom_site_label
  _atom_site_symmetry_multiplicity
  _atom_site_fract_x
  _atom_site_fract_y
  _atom_site_fract_z
  _atom_site_occupancy
  Zn  Zn1       1.0  0.56378  0.35621  0.74832  1.0000
  Zn  Zn2       1.0  0.43623  0.64379  0.25168  1.0000
  Zn  Zn3       1.0  0.31735  0.66856  0.74273  1.0000
  Zn  Zn4       1.0  0.68265  0.33145  0.25727  1.0000
  H   H1        1.0  0.44044  0.42154  0.92693  1.0000
  H   H2        1.0  0.55956  0.57846  0.07307  1.0000
  H   H3        1.0  0.61984  0.34124  0.94812  1.0000
  H   H4        1.0  0.38016  0.65877  0.05188  1.0000
  H   H5        1.0  0.45761  0.44284  0.57735  1.0000
  H   H6        1.0  0.54240  0.55716  0.42265  1.0000
  H   H7        1.0  0.65831  0.37633  0.54433  1.0000
  H   H8        1.0  0.34169  0.62366  0.45567  1.0000
  H   H9        1.0  0.18244  0.17440  0.75919  1.0000
  H   H10       1.0  0.81756  0.82560  0.24081  1.0000
  H   H11       1.0  0.48767  0.14559  0.63010  1.0000
  H   H12       1.0  0.51232  0.85441  0.36990  1.0000
  H   H13       1.0  0.53492  0.90025  0.62602  1.0000
  H   H14       1.0  0.46508  0.09975  0.37399  1.0000
  H   H15       1.0  0.83166  0.91547  0.85993  1.0000
  H   H16       1.0  0.16835  0.08453  0.14007  1.0000
  H   H17       1.0  0.76235  0.15859  0.85770  1.0000
  H   H18       1.0  0.23766  0.84142  0.14229  1.0000
  H   H19       1.0  0.89917  0.76701  0.05059  1.0000
  H   H20       1.0  0.10082  0.23299  0.94941  1.0000
  H   H21       1.0  0.70749  0.95707  0.11262  1.0000
  H   H22       1.0  0.29249  0.04294  0.88738  1.0000
  H   H23       1.0  0.99288  0.78872  0.42266  1.0000
  H   H24       1.0  0.00712  0.21127  0.57733  1.0000
  H   H25       1.0  0.16224  0.00440  0.63748  1.0000
  H   H26       1.0  0.83776  0.99559  0.36252  1.0000
  C   C1        1.0  0.86601  0.56215  0.75254  1.0000
  C   C2        1.0  0.13399  0.43784  0.24746  1.0000
  C   C3        1.0  0.72538  0.74507  0.74450  1.0000
  C   C4        1.0  0.27463  0.25493  0.25550  1.0000
  C   C5        1.0  0.15070  0.27983  0.75819  1.0000
  C   C6        1.0  0.84930  0.72017  0.24181  1.0000
  C   C7        1.0  0.00987  0.46310  0.75628  1.0000
  C   C8        1.0  0.99013  0.53690  0.24371  1.0000
  C   C9        1.0  0.55889  0.08929  0.68097  1.0000
  C   C10       1.0  0.44111  0.91071  0.31903  1.0000
  C   C11       1.0  0.58845  0.95350  0.67830  1.0000
  C   C12       1.0  0.41155  0.04650  0.32170  1.0000
  C   C13       1.0  0.68667  0.88777  0.74355  1.0000
  C   C14       1.0  0.31333  0.11223  0.25645  1.0000
  C   C15       1.0  0.75281  0.96250  0.80869  1.0000
  C   C16       1.0  0.24719  0.03750  0.19131  1.0000
  C   C17       1.0  0.71463  0.09743  0.80796  1.0000
  C   C18       1.0  0.28537  0.90257  0.19204  1.0000
  C   C19       1.0  0.21510  0.77906  0.92200  1.0000
  C   C20       1.0  0.78490  0.22094  0.07801  1.0000
  C   C21       1.0  0.10893  0.89309  0.96584  1.0000
  C   C22       1.0  0.89105  0.10691  0.03417  1.0000
  C   C23       1.0  0.94380  0.86922  0.02939  1.0000
  C   C24       1.0  0.05618  0.13078  0.97061  1.0000
  C   C25       1.0  0.83604  0.97533  0.06322  1.0000
  C   C26       1.0  0.16394  0.02468  0.93678  1.0000
  C   C27       1.0  0.18370  0.76364  0.56863  1.0000
  C   C28       1.0  0.81630  0.23636  0.43137  1.0000
  C   C29       1.0  0.08729  0.88538  0.53329  1.0000
  C   C30       1.0  0.91271  0.11461  0.46670  1.0000
  C   C31       1.0  0.99459  0.88161  0.45612  1.0000
  C   C32       1.0  0.00541  0.11839  0.54388  1.0000
  C   C33       1.0  0.09144  0.00437  0.57690  1.0000
  C   C34       1.0  0.90856  0.99562  0.42309  1.0000
  N   N1        1.0  0.59979  0.65071  0.73493  1.0000
  N   N2        1.0  0.40021  0.34929  0.26507  1.0000
  N   N3        1.0  0.69099  0.53254  0.74081  1.0000
  N   N4        1.0  0.30901  0.46746  0.25919  1.0000
  N   N5        1.0  0.89254  0.69308  0.75649  1.0000
  N   N6        1.0  0.10746  0.30692  0.24351  1.0000
  N   N7        1.0  0.18988  0.49224  0.75859  1.0000
  N   N8        1.0  0.81013  0.50776  0.24141  1.0000
  N   N9        1.0  0.28061  0.37281  0.76024  1.0000
  N   N10       1.0  0.71939  0.62719  0.23976  1.0000
  N   N11       1.0  0.97976  0.33153  0.75588  1.0000
  N   N12       1.0  0.02024  0.66847  0.24412  1.0000
  N   N13       1.0  0.61948  0.16048  0.74503  1.0000
  N   N14       1.0  0.38053  0.83952  0.25497  1.0000
  O   O1        1.0  0.26154  0.80194  0.83331  1.0000
  O   O2        1.0  0.73844  0.19806  0.16670  1.0000
  O   O3        1.0  0.24586  0.67336  0.96931  1.0000
  O   O4        1.0  0.75414  0.32664  0.03069  1.0000
  O   O5        1.0  0.28124  0.78357  0.63280  1.0000
  O   O6        1.0  0.71878  0.21644  0.36720  1.0000
  O   O7        1.0  0.16902  0.65387  0.53449  1.0000
  O   O8        1.0  0.83098  0.34613  0.46552  1.0000
  O   O9        1.0  0.52221  0.34888  0.90608  1.0000
  O   O10       1.0  0.47779  0.65111  0.09392  1.0000
  O   O11       1.0  0.54604  0.37640  0.59529  1.0000
  O   O12       1.0  0.45396  0.62360  0.40471  1.0000
