data_image0
_chemical_formula_structural       CoH24C24S2N6O6
_chemical_formula_sum              "Co1 H24 C24 S2 N6 O6"
_cell_length_a       8.22091
_cell_length_b       8.55358
_cell_length_c       9.31659
_cell_angle_alpha    98.5483
_cell_angle_beta     109.391
_cell_angle_gamma    93.0212

_space_group_name_H-M_alt    "P 1"
_space_group_IT_number       1

loop_
  _space_group_symop_operation_xyz
  'x, y, z'

loop_
  _atom_site_type_symbol
  _atom_site_label
  _atom_site_symmetry_multiplicity
  _atom_site_fract_x
  _atom_site_fract_y
  _atom_site_fract_z
  _atom_site_occupancy
  Co  Co1       1.0  0.50000  0.50000  0.50000  1.0000
  H   H1        1.0  0.80545  0.71183  0.51330  1.0000
  H   H2        1.0  0.19456  0.28818  0.48670  1.0000
  H   H3        1.0  0.85028  0.95256  0.40864  1.0000
  H   H4        1.0  0.14973  0.04744  0.59136  1.0000
  H   H5        1.0  0.59281  0.07166  0.25154  1.0000
  H   H6        1.0  0.40719  0.92835  0.74845  1.0000
  H   H7        1.0  0.26870  0.70803  0.33554  1.0000
  H   H8        1.0  0.73131  0.29197  0.66446  1.0000
  H   H9        1.0  0.26772  0.09119  0.20247  1.0000
  H   H10       1.0  0.73227  0.90881  0.79754  1.0000
  H   H11       1.0  0.13557  0.92966  0.21777  1.0000
  H   H12       1.0  0.86444  0.07033  0.78223  1.0000
  H   H13       1.0  0.14203  0.62329  0.86386  1.0000
  H   H14       1.0  0.85796  0.37672  0.13614  1.0000
  H   H15       1.0  0.17396  0.64561  0.06438  1.0000
  H   H16       1.0  0.82604  0.35438  0.93561  1.0000
  H   H17       1.0  0.90474  0.74753  0.14807  1.0000
  H   H18       1.0  0.09526  0.25246  0.85194  1.0000
  H   H19       1.0  0.58006  0.71759  0.05417  1.0000
  H   H20       1.0  0.41994  0.28240  0.94584  1.0000
  H   H21       1.0  0.41449  0.61505  0.77381  1.0000
  H   H22       1.0  0.58551  0.38493  0.22619  1.0000
  H   H23       1.0  0.86985  0.57832  0.67815  1.0000
  H   H24       1.0  0.13015  0.42169  0.32185  1.0000
  C   C1        1.0  0.69454  0.76645  0.44897  1.0000
  C   C2        1.0  0.30547  0.23355  0.55103  1.0000
  C   C3        1.0  0.71893  0.90185  0.38886  1.0000
  C   C4        1.0  0.28107  0.09815  0.61114  1.0000
  C   C5        1.0  0.57557  0.96809  0.30281  1.0000
  C   C6        1.0  0.42443  0.03192  0.69719  1.0000
  C   C7        1.0  0.40910  0.89832  0.28147  1.0000
  C   C8        1.0  0.59090  0.10169  0.71854  1.0000
  C   C9        1.0  0.39553  0.76404  0.34705  1.0000
  C   C10       1.0  0.60447  0.23596  0.65295  1.0000
  C   C11       1.0  0.24898  0.96113  0.18657  1.0000
  C   C12       1.0  0.75102  0.03887  0.81343  1.0000
  C   C13       1.0  0.10783  0.69019  0.95770  1.0000
  C   C14       1.0  0.89217  0.30982  0.04230  1.0000
  C   C15       1.0  0.91425  0.67197  0.91780  1.0000
  C   C16       1.0  0.08575  0.32803  0.08220  1.0000
  C   C17       1.0  0.83091  0.70821  0.02576  1.0000
  C   C18       1.0  0.16909  0.29178  0.97424  1.0000
  C   C19       1.0  0.65005  0.68860  0.97459  1.0000
  C   C20       1.0  0.34995  0.31139  0.02541  1.0000
  C   C21       1.0  0.55573  0.63190  0.81945  1.0000
  C   C22       1.0  0.44427  0.36809  0.18054  1.0000
  C   C23       1.0  0.81039  0.61426  0.76421  1.0000
  C   C24       1.0  0.18961  0.38575  0.23580  1.0000
  S   S1        1.0  0.19983  0.89501  0.97954  1.0000
  S   S2        1.0  0.80017  0.10499  0.02046  1.0000
  N   N1        1.0  0.53519  0.69741  0.42820  1.0000
  N   N2        1.0  0.46482  0.30259  0.57180  1.0000
  N   N3        1.0  0.63514  0.59410  0.71466  1.0000
  N   N4        1.0  0.36487  0.40590  0.28534  1.0000
  N   N5        1.0  0.87379  0.32371  0.47736  1.0000
  N   N6        1.0  0.12621  0.67629  0.52263  1.0000
  O   O1        1.0  0.76183  0.42490  0.44981  1.0000
  O   O2        1.0  0.23816  0.57511  0.55019  1.0000
  O   O3        1.0  0.95575  0.31008  0.61539  1.0000
  O   O4        1.0  0.04425  0.68992  0.38460  1.0000
  O   O5        1.0  0.90073  0.24059  0.36583  1.0000
  O   O6        1.0  0.09927  0.75942  0.63416  1.0000
