data_image0
_chemical_formula_structural       Cu4H32C56N8O16
_chemical_formula_sum              "Cu4 H32 C56 N8 O16"
_cell_length_a       8.36022
_cell_length_b       9.7414
_cell_length_c       14.8305
_cell_angle_alpha    89.9974
_cell_angle_beta     90.0025
_cell_angle_gamma    101.307

_space_group_name_H-M_alt    "P 1"
_space_group_IT_number       1

loop_
  _space_group_symop_operation_xyz
  'x, y, z'

loop_
  _atom_site_type_symbol
  _atom_site_label
  _atom_site_symmetry_multiplicity
  _atom_site_fract_x
  _atom_site_fract_y
  _atom_site_fract_z
  _atom_site_occupancy
  Cu  Cu1       1.0  0.00730  0.83585  0.96247  1.0000
  Cu  Cu2       1.0  0.49293  0.16426  0.46251  1.0000
  Cu  Cu3       1.0  0.99271  0.16415  0.03753  1.0000
  Cu  Cu4       1.0  0.50709  0.83574  0.53750  1.0000
  H   H1        1.0  0.27276  0.95898  0.09982  1.0000
  H   H2        1.0  0.22770  0.04096  0.59985  1.0000
  H   H3        1.0  0.72725  0.04102  0.90018  1.0000
  H   H4        1.0  0.77231  0.95902  0.40015  1.0000
  H   H5        1.0  0.36089  0.87971  0.24868  1.0000
  H   H6        1.0  0.13926  0.12027  0.74863  1.0000
  H   H7        1.0  0.63911  0.12028  0.75132  1.0000
  H   H8        1.0  0.86074  0.87971  0.25137  1.0000
  H   H9        1.0  0.20657  0.65263  0.31299  1.0000
  H   H10       1.0  0.29343  0.34739  0.81294  1.0000
  H   H11       1.0  0.79343  0.34735  0.68700  1.0000
  H   H12       1.0  0.70656  0.65258  0.18706  1.0000
  H   H13       1.0  0.98799  0.50674  0.22146  1.0000
  H   H14       1.0  0.51204  0.49335  0.72147  1.0000
  H   H15       1.0  0.01199  0.49325  0.77853  1.0000
  H   H16       1.0  0.48796  0.50663  0.27854  1.0000
  H   H17       1.0  0.80959  0.39671  0.13572  1.0000
  H   H18       1.0  0.69046  0.60345  0.63575  1.0000
  H   H19       1.0  0.19040  0.60329  0.86428  1.0000
  H   H20       1.0  0.30954  0.39654  0.36426  1.0000
  H   H21       1.0  0.59153  0.28881  0.02668  1.0000
  H   H22       1.0  0.90856  0.71140  0.52676  1.0000
  H   H23       1.0  0.40846  0.71119  0.97331  1.0000
  H   H24       1.0  0.09144  0.28860  0.47325  1.0000
  H   H25       1.0  0.54987  0.41782  0.88720  1.0000
  H   H26       1.0  0.95024  0.58250  0.38725  1.0000
  H   H27       1.0  0.45012  0.58219  0.11280  1.0000
  H   H28       1.0  0.04976  0.41751  0.61277  1.0000
  H   H29       1.0  0.72366  0.65596  0.85995  1.0000
  H   H30       1.0  0.77641  0.34437  0.35993  1.0000
  H   H31       1.0  0.27634  0.34405  0.14005  1.0000
  H   H32       1.0  0.22359  0.65564  0.64007  1.0000
  C   C1        1.0  0.21353  0.85971  0.12901  1.0000
  C   C2        1.0  0.28678  0.14028  0.62903  1.0000
  C   C3        1.0  0.78647  0.14028  0.87098  1.0000
  C   C4        1.0  0.71322  0.85970  0.37097  1.0000
  C   C5        1.0  0.26015  0.81523  0.21251  1.0000
  C   C6        1.0  0.24001  0.18478  0.71248  1.0000
  C   C7        1.0  0.73984  0.18476  0.78749  1.0000
  C   C8        1.0  0.75999  0.81520  0.28752  1.0000
  C   C9        1.0  0.17572  0.68893  0.24714  1.0000
  C   C10       1.0  0.32436  0.31110  0.74711  1.0000
  C   C11       1.0  0.82428  0.31105  0.75286  1.0000
  C   C12       1.0  0.67563  0.68888  0.25290  1.0000
  C   C13       1.0  0.05049  0.60862  0.19704  1.0000
  C   C14       1.0  0.44959  0.39145  0.69704  1.0000
  C   C15       1.0  0.94950  0.39137  0.80295  1.0000
  C   C16       1.0  0.55040  0.60853  0.30296  1.0000
  C   C17       1.0  0.01105  0.65847  0.11340  1.0000
  C   C18       1.0  0.48911  0.34162  0.61342  1.0000
  C   C19       1.0  0.98895  0.34152  0.88659  1.0000
  C   C20       1.0  0.51089  0.65837  0.38659  1.0000
  C   C21       1.0  0.88182  0.58337  0.05425  1.0000
  C   C22       1.0  0.61830  0.41680  0.55427  1.0000
  C   C23       1.0  0.11818  0.41664  0.94574  1.0000
  C   C24       1.0  0.38170  0.58320  0.44574  1.0000
  C   C25       1.0  0.78729  0.45198  0.07444  1.0000
  C   C26       1.0  0.71278  0.54819  0.57447  1.0000
  C   C27       1.0  0.21271  0.54802  0.92556  1.0000
  C   C28       1.0  0.28721  0.45181  0.42554  1.0000
  C   C29       1.0  0.66714  0.39121  0.01363  1.0000
  C   C30       1.0  0.83294  0.60900  0.51368  1.0000
  C   C31       1.0  0.33285  0.60879  0.98636  1.0000
  C   C32       1.0  0.16706  0.39100  0.48633  1.0000
  C   C33       1.0  0.64340  0.46340  0.93523  1.0000
  C   C34       1.0  0.85670  0.53687  0.43527  1.0000
  C   C35       1.0  0.35659  0.53660  0.06476  1.0000
  C   C36       1.0  0.14330  0.46314  0.56474  1.0000
  C   C37       1.0  0.74075  0.59430  0.91920  1.0000
  C   C38       1.0  0.75935  0.40599  0.41921  1.0000
  C   C39       1.0  0.25925  0.40571  0.08079  1.0000
  C   C40       1.0  0.24065  0.59402  0.58080  1.0000
  C   C41       1.0  0.96348  0.81651  0.76583  1.0000
  C   C42       1.0  0.53658  0.18356  0.26591  1.0000
  C   C43       1.0  0.03651  0.18351  0.23416  1.0000
  C   C44       1.0  0.46343  0.81644  0.73410  1.0000
  C   C45       1.0  0.90245  0.88735  0.69065  1.0000
  C   C46       1.0  0.59763  0.11279  0.19071  1.0000
  C   C47       1.0  0.09752  0.11268  0.30935  1.0000
  C   C48       1.0  0.40237  0.88721  0.80929  1.0000
  C   C49       1.0  0.85221  0.95591  0.63200  1.0000
  C   C50       1.0  0.64784  0.04420  0.13206  1.0000
  C   C51       1.0  0.14780  0.04413  0.36800  1.0000
  C   C52       1.0  0.35219  0.95581  0.86795  1.0000
  C   C53       1.0  0.79919  0.05671  0.57287  1.0000
  C   C54       1.0  0.70068  0.94337  0.07289  1.0000
  C   C55       1.0  0.20081  0.94332  0.42713  1.0000
  C   C56       1.0  0.29934  0.05664  0.92711  1.0000
  N   N1        1.0  0.09165  0.78333  0.08122  1.0000
  N   N2        1.0  0.40865  0.21671  0.58125  1.0000
  N   N3        1.0  0.90834  0.21667  0.91878  1.0000
  N   N4        1.0  0.59135  0.78328  0.41875  1.0000
  N   N5        1.0  0.85825  0.65153  0.97706  1.0000
  N   N6        1.0  0.64188  0.34870  0.47707  1.0000
  N   N7        1.0  0.14175  0.34847  0.02293  1.0000
  N   N8        1.0  0.35812  0.65130  0.52294  1.0000
  O   O1        1.0  0.93821  0.87585  0.84134  1.0000
  O   O2        1.0  0.56206  0.12429  0.34142  1.0000
  O   O3        1.0  0.06181  0.12417  0.15865  1.0000
  O   O4        1.0  0.43797  0.87571  0.65858  1.0000
  O   O5        1.0  0.03012  0.71424  0.75319  1.0000
  O   O6        1.0  0.46971  0.28569  0.25329  1.0000
  O   O7        1.0  0.96985  0.28577  0.24678  1.0000
  O   O8        1.0  0.53030  0.71430  0.74673  1.0000
  O   O9        1.0  0.88955  0.17349  0.56328  1.0000
  O   O10       1.0  0.61013  0.82668  0.06328  1.0000
  O   O11       1.0  0.11042  0.82655  0.43672  1.0000
  O   O12       1.0  0.38988  0.17334  0.93672  1.0000
  O   O13       1.0  0.65715  0.02012  0.53432  1.0000
  O   O14       1.0  0.84271  0.97985  0.03434  1.0000
  O   O15       1.0  0.34286  0.97989  0.46566  1.0000
  O   O16       1.0  0.15731  0.02015  0.96567  1.0000
