data_image0
_chemical_formula_structural       Cd2H36C36S4N8O8
_chemical_formula_sum              "Cd2 H36 C36 S4 N8 O8"
_cell_length_a       5.93346
_cell_length_b       10.129
_cell_length_c       17.3215
_cell_angle_alpha    89.9991
_cell_angle_beta     98.1314
_cell_angle_gamma    90.0002

_space_group_name_H-M_alt    "P 1"
_space_group_IT_number       1

loop_
  _space_group_symop_operation_xyz
  'x, y, z'

loop_
  _atom_site_type_symbol
  _atom_site_label
  _atom_site_symmetry_multiplicity
  _atom_site_fract_x
  _atom_site_fract_y
  _atom_site_fract_z
  _atom_site_occupancy
  Cd  Cd1       1.0  0.99999  1.00000  0.00000  1.0000
  Cd  Cd2       1.0  0.00001  0.50000  0.50000  1.0000
  H   H1        1.0  0.75514  0.05991  0.15010  1.0000
  H   H2        1.0  0.24488  0.55993  0.34990  1.0000
  H   H3        1.0  0.24490  0.94008  0.84991  1.0000
  H   H4        1.0  0.75511  0.44008  0.65010  1.0000
  H   H5        1.0  0.32865  0.22817  0.07947  1.0000
  H   H6        1.0  0.67135  0.72817  0.42053  1.0000
  H   H7        1.0  0.67137  0.77184  0.92053  1.0000
  H   H8        1.0  0.32864  0.27184  0.57947  1.0000
  H   H9        1.0  0.79049  0.19877  0.27026  1.0000
  H   H10       1.0  0.20950  0.69880  0.22973  1.0000
  H   H11       1.0  0.20954  0.80122  0.72975  1.0000
  H   H12       1.0  0.79047  0.30121  0.77026  1.0000
  H   H13       1.0  0.11483  0.36128  0.29456  1.0000
  H   H14       1.0  0.88516  0.86130  0.20543  1.0000
  H   H15       1.0  0.88520  0.63872  0.70544  1.0000
  H   H16       1.0  0.11481  0.13871  0.79457  1.0000
  H   H17       1.0  0.62436  0.62035  0.14532  1.0000
  H   H18       1.0  0.37566  0.12035  0.35468  1.0000
  H   H19       1.0  0.37566  0.37964  0.85468  1.0000
  H   H20       1.0  0.62433  0.87964  0.64532  1.0000
  H   H21       1.0  0.82785  0.50641  0.19146  1.0000
  H   H22       1.0  0.17216  0.00642  0.30854  1.0000
  H   H23       1.0  0.17218  0.49359  0.80854  1.0000
  H   H24       1.0  0.82782  0.99358  0.69146  1.0000
  H   H25       1.0  0.95889  0.58595  0.06983  1.0000
  H   H26       1.0  0.04110  0.08594  0.43017  1.0000
  H   H27       1.0  0.04112  0.41406  0.93016  1.0000
  H   H28       1.0  0.95887  0.91406  0.56983  1.0000
  H   H29       1.0  0.69509  0.54287  0.01359  1.0000
  H   H30       1.0  0.30489  0.04286  0.48642  1.0000
  H   H31       1.0  0.30491  0.45714  0.98641  1.0000
  H   H32       1.0  0.69507  0.95714  0.51358  1.0000
  H   H33       1.0  0.87991  0.41695  0.05707  1.0000
  H   H34       1.0  0.12009  0.91694  0.44294  1.0000
  H   H35       1.0  0.12010  0.58305  0.94293  1.0000
  H   H36       1.0  0.87989  0.08305  0.55706  1.0000
  C   C1        1.0  0.47949  0.14470  0.94116  1.0000
  C   C2        1.0  0.52051  0.64470  0.55884  1.0000
  C   C3        1.0  0.52051  0.85529  0.05884  1.0000
  C   C4        1.0  0.47950  0.35530  0.44116  1.0000
  C   C5        1.0  0.89384  0.13059  0.16283  1.0000
  C   C6        1.0  0.10617  0.63060  0.33717  1.0000
  C   C7        1.0  0.10619  0.86941  0.83717  1.0000
  C   C8        1.0  0.89382  0.36941  0.66283  1.0000
  C   C9        1.0  0.21363  0.22514  0.12318  1.0000
  C   C10       1.0  0.78636  0.72515  0.37681  1.0000
  C   C11       1.0  0.78638  0.77486  0.87681  1.0000
  C   C12       1.0  0.21362  0.27485  0.62319  1.0000
  C   C13       1.0  0.91391  0.20873  0.22964  1.0000
  C   C14       1.0  0.08610  0.70875  0.27035  1.0000
  C   C15       1.0  0.08612  0.79126  0.77036  1.0000
  C   C16       1.0  0.91388  0.29125  0.72964  1.0000
  C   C17       1.0  0.24245  0.30974  0.18764  1.0000
  C   C18       1.0  0.75755  0.80975  0.31235  1.0000
  C   C19       1.0  0.75757  0.69026  0.81235  1.0000
  C   C20       1.0  0.24244  0.19025  0.68765  1.0000
  C   C21       1.0  0.09185  0.29905  0.24272  1.0000
  C   C22       1.0  0.90815  0.79906  0.25728  1.0000
  C   C23       1.0  0.90819  0.70095  0.75728  1.0000
  C   C24       1.0  0.09182  0.20094  0.74272  1.0000
  C   C25       1.0  0.42283  0.41298  0.19748  1.0000
  C   C26       1.0  0.57716  0.91298  0.30252  1.0000
  C   C27       1.0  0.57720  0.58702  0.80252  1.0000
  C   C28       1.0  0.42281  0.08702  0.69748  1.0000
  C   C29       1.0  0.70618  0.52452  0.13865  1.0000
  C   C30       1.0  0.29382  0.02453  0.36135  1.0000
  C   C31       1.0  0.29384  0.47548  0.86134  1.0000
  C   C32       1.0  0.70615  0.97548  0.63865  1.0000
  C   C33       1.0  0.81530  0.51667  0.06540  1.0000
  C   C34       1.0  0.18469  0.01667  0.43460  1.0000
  C   C35       1.0  0.18471  0.48333  0.93459  1.0000
  C   C36       1.0  0.81527  0.98333  0.56540  1.0000
  S   S1        1.0  0.72810  0.19613  0.92453  1.0000
  S   S2        1.0  0.27191  0.69612  0.57546  1.0000
  S   S3        1.0  0.27190  0.80387  0.07547  1.0000
  S   S4        1.0  0.72810  0.30388  0.42453  1.0000
  N   N1        1.0  0.04354  0.13715  0.11142  1.0000
  N   N2        1.0  0.95645  0.63716  0.38858  1.0000
  N   N3        1.0  0.95647  0.86284  0.88858  1.0000
  N   N4        1.0  0.04354  0.36285  0.61142  1.0000
  N   N5        1.0  0.70357  0.89022  0.04747  1.0000
  N   N6        1.0  0.29642  0.39024  0.45253  1.0000
  N   N7        1.0  0.29644  0.10977  0.95253  1.0000
  N   N8        1.0  0.70359  0.60977  0.54747  1.0000
  O   O1        1.0  0.53066  0.42275  0.13421  1.0000
  O   O2        1.0  0.46932  0.92275  0.36579  1.0000
  O   O3        1.0  0.46936  0.57724  0.86579  1.0000
  O   O4        1.0  0.53063  0.07724  0.63421  1.0000
  O   O5        1.0  0.46507  0.48287  0.25551  1.0000
  O   O6        1.0  0.53490  0.98289  0.24449  1.0000
  O   O7        1.0  0.53494  0.51712  0.74449  1.0000
  O   O8        1.0  0.46507  0.01712  0.75551  1.0000
