data_image0
_chemical_formula_structural       Zn2H28C28N8O8
_chemical_formula_sum              "Zn2 H28 C28 N8 O8"
_cell_length_a       7.64138
_cell_length_b       9.46654
_cell_length_c       11.0919
_cell_angle_alpha    79.3006
_cell_angle_beta     69.6395
_cell_angle_gamma    84.7567

_space_group_name_H-M_alt    "P 1"
_space_group_IT_number       1

loop_
  _space_group_symop_operation_xyz
  'x, y, z'

loop_
  _atom_site_type_symbol
  _atom_site_label
  _atom_site_symmetry_multiplicity
  _atom_site_fract_x
  _atom_site_fract_y
  _atom_site_fract_z
  _atom_site_occupancy
  Zn  Zn1       1.0  0.56938  0.97075  0.24450  1.0000
  Zn  Zn2       1.0  0.51678  0.12606  0.77434  1.0000
  H   H1        1.0  0.68022  0.21720  0.01731  1.0000
  H   H2        1.0  0.35092  0.40238  0.76015  1.0000
  H   H3        1.0  0.44236  0.70754  0.38307  1.0000
  H   H4        1.0  0.18133  0.16070  0.93905  1.0000
  H   H5        1.0  0.34078  0.23373  0.97679  1.0000
  H   H6        1.0  0.20321  0.94348  0.35222  1.0000
  H   H7        1.0  0.29197  0.85810  0.22389  1.0000
  H   H8        1.0  0.39402  0.23141  0.59935  1.0000
  H   H9        1.0  0.49675  0.07960  0.54354  1.0000
  H   H10       1.0  0.23794  0.96069  0.73194  1.0000
  H   H11       1.0  0.33570  0.18586  0.22175  1.0000
  H   H12       1.0  0.51456  0.23806  0.25299  1.0000
  H   H13       1.0  0.01705  0.81993  0.90175  1.0000
  H   H14       1.0  0.81393  0.47773  0.22155  1.0000
  H   H15       1.0  0.22555  0.64477  0.76705  1.0000
  H   H16       1.0  0.01253  0.30169  0.09312  1.0000
  H   H17       1.0  0.72620  0.60616  0.45340  1.0000
  H   H18       1.0  0.03828  0.35432  0.67902  1.0000
  H   H19       1.0  0.98229  0.77264  0.34728  1.0000
  H   H20       1.0  0.30434  0.51804  0.56729  1.0000
  H   H21       1.0  0.70885  0.69269  0.80658  1.0000
  H   H22       1.0  0.24528  0.68030  0.16529  1.0000
  H   H23       1.0  0.75671  0.42890  0.85764  1.0000
  H   H24       1.0  0.29188  0.42148  0.21902  1.0000
  H   H25       1.0  0.25750  0.24884  0.45636  1.0000
  H   H26       1.0  0.05356  0.25767  0.32251  1.0000
  H   H27       1.0  0.76476  0.88937  0.57748  1.0000
  H   H28       1.0  0.96412  0.87817  0.71240  1.0000
  C   C1        1.0  0.77477  0.76143  0.14816  1.0000
  C   C2        1.0  0.90251  0.66004  0.06942  1.0000
  C   C3        1.0  0.01940  0.70549  0.94078  1.0000
  C   C4        1.0  0.90463  0.51366  0.12193  1.0000
  C   C5        1.0  0.13416  0.60852  0.86653  1.0000
  C   C6        1.0  0.01816  0.41477  0.04899  1.0000
  C   C7        1.0  0.13429  0.46087  0.92014  1.0000
  C   C8        1.0  0.70352  0.37144  0.63625  1.0000
  C   C9        1.0  0.86194  0.46941  0.57505  1.0000
  C   C10       1.0  0.85055  0.58805  0.48115  1.0000
  C   C11       1.0  0.02760  0.44553  0.60551  1.0000
  C   C12       1.0  0.99712  0.68179  0.41975  1.0000
  C   C13       1.0  0.17572  0.53673  0.54411  1.0000
  C   C14       1.0  0.16167  0.65793  0.45127  1.0000
  C   C15       1.0  0.44779  0.86483  0.95469  1.0000
  C   C16       1.0  0.47692  0.70598  0.98418  1.0000
  C   C17       1.0  0.61850  0.63240  0.89689  1.0000
  C   C18       1.0  0.36192  0.62696  0.09950  1.0000
  C   C19       1.0  0.64545  0.48496  0.92500  1.0000
  C   C20       1.0  0.38704  0.47889  0.12902  1.0000
  C   C21       1.0  0.52887  0.40681  0.04125  1.0000
  C   C22       1.0  0.12882  0.06021  0.59224  1.0000
  C   C23       1.0  0.15364  0.16707  0.48125  1.0000
  C   C24       1.0  0.03882  0.17304  0.40677  1.0000
  C   C25       1.0  0.89858  0.07301  0.43900  1.0000
  C   C26       1.0  0.87255  0.96812  0.55130  1.0000
  C   C27       1.0  0.98603  0.96097  0.62633  1.0000
  C   C28       1.0  0.78963  0.07427  0.35082  1.0000
  N   N1        1.0  0.54891  0.25556  0.06212  1.0000
  N   N2        1.0  0.24333  0.36405  0.84324  1.0000
  N   N3        1.0  0.30919  0.75010  0.40140  1.0000
  N   N4        1.0  0.29298  0.22707  0.90159  1.0000
  N   N5        1.0  0.30930  0.87524  0.30912  1.0000
  N   N6        1.0  0.40950  0.12220  0.62483  1.0000
  N   N7        1.0  0.23326  0.05631  0.67335  1.0000
  N   N8        1.0  0.47849  0.18393  0.19303  1.0000
  O   O1        1.0  0.68054  0.71776  0.26656  1.0000
  O   O2        1.0  0.76022  0.89431  0.09449  1.0000
  O   O3        1.0  0.72682  0.25604  0.71491  1.0000
  O   O4        1.0  0.55294  0.40096  0.61144  1.0000
  O   O5        1.0  0.54135  0.92308  0.83573  1.0000
  O   O6        1.0  0.33940  0.93351  0.03959  1.0000
  O   O7        1.0  0.84606  0.14012  0.23600  1.0000
  O   O8        1.0  0.63561  0.00102  0.39887  1.0000
