data_image0
_chemical_formula_structural       Mn2H20C20N24O4
_chemical_formula_sum              "Mn2 H20 C20 N24 O4"
_cell_length_a       3.46805
_cell_length_b       13.9263
_cell_length_c       14.5572
_cell_angle_alpha    99.2215
_cell_angle_beta     90.0009
_cell_angle_gamma    89.9992

_space_group_name_H-M_alt    "P 1"
_space_group_IT_number       1

loop_
  _space_group_symop_operation_xyz
  'x, y, z'

loop_
  _atom_site_type_symbol
  _atom_site_label
  _atom_site_symmetry_multiplicity
  _atom_site_fract_x
  _atom_site_fract_y
  _atom_site_fract_z
  _atom_site_occupancy
  Mn  Mn1       1.0  0.91237  0.50000  0.75000  1.0000
  Mn  Mn2       1.0  0.08764  0.50000  0.25000  1.0000
  H   H1        1.0  0.74042  0.29217  0.61705  1.0000
  H   H2        1.0  0.74041  0.70783  0.88296  1.0000
  H   H3        1.0  0.25961  0.70783  0.38295  1.0000
  H   H4        1.0  0.25961  0.29217  0.11705  1.0000
  H   H5        1.0  0.20287  0.18103  0.89756  1.0000
  H   H6        1.0  0.20288  0.81897  0.60245  1.0000
  H   H7        1.0  0.79713  0.81896  0.10245  1.0000
  H   H8        1.0  0.79712  0.18104  0.39755  1.0000
  H   H9        1.0  0.19217  0.35845  0.88565  1.0000
  H   H10       1.0  0.19216  0.64155  0.61436  1.0000
  H   H11       1.0  0.80782  0.64155  0.11435  1.0000
  H   H12       1.0  0.80783  0.35846  0.38565  1.0000
  H   H13       1.0  0.64955  0.95288  0.55688  1.0000
  H   H14       1.0  0.64956  0.04711  0.94312  1.0000
  H   H15       1.0  0.35045  0.04712  0.44311  1.0000
  H   H16       1.0  0.35046  0.95288  0.05688  1.0000
  H   H17       1.0  0.87121  0.98189  0.66839  1.0000
  H   H18       1.0  0.87123  0.01810  0.83161  1.0000
  H   H19       1.0  0.12877  0.01810  0.33161  1.0000
  H   H20       1.0  0.12876  0.98190  0.16839  1.0000
  C   C1        1.0  0.84509  0.26877  0.68038  1.0000
  C   C2        1.0  0.84509  0.73122  0.81962  1.0000
  C   C3        1.0  0.15491  0.73123  0.31962  1.0000
  C   C4        1.0  0.15492  0.26878  0.18038  1.0000
  C   C5        1.0  0.85866  0.16967  0.68621  1.0000
  C   C6        1.0  0.85869  0.83032  0.81379  1.0000
  C   C7        1.0  0.14131  0.83033  0.31379  1.0000
  C   C8        1.0  0.14134  0.16968  0.18621  1.0000
  C   C9        1.0  0.10205  0.20529  0.83389  1.0000
  C   C10       1.0  0.10206  0.79471  0.66611  1.0000
  C   C11       1.0  0.89795  0.79471  0.16611  1.0000
  C   C12       1.0  0.89794  0.20530  0.33389  1.0000
  C   C13       1.0  0.09140  0.30446  0.82834  1.0000
  C   C14       1.0  0.09140  0.69554  0.67167  1.0000
  C   C15       1.0  0.90861  0.69554  0.17166  1.0000
  C   C16       1.0  0.90860  0.30447  0.32834  1.0000
  C   C17       1.0  0.71801  0.09797  0.60458  1.0000
  C   C18       1.0  0.71803  0.90203  0.89542  1.0000
  C   C19       1.0  0.28197  0.90203  0.39542  1.0000
  C   C20       1.0  0.28199  0.09797  0.10458  1.0000
  N   N1        1.0  0.95900  0.33623  0.75178  1.0000
  N   N2        1.0  0.95899  0.66377  0.74822  1.0000
  N   N3        1.0  0.04101  0.66377  0.24822  1.0000
  N   N4        1.0  0.04102  0.33623  0.25178  1.0000
  N   N5        1.0  0.98556  0.13771  0.76325  1.0000
  N   N6        1.0  0.98559  0.86228  0.73676  1.0000
  N   N7        1.0  0.01442  0.86228  0.23675  1.0000
  N   N8        1.0  0.01443  0.13772  0.26324  1.0000
  N   N9        1.0  0.75591  0.00398  0.61056  1.0000
  N   N10       1.0  0.75594  0.99601  0.88944  1.0000
  N   N11       1.0  0.24405  0.99602  0.38944  1.0000
  N   N12       1.0  0.24406  0.00398  0.11056  1.0000
  N   N13       1.0  0.41789  0.52170  0.84550  1.0000
  N   N14       1.0  0.41790  0.47829  0.65450  1.0000
  N   N15       1.0  0.58210  0.47830  0.15450  1.0000
  N   N16       1.0  0.58210  0.52171  0.34550  1.0000
  N   N17       1.0  0.38999  0.56877  0.92275  1.0000
  N   N18       1.0  0.39000  0.43122  0.57725  1.0000
  N   N19       1.0  0.61000  0.43122  0.07725  1.0000
  N   N20       1.0  0.60999  0.56878  0.42275  1.0000
  N   N21       1.0  0.35846  0.61518  0.99640  1.0000
  N   N22       1.0  0.35848  0.38481  0.50360  1.0000
  N   N23       1.0  0.64153  0.38481  0.00360  1.0000
  N   N24       1.0  0.64151  0.61519  0.49640  1.0000
  O   O1        1.0  0.56846  0.12964  0.53680  1.0000
  O   O2        1.0  0.56849  0.87036  0.96320  1.0000
  O   O3        1.0  0.43153  0.87037  0.46320  1.0000
  O   O4        1.0  0.43153  0.12964  0.03681  1.0000
