data_image0
_chemical_formula_structural       Zn2H36C56N8O8
_chemical_formula_sum              "Zn2 H36 C56 N8 O8"
_cell_length_a       8.67975
_cell_length_b       10.3882
_cell_length_c       14.3301
_cell_angle_alpha    82.169
_cell_angle_beta     91.3892
_cell_angle_gamma    70.2204

_space_group_name_H-M_alt    "P 1"
_space_group_IT_number       1

loop_
  _space_group_symop_operation_xyz
  'x, y, z'

loop_
  _atom_site_type_symbol
  _atom_site_label
  _atom_site_symmetry_multiplicity
  _atom_site_fract_x
  _atom_site_fract_y
  _atom_site_fract_z
  _atom_site_occupancy
  Zn  Zn1       1.0  0.28251  0.70327  0.71290  1.0000
  Zn  Zn2       1.0  0.71747  0.29675  0.28710  1.0000
  H   H1        1.0  0.40255  0.68100  0.07210  1.0000
  H   H2        1.0  0.59746  0.31898  0.92790  1.0000
  H   H3        1.0  0.43995  0.63316  0.24663  1.0000
  H   H4        1.0  0.56006  0.36682  0.75337  1.0000
  H   H5        1.0  0.98608  0.97097  0.25157  1.0000
  H   H6        1.0  0.01393  0.02903  0.74843  1.0000
  H   H7        1.0  0.96801  0.00829  0.07683  1.0000
  H   H8        1.0  0.03201  0.99171  0.92316  1.0000
  H   H9        1.0  0.49791  0.68739  0.38188  1.0000
  H   H10       1.0  0.50210  0.31259  0.61813  1.0000
  H   H11       1.0  0.96894  0.85702  0.38507  1.0000
  H   H12       1.0  0.03107  0.14300  0.61493  1.0000
  H   H13       1.0  0.77382  0.91759  0.47291  1.0000
  H   H14       1.0  0.22619  0.08239  0.52708  1.0000
  H   H15       1.0  0.55871  0.96409  0.59026  1.0000
  H   H16       1.0  0.44129  0.03591  0.40972  1.0000
  H   H17       1.0  0.64572  0.90098  0.76226  1.0000
  H   H18       1.0  0.35427  0.09903  0.23773  1.0000
  H   H19       1.0  0.94717  0.78912  0.81247  1.0000
  H   H20       1.0  0.05281  0.21090  0.18753  1.0000
  H   H21       1.0  0.72018  0.59940  0.46773  1.0000
  H   H22       1.0  0.27981  0.40059  0.53228  1.0000
  H   H23       1.0  0.96959  0.50723  0.58292  1.0000
  H   H24       1.0  0.03040  0.49275  0.41710  1.0000
  H   H25       1.0  0.93309  0.49565  0.75526  1.0000
  H   H26       1.0  0.06689  0.50435  0.24475  1.0000
  H   H27       1.0  0.64654  0.58073  0.80828  1.0000
  H   H28       1.0  0.35344  0.41928  0.19172  1.0000
  H   H29       1.0  0.27380  0.36734  0.94315  1.0000
  H   H30       1.0  0.72623  0.63267  0.05686  1.0000
  H   H31       1.0  0.31414  0.13027  0.03038  1.0000
  H   H32       1.0  0.68589  0.86973  0.96962  1.0000
  H   H33       1.0  0.33559  0.93683  0.94059  1.0000
  H   H34       1.0  0.66444  0.06317  0.05940  1.0000
  H   H35       1.0  0.28140  0.21217  0.67966  1.0000
  H   H36       1.0  0.71857  0.78786  0.32034  1.0000
  C   C1        1.0  0.31175  0.74432  0.11396  1.0000
  C   C2        1.0  0.68827  0.25567  0.88604  1.0000
  C   C3        1.0  0.33358  0.71777  0.21222  1.0000
  C   C4        1.0  0.66643  0.28222  0.78778  1.0000
  C   C5        1.0  0.21528  0.79817  0.26528  1.0000
  C   C6        1.0  0.78474  0.20183  0.73472  1.0000
  C   C7        1.0  0.08074  0.90313  0.21485  1.0000
  C   C8        1.0  0.91928  0.09687  0.78515  1.0000
  C   C9        1.0  0.07084  0.92422  0.11649  1.0000
  C   C10       1.0  0.92918  0.07578  0.88351  1.0000
  C   C11       1.0  0.39661  0.69861  0.51819  1.0000
  C   C12       1.0  0.60339  0.30139  0.48181  1.0000
  C   C13       1.0  0.38658  0.71714  0.41945  1.0000
  C   C14       1.0  0.61343  0.28286  0.58055  1.0000
  C   C15       1.0  0.23141  0.77505  0.36962  1.0000
  C   C16       1.0  0.76860  0.22494  0.63038  1.0000
  C   C17       1.0  0.09147  0.81215  0.42124  1.0000
  C   C18       1.0  0.90854  0.18786  0.57875  1.0000
  C   C19       1.0  0.11106  0.79116  0.51989  1.0000
  C   C20       1.0  0.88894  0.20884  0.48011  1.0000
  C   C21       1.0  0.97351  0.82621  0.58245  1.0000
  C   C22       1.0  0.02648  0.17379  0.41755  1.0000
  C   C23       1.0  0.80866  0.88867  0.54854  1.0000
  C   C24       1.0  0.19133  0.11133  0.45146  1.0000
  C   C25       1.0  0.68875  0.91637  0.61343  1.0000
  C   C26       1.0  0.31124  0.08362  0.38656  1.0000
  C   C27       1.0  0.73604  0.88041  0.70973  1.0000
  C   C28       1.0  0.26395  0.11959  0.29026  1.0000
  C   C29       1.0  0.90289  0.81864  0.73800  1.0000
  C   C30       1.0  0.09710  0.18137  0.26199  1.0000
  C   C31       1.0  0.55260  0.63956  0.57906  1.0000
  C   C32       1.0  0.44739  0.36043  0.42095  1.0000
  C   C33       1.0  0.70744  0.59532  0.54352  1.0000
  C   C34       1.0  0.29255  0.40466  0.45649  1.0000
  C   C35       1.0  0.84629  0.54261  0.60720  1.0000
  C   C36       1.0  0.15370  0.45738  0.39282  1.0000
  C   C37       1.0  0.82737  0.53649  0.70377  1.0000
  C   C38       1.0  0.17262  0.46352  0.29624  1.0000
  C   C39       1.0  0.66886  0.58299  0.73357  1.0000
  C   C40       1.0  0.33113  0.41702  0.26645  1.0000
  C   C41       1.0  0.28437  0.28088  0.90527  1.0000
  C   C42       1.0  0.71565  0.71913  0.09473  1.0000
  C   C43       1.0  0.30732  0.14882  0.95337  1.0000
  C   C44       1.0  0.69270  0.85118  0.04663  1.0000
  C   C45       1.0  0.32218  0.03925  0.90356  1.0000
  C   C46       1.0  0.67781  0.96077  0.09644  1.0000
  C   C47       1.0  0.31233  0.06176  0.80456  1.0000
  C   C48       1.0  0.68768  0.93825  0.19544  1.0000
  C   C49       1.0  0.28949  0.19428  0.75661  1.0000
  C   C50       1.0  0.71050  0.80573  0.24338  1.0000
  C   C51       1.0  0.27620  0.30420  0.80618  1.0000
  C   C52       1.0  0.72379  0.69580  0.19382  1.0000
  C   C53       1.0  0.26259  0.44271  0.75206  1.0000
  C   C54       1.0  0.73740  0.55730  0.24793  1.0000
  C   C55       1.0  0.31275  0.94865  0.74907  1.0000
  C   C56       1.0  0.68725  0.05136  0.25094  1.0000
  N   N1        1.0  0.18351  0.84600  0.06566  1.0000
  N   N2        1.0  0.81650  0.15400  0.93434  1.0000
  N   N3        1.0  0.26081  0.73565  0.56524  1.0000
  N   N4        1.0  0.73920  0.26434  0.43476  1.0000
  N   N5        1.0  0.01838  0.79332  0.67618  1.0000
  N   N6        1.0  0.98161  0.20668  0.32382  1.0000
  N   N7        1.0  0.53539  0.63184  0.67305  1.0000
  N   N8        1.0  0.46460  0.36816  0.32695  1.0000
  O   O1        1.0  0.27986  0.53401  0.80065  1.0000
  O   O2        1.0  0.72011  0.46600  0.19934  1.0000
  O   O3        1.0  0.24162  0.46220  0.66328  1.0000
  O   O4        1.0  0.75838  0.53781  0.33671  1.0000
  O   O5        1.0  0.31372  0.83354  0.79735  1.0000
  O   O6        1.0  0.68626  0.16647  0.20265  1.0000
  O   O7        1.0  0.30521  0.97212  0.66019  1.0000
  O   O8        1.0  0.69479  0.02787  0.33981  1.0000
