data_image0
_chemical_formula_structural       Mn2H28C40N4O12
_chemical_formula_sum              "Mn2 H28 C40 N4 O12"
_cell_length_a       9.97136
_cell_length_b       10.1305
_cell_length_c       10.13
_cell_angle_alpha    68.4336
_cell_angle_beta     73.6019
_cell_angle_gamma    73.6052

_space_group_name_H-M_alt    "P 1"
_space_group_IT_number       1

loop_
  _space_group_symop_operation_xyz
  'x, y, z'

loop_
  _atom_site_type_symbol
  _atom_site_label
  _atom_site_symmetry_multiplicity
  _atom_site_fract_x
  _atom_site_fract_y
  _atom_site_fract_z
  _atom_site_occupancy
  Mn  Mn1       1.0  0.75006  0.03162  0.96830  1.0000
  Mn  Mn2       1.0  0.25008  0.96305  0.03693  1.0000
  H   H1        1.0  0.38140  0.85783  0.73874  1.0000
  H   H2        1.0  0.11871  0.26121  0.14204  1.0000
  H   H3        1.0  0.59630  0.13329  0.26886  1.0000
  H   H4        1.0  0.90373  0.73114  0.86662  1.0000
  H   H5        1.0  0.44532  0.93717  0.44084  1.0000
  H   H6        1.0  0.05469  0.55911  0.06294  1.0000
  H   H7        1.0  0.53853  0.05705  0.56694  1.0000
  H   H8        1.0  0.96145  0.43308  0.94305  1.0000
  H   H9        1.0  0.18351  0.03635  0.36066  1.0000
  H   H10       1.0  0.31652  0.63932  0.96362  1.0000
  H   H11       1.0  0.80351  0.96519  0.63997  1.0000
  H   H12       1.0  0.69653  0.36004  0.03484  1.0000
  H   H13       1.0  0.52790  0.88662  0.19623  1.0000
  H   H14       1.0  0.97199  0.80379  0.11331  1.0000
  H   H15       1.0  0.47108  0.12137  0.80176  1.0000
  H   H16       1.0  0.02890  0.19828  0.87865  1.0000
  H   H17       1.0  0.51921  0.67607  0.41627  1.0000
  H   H18       1.0  0.98072  0.58376  0.32381  1.0000
  H   H19       1.0  0.48066  0.33690  0.57963  1.0000
  H   H20       1.0  0.01936  0.42035  0.66309  1.0000
  H   H21       1.0  0.56663  0.57027  0.66135  1.0000
  H   H22       1.0  0.93335  0.33875  0.42975  1.0000
  H   H23       1.0  0.43460  0.42869  0.34112  1.0000
  H   H24       1.0  0.06539  0.65887  0.57131  1.0000
  H   H25       1.0  0.92415  0.12892  0.64930  1.0000
  H   H26       1.0  0.57580  0.35069  0.87110  1.0000
  H   H27       1.0  0.07181  0.87064  0.34744  1.0000
  H   H28       1.0  0.42821  0.65257  0.12936  1.0000
  C   C1        1.0  0.06641  0.91764  0.84724  1.0000
  C   C2        1.0  0.43364  0.15276  0.08236  1.0000
  C   C3        1.0  0.91467  0.08199  0.15554  1.0000
  C   C4        1.0  0.58531  0.84439  0.91809  1.0000
  C   C5        1.0  0.16117  0.92436  0.70577  1.0000
  C   C6        1.0  0.33883  0.29423  0.07555  1.0000
  C   C7        1.0  0.81743  0.06852  0.29643  1.0000
  C   C8        1.0  0.68256  0.70355  0.93136  1.0000
  C   C9        1.0  0.30788  0.89864  0.66486  1.0000
  C   C10       1.0  0.19213  0.33516  0.10131  1.0000
  C   C11       1.0  0.67127  0.09275  0.34092  1.0000
  C   C12       1.0  0.82874  0.65910  0.90716  1.0000
  C   C13       1.0  0.34054  0.94186  0.51061  1.0000
  C   C14       1.0  0.15950  0.48939  0.05817  1.0000
  C   C15       1.0  0.64211  0.05260  0.49499  1.0000
  C   C16       1.0  0.85789  0.50505  0.94739  1.0000
  C   C17       1.0  0.21274  0.99146  0.46603  1.0000
  C   C18       1.0  0.28733  0.53393  0.00856  1.0000
  C   C19       1.0  0.77164  0.00612  0.53597  1.0000
  C   C20       1.0  0.72840  0.46404  0.99385  1.0000
  C   C21       1.0  0.62654  0.81831  0.22901  1.0000
  C   C22       1.0  0.87336  0.77105  0.18174  1.0000
  C   C23       1.0  0.37369  0.19036  0.76582  1.0000
  C   C24       1.0  0.12631  0.23420  0.80965  1.0000
  C   C25       1.0  0.62304  0.69900  0.35291  1.0000
  C   C26       1.0  0.87686  0.64711  0.30099  1.0000
  C   C27       1.0  0.37821  0.30996  0.64241  1.0000
  C   C28       1.0  0.12180  0.35757  0.69003  1.0000
  C   C29       1.0  0.74995  0.60684  0.39318  1.0000
  C   C30       1.0  0.25001  0.39684  0.60315  1.0000
  C   C31       1.0  0.74999  0.47795  0.52210  1.0000
  C   C32       1.0  0.25001  0.52515  0.47485  1.0000
  C   C33       1.0  0.64837  0.47471  0.65156  1.0000
  C   C34       1.0  0.85162  0.34852  0.52530  1.0000
  C   C35       1.0  0.35342  0.52515  0.34819  1.0000
  C   C36       1.0  0.14659  0.65179  0.47485  1.0000
  C   C37       1.0  0.65295  0.35082  0.77154  1.0000
  C   C38       1.0  0.84700  0.22848  0.64914  1.0000
  C   C39       1.0  0.34970  0.64910  0.22910  1.0000
  C   C40       1.0  0.15033  0.77090  0.35092  1.0000
  N   N1        1.0  0.74996  0.85834  0.14173  1.0000
  N   N2        1.0  0.24999  0.15243  0.84762  1.0000
  N   N3        1.0  0.74996  0.22580  0.77415  1.0000
  N   N4        1.0  0.25002  0.77073  0.22928  1.0000
  O   O1        1.0  0.12583  0.88093  0.95506  1.0000
  O   O2        1.0  0.37420  0.04494  0.11904  1.0000
  O   O3        1.0  0.86355  0.10915  0.04249  1.0000
  O   O4        1.0  0.63643  0.95736  0.89120  1.0000
  O   O5        1.0  0.93061  0.94982  0.85153  1.0000
  O   O6        1.0  0.56940  0.14850  0.05039  1.0000
  O   O7        1.0  0.04657  0.07145  0.14937  1.0000
  O   O8        1.0  0.45339  0.85059  0.92857  1.0000
  O   O9        1.0  0.10238  0.98018  0.58306  1.0000
  O   O10       1.0  0.39767  0.41691  0.01979  1.0000
  O   O11       1.0  0.87941  0.01658  0.41694  1.0000
  O   O12       1.0  0.62060  0.58304  0.98334  1.0000
