data_image0
_chemical_formula_structural       Cu6H32C24N8Cl6
_chemical_formula_sum              "Cu6 H32 C24 N8 Cl6"
_cell_length_a       7.11382
_cell_length_b       9.22201
_cell_length_c       12.7721
_cell_angle_alpha    83.1237
_cell_angle_beta     85.0668
_cell_angle_gamma    81.7896

_space_group_name_H-M_alt    "P 1"
_space_group_IT_number       1

loop_
  _space_group_symop_operation_xyz
  'x, y, z'

loop_
  _atom_site_type_symbol
  _atom_site_label
  _atom_site_symmetry_multiplicity
  _atom_site_fract_x
  _atom_site_fract_y
  _atom_site_fract_z
  _atom_site_occupancy
  Cu  Cu1       1.0  0.75478  0.56042  0.23615  1.0000
  Cu  Cu2       1.0  0.24522  0.43959  0.76385  1.0000
  Cu  Cu3       1.0  0.79391  0.22648  0.16610  1.0000
  Cu  Cu4       1.0  0.20609  0.77352  0.83389  1.0000
  Cu  Cu5       1.0  0.83160  0.22660  0.36443  1.0000
  Cu  Cu6       1.0  0.16840  0.77340  0.63557  1.0000
  H   H1        1.0  0.28786  0.59086  0.46634  1.0000
  H   H2        1.0  0.71214  0.40914  0.53366  1.0000
  H   H3        1.0  0.13569  0.50983  0.31705  1.0000
  H   H4        1.0  0.86431  0.49018  0.68295  1.0000
  H   H5        1.0  0.52504  0.73051  0.33085  1.0000
  H   H6        1.0  0.47495  0.26950  0.66916  1.0000
  H   H7        1.0  0.48118  0.77830  0.46338  1.0000
  H   H8        1.0  0.51882  0.22171  0.53662  1.0000
  H   H9        1.0  0.56257  0.90785  0.36106  1.0000
  H   H10       1.0  0.43743  0.09216  0.63895  1.0000
  H   H11       1.0  0.84102  0.92127  0.61770  1.0000
  H   H12       1.0  0.15898  0.07873  0.38231  1.0000
  H   H13       1.0  0.70527  0.99386  0.50735  1.0000
  H   H14       1.0  0.29473  0.00614  0.49265  1.0000
  H   H15       1.0  0.62560  0.85113  0.59962  1.0000
  H   H16       1.0  0.37439  0.14887  0.40038  1.0000
  H   H17       1.0  0.38370  0.51223  0.18153  1.0000
  H   H18       1.0  0.61631  0.48775  0.81846  1.0000
  H   H19       1.0  0.18188  0.58945  0.02838  1.0000
  H   H20       1.0  0.81814  0.41054  0.97161  1.0000
  H   H21       1.0  0.47690  0.92603  0.81166  1.0000
  H   H22       1.0  0.52310  0.07398  0.18834  1.0000
  H   H23       1.0  0.71838  0.84264  0.82182  1.0000
  H   H24       1.0  0.28162  0.15737  0.17818  1.0000
  H   H25       1.0  0.63135  0.99431  0.89255  1.0000
  H   H26       1.0  0.36864  0.00569  0.10745  1.0000
  H   H27       1.0  0.89044  0.76399  0.12173  1.0000
  H   H28       1.0  0.10955  0.23601  0.87827  1.0000
  H   H29       1.0  0.78257  0.93500  0.05990  1.0000
  H   H30       1.0  0.21742  0.06500  0.94011  1.0000
  H   H31       1.0  0.91393  0.80449  0.98086  1.0000
  H   H32       1.0  0.08606  0.19551  0.01914  1.0000
  C   C1        1.0  0.77529  0.73283  0.41119  1.0000
  C   C2        1.0  0.22471  0.26717  0.58881  1.0000
  C   C3        1.0  0.86179  0.78179  0.49370  1.0000
  C   C4        1.0  0.13821  0.21821  0.50630  1.0000
  C   C5        1.0  0.14159  0.63388  0.44939  1.0000
  C   C6        1.0  0.85841  0.36612  0.55061  1.0000
  C   C7        1.0  0.05804  0.58852  0.36769  1.0000
  C   C8        1.0  0.94197  0.41149  0.63231  1.0000
  C   C9        1.0  0.57397  0.79005  0.39045  1.0000
  C   C10       1.0  0.42603  0.20995  0.60955  1.0000
  C   C11       1.0  0.75285  0.89307  0.55883  1.0000
  C   C12       1.0  0.24715  0.10693  0.44118  1.0000
  C   C13       1.0  0.53011  0.78981  0.95614  1.0000
  C   C14       1.0  0.46989  0.21019  0.04385  1.0000
  C   C15       1.0  0.64096  0.74874  0.04416  1.0000
  C   C16       1.0  0.35905  0.25126  0.95584  1.0000
  C   C17       1.0  0.42347  0.59378  0.11760  1.0000
  C   C18       1.0  0.57654  0.40620  0.88240  1.0000
  C   C19       1.0  0.31304  0.63593  0.03299  1.0000
  C   C20       1.0  0.68697  0.36405  0.96700  1.0000
  C   C21       1.0  0.59158  0.89473  0.86568  1.0000
  C   C22       1.0  0.40842  0.10528  0.13432  1.0000
  C   C23       1.0  0.81689  0.81631  0.05206  1.0000
  C   C24       1.0  0.18311  0.18370  0.94794  1.0000
  N   N1        1.0  0.87395  0.63605  0.34856  1.0000
  N   N2        1.0  0.12605  0.36395  0.65144  1.0000
  N   N3        1.0  0.04446  0.73016  0.51346  1.0000
  N   N4        1.0  0.95553  0.26984  0.48654  1.0000
  N   N5        1.0  0.36617  0.73239  0.95091  1.0000
  N   N6        1.0  0.63384  0.26760  0.04909  1.0000
  N   N7        1.0  0.58917  0.64779  0.12389  1.0000
  N   N8        1.0  0.41084  0.35220  0.87610  1.0000
  Cl  Cl1       1.0  0.00850  0.39851  0.16395  1.0000
  Cl  Cl2       1.0  0.99151  0.60149  0.83605  1.0000
  Cl  Cl3       1.0  0.90033  0.02681  0.27240  1.0000
  Cl  Cl4       1.0  0.09967  0.97319  0.72760  1.0000
  Cl  Cl5       1.0  0.55515  0.38356  0.34045  1.0000
  Cl  Cl6       1.0  0.44485  0.61644  0.65955  1.0000
