data_image0
_chemical_formula_structural       H24Pb2C26N8O4
_chemical_formula_sum              "H24 Pb2 C26 N8 O4"
_cell_length_a       7.4337
_cell_length_b       9.62619
_cell_length_c       9.89045
_cell_angle_alpha    95.3689
_cell_angle_beta     98.9674
_cell_angle_gamma    104.012

_space_group_name_H-M_alt    "P 1"
_space_group_IT_number       1

loop_
  _space_group_symop_operation_xyz
  'x, y, z'

loop_
  _atom_site_type_symbol
  _atom_site_label
  _atom_site_symmetry_multiplicity
  _atom_site_fract_x
  _atom_site_fract_y
  _atom_site_fract_z
  _atom_site_occupancy
  H   H1        1.0  0.61726  0.57252  0.56803  1.0000
  H   H2        1.0  0.38274  0.42750  0.43198  1.0000
  H   H3        1.0  0.83777  0.47130  0.96466  1.0000
  H   H4        1.0  0.16225  0.52869  0.03533  1.0000
  H   H5        1.0  0.04990  0.72577  0.01528  1.0000
  H   H6        1.0  0.95012  0.27422  0.98473  1.0000
  H   H7        1.0  0.02305  0.89183  0.83665  1.0000
  H   H8        1.0  0.97695  0.10818  0.16338  1.0000
  H   H9        1.0  0.64118  0.03090  0.91330  1.0000
  H   H10       1.0  0.35888  0.96910  0.08664  1.0000
  H   H11       1.0  0.10461  0.69847  0.49435  1.0000
  H   H12       1.0  0.89534  0.30152  0.50566  1.0000
  H   H13       1.0  0.12600  0.48122  0.61561  1.0000
  H   H14       1.0  0.87399  0.51878  0.38440  1.0000
  H   H15       1.0  0.34128  0.52243  0.84559  1.0000
  H   H16       1.0  0.65874  0.47758  0.15441  1.0000
  H   H17       1.0  0.53270  0.77328  0.94252  1.0000
  H   H18       1.0  0.46733  0.22673  0.05746  1.0000
  H   H19       1.0  0.13824  0.12041  0.82708  1.0000
  H   H20       1.0  0.86173  0.87952  0.17289  1.0000
  H   H21       1.0  0.93761  0.18921  0.77769  1.0000
  H   H22       1.0  0.06237  0.81075  0.22234  1.0000
  H   H23       1.0  0.16749  0.28846  0.76177  1.0000
  H   H24       1.0  0.83250  0.71152  0.23829  1.0000
  Pb  Pb1       1.0  0.26961  0.07324  0.50021  1.0000
  Pb  Pb2       1.0  0.73035  0.92680  0.49977  1.0000
  C   C1        1.0  0.71053  0.60227  0.66863  1.0000
  C   C2        1.0  0.28948  0.39775  0.33138  1.0000
  C   C3        1.0  0.71304  0.50142  0.76203  1.0000
  C   C4        1.0  0.28699  0.49858  0.23797  1.0000
  C   C5        1.0  0.83471  0.54704  0.88982  1.0000
  C   C6        1.0  0.16532  0.45295  0.11018  1.0000
  C   C7        1.0  0.94898  0.68827  0.91844  1.0000
  C   C8        1.0  0.05104  0.31173  0.08157  1.0000
  C   C9        1.0  0.93566  0.78053  0.81882  1.0000
  C   C10       1.0  0.06435  0.21947  0.18120  1.0000
  C   C11       1.0  0.58454  0.35302  0.72159  1.0000
  C   C12       1.0  0.41548  0.64699  0.27840  1.0000
  C   C13       1.0  0.53411  0.01323  0.81884  1.0000
  C   C14       1.0  0.46589  0.98677  0.18112  1.0000
  C   C15       1.0  0.42016  0.86649  0.76758  1.0000
  C   C16       1.0  0.57984  0.13351  0.23240  1.0000
  C   C17       1.0  0.19908  0.70857  0.59329  1.0000
  C   C18       1.0  0.80089  0.29143  0.40672  1.0000
  C   C19       1.0  0.20921  0.58930  0.66143  1.0000
  C   C20       1.0  0.79078  0.41070  0.33858  1.0000
  C   C21       1.0  0.32950  0.61282  0.78927  1.0000
  C   C22       1.0  0.67050  0.38718  0.21073  1.0000
  C   C23       1.0  0.43635  0.75226  0.84338  1.0000
  C   C24       1.0  0.56366  0.24775  0.15660  1.0000
  C   C25       1.0  0.07245  0.17851  0.74998  1.0000
  C   C26       1.0  0.92753  0.82147  0.25004  1.0000
  N   N1        1.0  0.81847  0.73864  0.69595  1.0000
  N   N2        1.0  0.18153  0.26138  0.30408  1.0000
  N   N3        1.0  0.62579  0.25300  0.80074  1.0000
  N   N4        1.0  0.37422  0.74700  0.19924  1.0000
  N   N5        1.0  0.51125  0.11998  0.75237  1.0000
  N   N6        1.0  0.48874  0.88002  0.24762  1.0000
  N   N7        1.0  0.30053  0.84296  0.64419  1.0000
  N   N8        1.0  0.69944  0.15703  0.35581  1.0000
  O   O1        1.0  0.45145  0.33362  0.61836  1.0000
  O   O2        1.0  0.54855  0.66641  0.38165  1.0000
  O   O3        1.0  0.04002  0.10738  0.61335  1.0000
  O   O4        1.0  0.95995  0.89268  0.38663  1.0000
