data_image0
_chemical_formula_structural       Sn6H72C48S6O12
_chemical_formula_sum              "Sn6 H72 C48 S6 O12"
_cell_length_a       9.96106
_cell_length_b       13.591
_cell_length_c       13.591
_cell_angle_alpha    120
_cell_angle_beta     90.0002
_cell_angle_gamma    89.9998

_space_group_name_H-M_alt    "P 1"
_space_group_IT_number       1

loop_
  _space_group_symop_operation_xyz
  'x, y, z'

loop_
  _atom_site_type_symbol
  _atom_site_label
  _atom_site_symmetry_multiplicity
  _atom_site_fract_x
  _atom_site_fract_y
  _atom_site_fract_z
  _atom_site_occupancy
  Sn  Sn1       1.0  0.50626  0.43947  0.47820  1.0000
  Sn  Sn2       1.0  0.00627  0.96128  0.43947  1.0000
  Sn  Sn3       1.0  0.50627  0.52181  0.96128  1.0000
  Sn  Sn4       1.0  0.00627  0.56053  0.52180  1.0000
  Sn  Sn5       1.0  0.50627  0.03872  0.56053  1.0000
  Sn  Sn6       1.0  0.00627  0.47819  0.03872  1.0000
  H   H1        1.0  0.04883  0.94916  0.11542  1.0000
  H   H2        1.0  0.54882  0.83374  0.94917  1.0000
  H   H3        1.0  0.04882  0.88458  0.83374  1.0000
  H   H4        1.0  0.54882  0.05083  0.88458  1.0000
  H   H5        1.0  0.04883  0.16626  0.05083  1.0000
  H   H6        1.0  0.54883  0.11542  0.16626  1.0000
  H   H7        1.0  0.85168  0.09587  0.21062  1.0000
  H   H8        1.0  0.35168  0.88526  0.09588  1.0000
  H   H9        1.0  0.85168  0.78938  0.88525  1.0000
  H   H10       1.0  0.35168  0.90413  0.78938  1.0000
  H   H11       1.0  0.85168  0.11475  0.90413  1.0000
  H   H12       1.0  0.35168  0.21062  0.11474  1.0000
  H   H13       1.0  0.94313  0.30391  0.34315  1.0000
  H   H14       1.0  0.44314  0.96077  0.30391  1.0000
  H   H15       1.0  0.94313  0.65685  0.96076  1.0000
  H   H16       1.0  0.44313  0.69609  0.65686  1.0000
  H   H17       1.0  0.94313  0.03924  0.69609  1.0000
  H   H18       1.0  0.44314  0.34315  0.03924  1.0000
  H   H19       1.0  0.75014  0.35361  0.48210  1.0000
  H   H20       1.0  0.25014  0.87150  0.35360  1.0000
  H   H21       1.0  0.75013  0.51790  0.87150  1.0000
  H   H22       1.0  0.25014  0.64639  0.51790  1.0000
  H   H23       1.0  0.75014  0.12850  0.64640  1.0000
  H   H24       1.0  0.25014  0.48210  0.12850  1.0000
  H   H25       1.0  0.67291  0.26430  0.34703  1.0000
  H   H26       1.0  0.17291  0.91728  0.26431  1.0000
  H   H27       1.0  0.67291  0.65297  0.91728  1.0000
  H   H28       1.0  0.17291  0.73569  0.65297  1.0000
  H   H29       1.0  0.67291  0.08272  0.73570  1.0000
  H   H30       1.0  0.17291  0.34703  0.08272  1.0000
  H   H31       1.0  0.62488  0.25291  0.46730  1.0000
  H   H32       1.0  0.12489  0.78561  0.25291  1.0000
  H   H33       1.0  0.62488  0.53270  0.78561  1.0000
  H   H34       1.0  0.12488  0.74709  0.53270  1.0000
  H   H35       1.0  0.62488  0.21439  0.74709  1.0000
  H   H36       1.0  0.12489  0.46730  0.21439  1.0000
  H   H37       1.0  0.55431  0.60183  0.41966  1.0000
  H   H38       1.0  0.05431  0.18217  0.60183  1.0000
  H   H39       1.0  0.55431  0.58034  0.18218  1.0000
  H   H40       1.0  0.05432  0.39817  0.58034  1.0000
  H   H41       1.0  0.55431  0.81783  0.39817  1.0000
  H   H42       1.0  0.05432  0.41966  0.81783  1.0000
  H   H43       1.0  0.39102  0.54060  0.37070  1.0000
  H   H44       1.0  0.89102  0.16990  0.54060  1.0000
  H   H45       1.0  0.39101  0.62930  0.16990  1.0000
  H   H46       1.0  0.89102  0.45940  0.62930  1.0000
  H   H47       1.0  0.39102  0.83010  0.45940  1.0000
  H   H48       1.0  0.89102  0.37070  0.83010  1.0000
  H   H49       1.0  0.53710  0.46485  0.29488  1.0000
  H   H50       1.0  0.03709  0.16996  0.46485  1.0000
  H   H51       1.0  0.53709  0.70512  0.16997  1.0000
  H   H52       1.0  0.03710  0.53515  0.70511  1.0000
  H   H53       1.0  0.53709  0.83004  0.53515  1.0000
  H   H54       1.0  0.03710  0.29489  0.83004  1.0000
  H   H55       1.0  0.44914  0.55304  0.70684  1.0000
  H   H56       1.0  0.94915  0.84620  0.55304  1.0000
  H   H57       1.0  0.44915  0.29316  0.84620  1.0000
  H   H58       1.0  0.94914  0.44695  0.29315  1.0000
  H   H59       1.0  0.44914  0.15380  0.44696  1.0000
  H   H60       1.0  0.94914  0.70685  0.15380  1.0000
  H   H61       1.0  0.37423  0.41504  0.63723  1.0000
  H   H62       1.0  0.87424  0.77780  0.41504  1.0000
  H   H63       1.0  0.37423  0.36276  0.77780  1.0000
  H   H64       1.0  0.87423  0.58496  0.36276  1.0000
  H   H65       1.0  0.37423  0.22219  0.58496  1.0000
  H   H66       1.0  0.87423  0.63724  0.22219  1.0000
  H   H67       1.0  0.29750  0.52788  0.62716  1.0000
  H   H68       1.0  0.79751  0.90072  0.52789  1.0000
  H   H69       1.0  0.29751  0.37284  0.90072  1.0000
  H   H70       1.0  0.79750  0.47211  0.37284  1.0000
  H   H71       1.0  0.29750  0.09928  0.47211  1.0000
  H   H72       1.0  0.79750  0.62716  0.09928  1.0000
  C   C1        1.0  0.23468  0.33137  0.36788  1.0000
  C   C2        1.0  0.73469  0.96349  0.33137  1.0000
  C   C3        1.0  0.23468  0.63213  0.96348  1.0000
  C   C4        1.0  0.73468  0.66863  0.63212  1.0000
  C   C5        1.0  0.23468  0.03651  0.66863  1.0000
  C   C6        1.0  0.73469  0.36787  0.03651  1.0000
  C   C7        1.0  0.14538  0.23394  0.30084  1.0000
  C   C8        1.0  0.64539  0.93310  0.23395  1.0000
  C   C9        1.0  0.14539  0.69916  0.93310  1.0000
  C   C10       1.0  0.64538  0.76605  0.69916  1.0000
  C   C11       1.0  0.14539  0.06690  0.76605  1.0000
  C   C12       1.0  0.64539  0.30084  0.06690  1.0000
  C   C13       1.0  0.05883  0.03971  0.17446  1.0000
  C   C14       1.0  0.55883  0.86524  0.03971  1.0000
  C   C15       1.0  0.05883  0.82554  0.86525  1.0000
  C   C16       1.0  0.55883  0.96029  0.82554  1.0000
  C   C17       1.0  0.05883  0.13476  0.96029  1.0000
  C   C18       1.0  0.55884  0.17447  0.13476  1.0000
  C   C19       1.0  0.95733  0.11846  0.22447  1.0000
  C   C20       1.0  0.45734  0.89399  0.11846  1.0000
  C   C21       1.0  0.95733  0.77553  0.89399  1.0000
  C   C22       1.0  0.45733  0.88154  0.77553  1.0000
  C   C23       1.0  0.95733  0.10601  0.88154  1.0000
  C   C24       1.0  0.45734  0.22447  0.10601  1.0000
  C   C25       1.0  0.00654  0.22974  0.29580  1.0000
  C   C26       1.0  0.50655  0.93395  0.22974  1.0000
  C   C27       1.0  0.00655  0.70420  0.93394  1.0000
  C   C28       1.0  0.50654  0.77026  0.70420  1.0000
  C   C29       1.0  0.00654  0.06606  0.77026  1.0000
  C   C30       1.0  0.50655  0.29580  0.06605  1.0000
  C   C31       1.0  0.65684  0.31186  0.43900  1.0000
  C   C32       1.0  0.15684  0.87286  0.31186  1.0000
  C   C33       1.0  0.65683  0.56100  0.87286  1.0000
  C   C34       1.0  0.15684  0.68814  0.56100  1.0000
  C   C35       1.0  0.65683  0.12714  0.68814  1.0000
  C   C36       1.0  0.15684  0.43900  0.12714  1.0000
  C   C37       1.0  0.49625  0.52289  0.37944  1.0000
  C   C38       1.0  0.99625  0.14345  0.52289  1.0000
  C   C39       1.0  0.49625  0.62056  0.14345  1.0000
  C   C40       1.0  0.99625  0.47711  0.62055  1.0000
  C   C41       1.0  0.49625  0.85655  0.47711  1.0000
  C   C42       1.0  0.99625  0.37944  0.85655  1.0000
  C   C43       1.0  0.39373  0.49148  0.63157  1.0000
  C   C44       1.0  0.89374  0.85991  0.49148  1.0000
  C   C45       1.0  0.39374  0.36843  0.85991  1.0000
  C   C46       1.0  0.89373  0.50852  0.36843  1.0000
  C   C47       1.0  0.39373  0.14009  0.50852  1.0000
  C   C48       1.0  0.89373  0.63157  0.14009  1.0000
  S   S1        1.0  0.21371  0.10051  0.21666  1.0000
  S   S2        1.0  0.71371  0.88385  0.10051  1.0000
  S   S3        1.0  0.21371  0.78334  0.88385  1.0000
  S   S4        1.0  0.71371  0.89949  0.78334  1.0000
  S   S5        1.0  0.21371  0.11615  0.89949  1.0000
  S   S6        1.0  0.71371  0.21666  0.11615  1.0000
  O   O1        1.0  0.35922  0.30571  0.37004  1.0000
  O   O2        1.0  0.85922  0.93566  0.30571  1.0000
  O   O3        1.0  0.35922  0.62995  0.93566  1.0000
  O   O4        1.0  0.85922  0.69429  0.62996  1.0000
  O   O5        1.0  0.35922  0.06434  0.69429  1.0000
  O   O6        1.0  0.85922  0.37005  0.06434  1.0000
  O   O7        1.0  0.69012  0.56812  0.58179  1.0000
  O   O8        1.0  0.19013  0.98633  0.56812  1.0000
  O   O9        1.0  0.69013  0.41821  0.98633  1.0000
  O   O10       1.0  0.19013  0.43188  0.41821  1.0000
  O   O11       1.0  0.69013  0.01367  0.43189  1.0000
  O   O12       1.0  0.19013  0.58179  0.01367  1.0000
