data_image0
_chemical_formula_structural       Cu4H32C24N8Cl4
_chemical_formula_sum              "Cu4 H32 C24 N8 Cl4"
_cell_length_a       6.56387
_cell_length_b       11.1261
_cell_length_c       11.321
_cell_angle_alpha    70.5841
_cell_angle_beta     72.9749
_cell_angle_gamma    72.8268

_space_group_name_H-M_alt    "P 1"
_space_group_IT_number       1

loop_
  _space_group_symop_operation_xyz
  'x, y, z'

loop_
  _atom_site_type_symbol
  _atom_site_label
  _atom_site_symmetry_multiplicity
  _atom_site_fract_x
  _atom_site_fract_y
  _atom_site_fract_z
  _atom_site_occupancy
  Cu  Cu1       1.0  0.92732  0.41800  0.92136  1.0000
  Cu  Cu2       1.0  0.26657  0.08240  0.57868  1.0000
  Cu  Cu3       1.0  0.07267  0.58200  0.07865  1.0000
  Cu  Cu4       1.0  0.73346  0.91759  0.42131  1.0000
  H   H1        1.0  0.47952  0.78985  0.65040  1.0000
  H   H2        1.0  0.91812  0.71068  0.85107  1.0000
  H   H3        1.0  0.52048  0.21015  0.34958  1.0000
  H   H4        1.0  0.08184  0.28933  0.14893  1.0000
  H   H5        1.0  0.54663  0.59852  0.84299  1.0000
  H   H6        1.0  0.98536  0.90274  0.65874  1.0000
  H   H7        1.0  0.45337  0.40150  0.15701  1.0000
  H   H8        1.0  0.01461  0.09727  0.34126  1.0000
  H   H9        1.0  0.21779  0.36137  0.71595  1.0000
  H   H10       1.0  0.29894  0.13801  0.78323  1.0000
  H   H11       1.0  0.78221  0.63861  0.28406  1.0000
  H   H12       1.0  0.70111  0.86197  0.21674  1.0000
  H   H13       1.0  0.36076  0.48757  0.66474  1.0000
  H   H14       1.0  0.51485  0.01115  0.83570  1.0000
  H   H15       1.0  0.63925  0.51242  0.33528  1.0000
  H   H16       1.0  0.48515  0.98883  0.16432  1.0000
  H   H17       1.0  0.30505  0.43394  0.54797  1.0000
  H   H18       1.0  0.28736  0.06615  0.95148  1.0000
  H   H19       1.0  0.69498  0.56605  0.45204  1.0000
  H   H20       1.0  0.71261  0.93388  0.04851  1.0000
  H   H21       1.0  0.10365  0.77233  0.35325  1.0000
  H   H22       1.0  0.23273  0.72649  0.14564  1.0000
  H   H23       1.0  0.89638  0.22767  0.64676  1.0000
  H   H24       1.0  0.76722  0.27353  0.85436  1.0000
  H   H25       1.0  0.22865  0.60181  0.38170  1.0000
  H   H26       1.0  0.21172  0.89735  0.11825  1.0000
  H   H27       1.0  0.77137  0.39819  0.61830  1.0000
  H   H28       1.0  0.78829  0.10267  0.88173  1.0000
  H   H29       1.0  0.30551  0.70365  0.44588  1.0000
  H   H30       1.0  0.45657  0.79766  0.05244  1.0000
  H   H31       1.0  0.69452  0.29633  0.55413  1.0000
  H   H32       1.0  0.54342  0.20233  0.94756  1.0000
  C   C1        1.0  0.02707  0.55035  0.64673  1.0000
  C   C2        1.0  0.22475  0.94971  0.85322  1.0000
  C   C3        1.0  0.97293  0.44966  0.35327  1.0000
  C   C4        1.0  0.77523  0.05030  0.14677  1.0000
  C   C5        1.0  0.99120  0.65967  0.54143  1.0000
  C   C6        1.0  0.19316  0.84006  0.95842  1.0000
  C   C7        1.0  0.00884  0.34032  0.45857  1.0000
  C   C8        1.0  0.80683  0.15994  0.04158  1.0000
  C   C9        1.0  0.63716  0.72161  0.65188  1.0000
  C   C10       1.0  0.00940  0.77890  0.84919  1.0000
  C   C11       1.0  0.36286  0.27839  0.34811  1.0000
  C   C12       1.0  0.99058  0.22111  0.15080  1.0000
  C   C13       1.0  0.67361  0.61697  0.75641  1.0000
  C   C14       1.0  0.04523  0.88393  0.74478  1.0000
  C   C15       1.0  0.32639  0.38304  0.24358  1.0000
  C   C16       1.0  0.95474  0.11608  0.25522  1.0000
  C   C17       1.0  0.23934  0.45299  0.64246  1.0000
  C   C18       1.0  0.33655  0.04664  0.85720  1.0000
  C   C19       1.0  0.76065  0.54701  0.35755  1.0000
  C   C20       1.0  0.66346  0.95336  0.14279  1.0000
  C   C21       1.0  0.16709  0.68484  0.42408  1.0000
  C   C22       1.0  0.27750  0.81484  0.07517  1.0000
  C   C23       1.0  0.83293  0.31514  0.57593  1.0000
  C   C24       1.0  0.72248  0.18517  0.92483  1.0000
  N   N1        1.0  0.87042  0.53147  0.75631  1.0000
  N   N2        1.0  0.15751  0.96920  0.74425  1.0000
  N   N3        1.0  0.12959  0.46853  0.24370  1.0000
  N   N4        1.0  0.84249  0.03080  0.25575  1.0000
  N   N5        1.0  0.79595  0.74621  0.54498  1.0000
  N   N6        1.0  0.08722  0.75366  0.95546  1.0000
  N   N7        1.0  0.20406  0.25378  0.45502  1.0000
  N   N8        1.0  0.91275  0.24635  0.04454  1.0000
  Cl  Cl1       1.0  0.27690  0.44258  0.93869  1.0000
  Cl  Cl2       1.0  0.65863  0.05766  0.56029  1.0000
  Cl  Cl3       1.0  0.72308  0.55743  0.06132  1.0000
  Cl  Cl4       1.0  0.34139  0.94233  0.43970  1.0000
