data_image0
_chemical_formula_structural       Cu8H64C48N16Cl8
_chemical_formula_sum              "Cu8 H64 C48 N16 Cl8"
_cell_length_a       9.17636
_cell_length_b       11.442
_cell_length_c       13.0662
_cell_angle_alpha    89.9999
_cell_angle_beta     89.9998
_cell_angle_gamma    89.9998

_space_group_name_H-M_alt    "P 1"
_space_group_IT_number       1

loop_
  _space_group_symop_operation_xyz
  'x, y, z'

loop_
  _atom_site_type_symbol
  _atom_site_label
  _atom_site_symmetry_multiplicity
  _atom_site_fract_x
  _atom_site_fract_y
  _atom_site_fract_z
  _atom_site_occupancy
  Cu  Cu1       1.0  0.41862  0.53121  0.38815  1.0000
  Cu  Cu2       1.0  0.58138  0.96879  0.88815  1.0000
  Cu  Cu3       1.0  0.91862  0.46879  0.11185  1.0000
  Cu  Cu4       1.0  0.08138  0.03121  0.61185  1.0000
  Cu  Cu5       1.0  0.58139  0.46879  0.61185  1.0000
  Cu  Cu6       1.0  0.41862  0.03121  0.11185  1.0000
  Cu  Cu7       1.0  0.08138  0.53121  0.88815  1.0000
  Cu  Cu8       1.0  0.91861  0.96879  0.38815  1.0000
  H   H1        1.0  0.25503  0.11895  0.29573  1.0000
  H   H2        1.0  0.74497  0.38105  0.79573  1.0000
  H   H3        1.0  0.75503  0.88105  0.20427  1.0000
  H   H4        1.0  0.24497  0.61895  0.70426  1.0000
  H   H5        1.0  0.74497  0.88105  0.70427  1.0000
  H   H6        1.0  0.25503  0.61895  0.20426  1.0000
  H   H7        1.0  0.24497  0.11895  0.79574  1.0000
  H   H8        1.0  0.75503  0.38105  0.29574  1.0000
  H   H9        1.0  0.25946  0.30339  0.39788  1.0000
  H   H10       1.0  0.74054  0.19661  0.89788  1.0000
  H   H11       1.0  0.75946  0.69661  0.10212  1.0000
  H   H12       1.0  0.24054  0.80339  0.60212  1.0000
  H   H13       1.0  0.74054  0.69661  0.60212  1.0000
  H   H14       1.0  0.25946  0.80339  0.10212  1.0000
  H   H15       1.0  0.24054  0.30339  0.89788  1.0000
  H   H16       1.0  0.75946  0.19661  0.39788  1.0000
  H   H17       1.0  0.47853  0.54026  0.11817  1.0000
  H   H18       1.0  0.52147  0.95974  0.61817  1.0000
  H   H19       1.0  0.97853  0.45974  0.38183  1.0000
  H   H20       1.0  0.02147  0.04026  0.88183  1.0000
  H   H21       1.0  0.52147  0.45974  0.88183  1.0000
  H   H22       1.0  0.47853  0.04026  0.38183  1.0000
  H   H23       1.0  0.02147  0.54026  0.61817  1.0000
  H   H24       1.0  0.97853  0.95974  0.11817  1.0000
  H   H25       1.0  0.64520  0.46289  0.12468  1.0000
  H   H26       1.0  0.35480  0.03711  0.62468  1.0000
  H   H27       1.0  0.14520  0.53711  0.37532  1.0000
  H   H28       1.0  0.85480  0.96289  0.87532  1.0000
  H   H29       1.0  0.35480  0.53711  0.87532  1.0000
  H   H30       1.0  0.64519  0.96289  0.37532  1.0000
  H   H31       1.0  0.85480  0.46289  0.62468  1.0000
  H   H32       1.0  0.14520  0.03711  0.12468  1.0000
  H   H33       1.0  0.58096  0.54191  0.23406  1.0000
  H   H34       1.0  0.41904  0.95809  0.73406  1.0000
  H   H35       1.0  0.08096  0.45809  0.26594  1.0000
  H   H36       1.0  0.91904  0.04191  0.76594  1.0000
  H   H37       1.0  0.41904  0.45809  0.76594  1.0000
  H   H38       1.0  0.58096  0.04191  0.26594  1.0000
  H   H39       1.0  0.91904  0.54191  0.73406  1.0000
  H   H40       1.0  0.08096  0.95809  0.23406  1.0000
  H   H41       1.0  0.48249  0.20471  0.99623  1.0000
  H   H42       1.0  0.51751  0.29529  0.49623  1.0000
  H   H43       1.0  0.98249  0.79529  0.50377  1.0000
  H   H44       1.0  0.01751  0.70471  0.00377  1.0000
  H   H45       1.0  0.51752  0.79529  0.00377  1.0000
  H   H46       1.0  0.48249  0.70471  0.50377  1.0000
  H   H47       1.0  0.01751  0.20471  0.49623  1.0000
  H   H48       1.0  0.98249  0.29529  0.99623  1.0000
  H   H49       1.0  0.63666  0.28424  0.04088  1.0000
  H   H50       1.0  0.36334  0.21576  0.54089  1.0000
  H   H51       1.0  0.13666  0.71576  0.45911  1.0000
  H   H52       1.0  0.86334  0.78424  0.95912  1.0000
  H   H53       1.0  0.36334  0.71576  0.95912  1.0000
  H   H54       1.0  0.63666  0.78424  0.45911  1.0000
  H   H55       1.0  0.86334  0.28424  0.54088  1.0000
  H   H56       1.0  0.13666  0.21576  0.04089  1.0000
  H   H57       1.0  0.48230  0.36156  0.99635  1.0000
  H   H58       1.0  0.51770  0.13844  0.49636  1.0000
  H   H59       1.0  0.98230  0.63844  0.50364  1.0000
  H   H60       1.0  0.01770  0.86156  0.00365  1.0000
  H   H61       1.0  0.51770  0.63844  0.00364  1.0000
  H   H62       1.0  0.48230  0.86156  0.50364  1.0000
  H   H63       1.0  0.01770  0.36156  0.49635  1.0000
  H   H64       1.0  0.98230  0.13844  0.99636  1.0000
  C   C1        1.0  0.46363  0.38443  0.20444  1.0000
  C   C2        1.0  0.53638  0.11557  0.70443  1.0000
  C   C3        1.0  0.96363  0.61557  0.29557  1.0000
  C   C4        1.0  0.03637  0.88443  0.79557  1.0000
  C   C5        1.0  0.53638  0.61557  0.79556  1.0000
  C   C6        1.0  0.46362  0.88443  0.29557  1.0000
  C   C7        1.0  0.03637  0.38443  0.70444  1.0000
  C   C8        1.0  0.96363  0.11557  0.20444  1.0000
  C   C9        1.0  0.45237  0.28397  0.14238  1.0000
  C   C10       1.0  0.54763  0.21603  0.64238  1.0000
  C   C11       1.0  0.95237  0.71603  0.35762  1.0000
  C   C12       1.0  0.04763  0.78397  0.85762  1.0000
  C   C13       1.0  0.54763  0.71603  0.85762  1.0000
  C   C14       1.0  0.45237  0.78397  0.35762  1.0000
  C   C15       1.0  0.04763  0.28397  0.64238  1.0000
  C   C16       1.0  0.95237  0.21603  0.14238  1.0000
  C   C17       1.0  0.31201  0.19589  0.26715  1.0000
  C   C18       1.0  0.68798  0.30411  0.76715  1.0000
  C   C19       1.0  0.81202  0.80411  0.23285  1.0000
  C   C20       1.0  0.18798  0.69588  0.73285  1.0000
  C   C21       1.0  0.68799  0.80411  0.73285  1.0000
  C   C22       1.0  0.31202  0.69589  0.23285  1.0000
  C   C23       1.0  0.18798  0.19589  0.76715  1.0000
  C   C24       1.0  0.81201  0.30411  0.26715  1.0000
  C   C25       1.0  0.31657  0.29682  0.32502  1.0000
  C   C26       1.0  0.68343  0.20318  0.82502  1.0000
  C   C27       1.0  0.81657  0.70318  0.17498  1.0000
  C   C28       1.0  0.18343  0.79682  0.67498  1.0000
  C   C29       1.0  0.68343  0.70318  0.67498  1.0000
  C   C30       1.0  0.31657  0.79682  0.17498  1.0000
  C   C31       1.0  0.18343  0.29682  0.82502  1.0000
  C   C32       1.0  0.81657  0.20318  0.32502  1.0000
  C   C33       1.0  0.54812  0.48766  0.16885  1.0000
  C   C34       1.0  0.45188  0.01234  0.66884  1.0000
  C   C35       1.0  0.04812  0.51234  0.33116  1.0000
  C   C36       1.0  0.95188  0.98766  0.83116  1.0000
  C   C37       1.0  0.45188  0.51234  0.83115  1.0000
  C   C38       1.0  0.54812  0.98766  0.33115  1.0000
  C   C39       1.0  0.95188  0.48766  0.66884  1.0000
  C   C40       1.0  0.04812  0.01234  0.16885  1.0000
  C   C41       1.0  0.51694  0.28307  0.03797  1.0000
  C   C42       1.0  0.48306  0.21693  0.53797  1.0000
  C   C43       1.0  0.01694  0.71693  0.46203  1.0000
  C   C44       1.0  0.98306  0.78307  0.96203  1.0000
  C   C45       1.0  0.48306  0.71693  0.96203  1.0000
  C   C46       1.0  0.51694  0.78307  0.46203  1.0000
  C   C47       1.0  0.98306  0.28307  0.53797  1.0000
  C   C48       1.0  0.01694  0.21693  0.03797  1.0000
  N   N1        1.0  0.39622  0.39080  0.29628  1.0000
  N   N2        1.0  0.60378  0.10919  0.79628  1.0000
  N   N3        1.0  0.89622  0.60919  0.20372  1.0000
  N   N4        1.0  0.10378  0.89080  0.70372  1.0000
  N   N5        1.0  0.60378  0.60920  0.70372  1.0000
  N   N6        1.0  0.39622  0.89080  0.20372  1.0000
  N   N7        1.0  0.10378  0.39080  0.79628  1.0000
  N   N8        1.0  0.89622  0.10920  0.29628  1.0000
  N   N9        1.0  0.38204  0.18713  0.17586  1.0000
  N   N10       1.0  0.61796  0.31287  0.67586  1.0000
  N   N11       1.0  0.88204  0.81286  0.32414  1.0000
  N   N12       1.0  0.11796  0.68713  0.82414  1.0000
  N   N13       1.0  0.61796  0.81287  0.82414  1.0000
  N   N14       1.0  0.38204  0.68713  0.32414  1.0000
  N   N15       1.0  0.11796  0.18713  0.67586  1.0000
  N   N16       1.0  0.88204  0.31287  0.17586  1.0000
  Cl  Cl1       1.0  0.32502  0.48583  0.55106  1.0000
  Cl  Cl2       1.0  0.67498  0.01417  0.05106  1.0000
  Cl  Cl3       1.0  0.82502  0.51417  0.94894  1.0000
  Cl  Cl4       1.0  0.17498  0.98583  0.44894  1.0000
  Cl  Cl5       1.0  0.67498  0.51417  0.44894  1.0000
  Cl  Cl6       1.0  0.32502  0.98583  0.94894  1.0000
  Cl  Cl7       1.0  0.17498  0.48583  0.05106  1.0000
  Cl  Cl8       1.0  0.82502  0.01417  0.55106  1.0000
