data_image0
_chemical_formula_structural       Cu4H16C8O24
_chemical_formula_sum              "Cu4 H16 C8 O24"
_cell_length_a       4.90633
_cell_length_b       9.66233
_cell_length_c       9.75954
_cell_angle_alpha    90.0001
_cell_angle_beta     89.9996
_cell_angle_gamma    89.9984

_space_group_name_H-M_alt    "P 1"
_space_group_IT_number       1

loop_
  _space_group_symop_operation_xyz
  'x, y, z'

loop_
  _atom_site_type_symbol
  _atom_site_label
  _atom_site_symmetry_multiplicity
  _atom_site_fract_x
  _atom_site_fract_y
  _atom_site_fract_z
  _atom_site_occupancy
  Cu  Cu1       1.0  0.49999  0.74998  0.87635  1.0000
  Cu  Cu2       1.0  0.49999  0.25002  0.62365  1.0000
  Cu  Cu3       1.0  0.50000  0.24999  0.12362  1.0000
  Cu  Cu4       1.0  0.50000  0.75001  0.37638  1.0000
  H   H1        1.0  0.07160  0.87551  0.76536  1.0000
  H   H2        1.0  0.92840  0.62446  0.76531  1.0000
  H   H3        1.0  0.07165  0.12448  0.73465  1.0000
  H   H4        1.0  0.92835  0.37553  0.73468  1.0000
  H   H5        1.0  0.92837  0.12444  0.23465  1.0000
  H   H6        1.0  0.07169  0.37555  0.23461  1.0000
  H   H7        1.0  0.92832  0.87556  0.26533  1.0000
  H   H8        1.0  0.07166  0.62446  0.26539  1.0000
  H   H9        1.0  0.20942  0.77857  0.65140  1.0000
  H   H10       1.0  0.79059  0.72141  0.65137  1.0000
  H   H11       1.0  0.20943  0.22142  0.84860  1.0000
  H   H12       1.0  0.79056  0.27858  0.84863  1.0000
  H   H13       1.0  0.79063  0.22139  0.34861  1.0000
  H   H14       1.0  0.20943  0.27861  0.34858  1.0000
  H   H15       1.0  0.79059  0.77859  0.15139  1.0000
  H   H16       1.0  0.20940  0.72142  0.15141  1.0000
  C   C1        1.0  0.63068  0.01864  0.95877  1.0000
  C   C2        1.0  0.36928  0.48135  0.95876  1.0000
  C   C3        1.0  0.63071  0.98136  0.54124  1.0000
  C   C4        1.0  0.36929  0.51865  0.54124  1.0000
  C   C5        1.0  0.36925  0.98135  0.04122  1.0000
  C   C6        1.0  0.63074  0.51865  0.04120  1.0000
  C   C7        1.0  0.36922  0.01867  0.45878  1.0000
  C   C8        1.0  0.63079  0.48134  0.45879  1.0000
  O   O1        1.0  0.73472  0.92541  0.88441  1.0000
  O   O2        1.0  0.26525  0.57459  0.88439  1.0000
  O   O3        1.0  0.73473  0.07459  0.61559  1.0000
  O   O4        1.0  0.26526  0.42543  0.61560  1.0000
  O   O5        1.0  0.26521  0.07458  0.11559  1.0000
  O   O6        1.0  0.73479  0.42543  0.11555  1.0000
  O   O7        1.0  0.26523  0.92545  0.38444  1.0000
  O   O8        1.0  0.73477  0.57457  0.38444  1.0000
  O   O9        1.0  0.27604  0.85976  0.02723  1.0000
  O   O10       1.0  0.72394  0.64022  0.02720  1.0000
  O   O11       1.0  0.27606  0.14025  0.47278  1.0000
  O   O12       1.0  0.72396  0.35977  0.47280  1.0000
  O   O13       1.0  0.72390  0.14022  0.97277  1.0000
  O   O14       1.0  0.27606  0.35978  0.97274  1.0000
  O   O15       1.0  0.72390  0.85980  0.52723  1.0000
  O   O16       1.0  0.27609  0.64023  0.52724  1.0000
  O   O17       1.0  0.24594  0.84426  0.72661  1.0000
  O   O18       1.0  0.75408  0.65572  0.72657  1.0000
  O   O19       1.0  0.24595  0.15572  0.77341  1.0000
  O   O20       1.0  0.75405  0.34427  0.77343  1.0000
  O   O21       1.0  0.75408  0.15572  0.27339  1.0000
  O   O22       1.0  0.24599  0.34428  0.27335  1.0000
  O   O23       1.0  0.75402  0.84427  0.22661  1.0000
  O   O24       1.0  0.24597  0.65572  0.22664  1.0000
