data_image0
_chemical_formula_structural       Co2H40C54Br8N8O8
_chemical_formula_sum              "Co2 H40 C54 Br8 N8 O8"
_cell_length_a       11.0054
_cell_length_b       11.0634
_cell_length_c       12.4398
_cell_angle_alpha    76.7038
_cell_angle_beta     79.7364
_cell_angle_gamma    88.267

_space_group_name_H-M_alt    "P 1"
_space_group_IT_number       1

loop_
  _space_group_symop_operation_xyz
  'x, y, z'

loop_
  _atom_site_type_symbol
  _atom_site_label
  _atom_site_symmetry_multiplicity
  _atom_site_fract_x
  _atom_site_fract_y
  _atom_site_fract_z
  _atom_site_occupancy
  Co  Co1       1.0  0.72363  0.27317  0.27731  1.0000
  Co  Co2       1.0  0.27637  0.72683  0.72269  1.0000
  H   H1        1.0  0.48854  0.28619  0.47278  1.0000
  H   H2        1.0  0.51147  0.71381  0.52722  1.0000
  H   H3        1.0  0.50994  0.47248  0.36859  1.0000
  H   H4        1.0  0.49006  0.52752  0.63141  1.0000
  H   H5        1.0  0.65555  0.26872  0.04916  1.0000
  H   H6        1.0  0.34445  0.73127  0.95084  1.0000
  H   H7        1.0  0.83880  0.00836  0.37213  1.0000
  H   H8        1.0  0.16120  0.99164  0.62787  1.0000
  H   H9        1.0  0.55783  0.88943  0.74928  1.0000
  H   H10       1.0  0.44217  0.11057  0.25072  1.0000
  H   H11       1.0  0.51937  0.33996  0.89691  1.0000
  H   H12       1.0  0.48063  0.66004  0.10309  1.0000
  H   H13       1.0  0.36906  0.39312  0.93769  1.0000
  H   H14       1.0  0.63094  0.60688  0.06231  1.0000
  H   H15       1.0  0.86946  0.81176  0.51044  1.0000
  H   H16       1.0  0.13054  0.18824  0.48956  1.0000
  H   H17       1.0  0.36589  0.03789  0.71178  1.0000
  H   H18       1.0  0.63411  0.96211  0.28822  1.0000
  H   H19       1.0  0.35083  0.19682  0.64981  1.0000
  H   H20       1.0  0.64917  0.80319  0.35019  1.0000
  H   H21       1.0  0.30124  0.56796  0.38628  1.0000
  H   H22       1.0  0.69876  0.43205  0.61372  1.0000
  H   H23       1.0  0.29815  0.08007  0.89810  1.0000
  H   H24       1.0  0.70185  0.91993  0.10190  1.0000
  H   H25       1.0  0.28605  0.24099  0.84469  1.0000
  H   H26       1.0  0.71395  0.75901  0.15531  1.0000
  H   H27       1.0  0.73153  0.75255  0.69348  1.0000
  H   H28       1.0  0.26847  0.24745  0.30652  1.0000
  H   H29       1.0  0.23257  0.46559  0.08650  1.0000
  H   H30       1.0  0.76743  0.53441  0.91350  1.0000
  H   H31       1.0  0.50988  0.25179  0.75308  1.0000
  H   H32       1.0  0.49012  0.74821  0.24692  1.0000
  H   H33       1.0  0.52586  0.09278  0.81556  1.0000
  H   H34       1.0  0.47414  0.90722  0.18444  1.0000
  H   H35       1.0  0.30484  0.17904  0.05079  1.0000
  H   H36       1.0  0.69516  0.82096  0.94921  1.0000
  H   H37       1.0  0.45506  0.12450  0.01198  1.0000
  H   H38       1.0  0.54494  0.87550  0.98802  1.0000
  H   H39       1.0  0.16652  0.56633  0.24522  1.0000
  H   H40       1.0  0.83348  0.43367  0.75477  1.0000
  C   C1        1.0  0.96380  0.96595  0.90874  1.0000
  C   C2        1.0  0.03620  0.03405  0.09126  1.0000
  C   C3        1.0  0.89780  0.05552  0.95803  1.0000
  C   C4        1.0  0.10220  0.94448  0.04197  1.0000
  C   C5        1.0  0.05053  0.61956  0.46525  1.0000
  C   C6        1.0  0.94947  0.38043  0.53475  1.0000
  C   C7        1.0  0.93291  0.09027  0.04962  1.0000
  C   C8        1.0  0.06709  0.90973  0.95038  1.0000
  C   C9        1.0  0.91305  0.46289  0.44257  1.0000
  C   C10       1.0  0.08695  0.53711  0.55743  1.0000
  C   C11       1.0  0.86284  0.18810  0.10300  1.0000
  C   C12       1.0  0.13716  0.81190  0.89699  1.0000
  C   C13       1.0  0.96432  0.58272  0.40825  1.0000
  C   C14       1.0  0.03567  0.41728  0.59175  1.0000
  C   C15       1.0  0.68013  0.05825  0.48373  1.0000
  C   C16       1.0  0.31987  0.94175  0.51627  1.0000
  C   C17       1.0  0.48510  0.40892  0.22164  1.0000
  C   C18       1.0  0.51490  0.59107  0.77835  1.0000
  C   C19       1.0  0.81701  0.42220  0.38428  1.0000
  C   C20       1.0  0.18299  0.57780  0.61572  1.0000
  C   C21       1.0  0.60237  0.02475  0.59015  1.0000
  C   C22       1.0  0.39763  0.97525  0.40985  1.0000
  C   C23       1.0  0.54287  0.20331  0.49295  1.0000
  C   C24       1.0  0.45713  0.79669  0.50705  1.0000
  C   C25       1.0  0.44806  0.46764  0.31023  1.0000
  C   C26       1.0  0.55194  0.53236  0.68977  1.0000
  C   C27       1.0  0.58458  0.31542  0.09656  1.0000
  C   C28       1.0  0.41542  0.68458  0.90344  1.0000
  C   C29       1.0  0.77833  0.98250  0.45346  1.0000
  C   C30       1.0  0.22167  0.01750  0.54654  1.0000
  C   C31       1.0  0.40805  0.40870  0.14154  1.0000
  C   C32       1.0  0.59195  0.59130  0.85846  1.0000
  C   C33       1.0  0.61843  0.91520  0.66806  1.0000
  C   C34       1.0  0.38158  0.08481  0.33194  1.0000
  C   C35       1.0  0.43779  0.32364  0.96374  1.0000
  C   C36       1.0  0.56221  0.67636  0.03626  1.0000
  C   C37       1.0  0.79402  0.87304  0.53117  1.0000
  C   C38       1.0  0.20599  0.12696  0.46883  1.0000
  C   C39       1.0  0.41568  0.12750  0.68437  1.0000
  C   C40       1.0  0.58432  0.87250  0.31563  1.0000
  C   C41       1.0  0.33238  0.52297  0.31712  1.0000
  C   C42       1.0  0.66763  0.47703  0.68288  1.0000
  C   C43       1.0  0.34996  0.16828  0.87646  1.0000
  C   C44       1.0  0.65005  0.83172  0.12354  1.0000
  C   C45       1.0  0.71548  0.83962  0.63624  1.0000
  C   C46       1.0  0.28452  0.16038  0.36376  1.0000
  C   C47       1.0  0.29226  0.46462  0.14787  1.0000
  C   C48       1.0  0.70774  0.53538  0.85213  1.0000
  C   C49       1.0  0.45970  0.16241  0.78310  1.0000
  C   C50       1.0  0.54030  0.83759  0.21690  1.0000
  C   C51       1.0  0.38573  0.19248  0.98304  1.0000
  C   C52       1.0  0.61427  0.80752  0.01696  1.0000
  C   C53       1.0  0.25597  0.52131  0.23759  1.0000
  C   C54       1.0  0.74403  0.47869  0.76241  1.0000
  Br  Br1       1.0  0.12218  0.78093  0.41753  1.0000
  Br  Br2       1.0  0.87782  0.21906  0.58247  1.0000
  Br  Br3       1.0  0.91393  0.91542  0.78704  1.0000
  Br  Br4       1.0  0.08607  0.08458  0.21296  1.0000
  Br  Br5       1.0  0.75726  0.13103  0.90147  1.0000
  Br  Br6       1.0  0.24274  0.86897  0.09853  1.0000
  Br  Br7       1.0  0.91789  0.69239  0.28080  1.0000
  Br  Br8       1.0  0.08210  0.30761  0.71921  1.0000
  N   N1        1.0  0.47500  0.34872  0.06349  1.0000
  N   N2        1.0  0.52499  0.65128  0.93652  1.0000
  N   N3        1.0  0.59450  0.34829  0.19130  1.0000
  N   N4        1.0  0.40550  0.65170  0.80870  1.0000
  N   N5        1.0  0.63976  0.17093  0.42500  1.0000
  N   N6        1.0  0.36024  0.82906  0.57500  1.0000
  N   N7        1.0  0.51625  0.11926  0.59251  1.0000
  N   N8        1.0  0.48375  0.88074  0.40749  1.0000
  O   O1        1.0  0.79010  0.14274  0.19744  1.0000
  O   O2        1.0  0.20989  0.85726  0.80256  1.0000
  O   O3        1.0  0.87812  0.29946  0.05599  1.0000
  O   O4        1.0  0.12188  0.70054  0.94401  1.0000
  O   O5        1.0  0.85916  0.35771  0.31185  1.0000
  O   O6        1.0  0.14084  0.64229  0.68816  1.0000
  O   O7        1.0  0.70657  0.44935  0.41100  1.0000
  O   O8        1.0  0.29343  0.55066  0.58900  1.0000
