data_image0
_chemical_formula_structural       Cu4H32C56I4N4
_chemical_formula_sum              "Cu4 H32 C56 I4 N4"
_cell_length_a       4.0611
_cell_length_b       16.3789
_cell_length_c       18.814
_cell_angle_alpha    113.247
_cell_angle_beta     89.9243
_cell_angle_gamma    97.1539

_space_group_name_H-M_alt    "P 1"
_space_group_IT_number       1

loop_
  _space_group_symop_operation_xyz
  'x, y, z'

loop_
  _atom_site_type_symbol
  _atom_site_label
  _atom_site_symmetry_multiplicity
  _atom_site_fract_x
  _atom_site_fract_y
  _atom_site_fract_z
  _atom_site_occupancy
  Cu  Cu1       1.0  0.47074  0.50424  0.20612  1.0000
  Cu  Cu2       1.0  0.96616  0.49616  0.29430  1.0000
  Cu  Cu3       1.0  0.52924  0.49577  0.79388  1.0000
  Cu  Cu4       1.0  0.03382  0.50384  0.70570  1.0000
  H   H1        1.0  0.73727  0.52170  0.06294  1.0000
  H   H2        1.0  0.21595  0.47838  0.43703  1.0000
  H   H3        1.0  0.26275  0.47831  0.93707  1.0000
  H   H4        1.0  0.78402  0.52161  0.56297  1.0000
  H   H5        1.0  0.23063  0.67756  0.24801  1.0000
  H   H6        1.0  0.55404  0.32253  0.25213  1.0000
  H   H7        1.0  0.76935  0.32245  0.75199  1.0000
  H   H8        1.0  0.44593  0.67746  0.74786  1.0000
  H   H9        1.0  0.74716  0.63146  0.00066  1.0000
  H   H10       1.0  0.11564  0.36862  0.49926  1.0000
  H   H11       1.0  0.25290  0.36856  0.99935  1.0000
  H   H12       1.0  0.88432  0.63137  0.50074  1.0000
  H   H13       1.0  0.23385  0.79628  0.19679  1.0000
  H   H14       1.0  0.43713  0.20401  0.30356  1.0000
  H   H15       1.0  0.76619  0.20374  0.80321  1.0000
  H   H16       1.0  0.56283  0.79598  0.69644  1.0000
  H   H17       1.0  0.77816  0.78885  0.91936  1.0000
  H   H18       1.0  0.98759  0.21138  0.58065  1.0000
  H   H19       1.0  0.22185  0.21116  0.08063  1.0000
  H   H20       1.0  0.01242  0.78862  0.41936  1.0000
  H   H21       1.0  0.78691  0.04730  0.84208  1.0000
  H   H22       1.0  0.74032  0.95264  0.65770  1.0000
  H   H23       1.0  0.21311  0.95271  0.15792  1.0000
  H   H24       1.0  0.25967  0.04735  0.34230  1.0000
  H   H25       1.0  0.04015  0.91297  0.75980  1.0000
  H   H26       1.0  0.12711  0.08711  0.73989  1.0000
  H   H27       1.0  0.95984  0.08704  0.24019  1.0000
  H   H28       1.0  0.87288  0.91288  0.26011  1.0000
  H   H29       1.0  0.03081  0.78333  0.79909  1.0000
  H   H30       1.0  0.24631  0.21686  0.70070  1.0000
  H   H31       1.0  0.96918  0.21667  0.20090  1.0000
  H   H32       1.0  0.75369  0.78313  0.29930  1.0000
  C   C1        1.0  0.62365  0.58305  0.08977  1.0000
  C   C2        1.0  0.04082  0.41706  0.41027  1.0000
  C   C3        1.0  0.37637  0.41696  0.91023  1.0000
  C   C4        1.0  0.95914  0.58293  0.58974  1.0000
  C   C5        1.0  0.34432  0.67040  0.19362  1.0000
  C   C6        1.0  0.67436  0.32976  0.30653  1.0000
  C   C7        1.0  0.65569  0.32961  0.80638  1.0000
  C   C8        1.0  0.32560  0.67023  0.69347  1.0000
  C   C9        1.0  0.63063  0.64435  0.05563  1.0000
  C   C10       1.0  0.98601  0.35578  0.44440  1.0000
  C   C11       1.0  0.36941  0.35566  0.94438  1.0000
  C   C12       1.0  0.01394  0.64421  0.55560  1.0000
  C   C13       1.0  0.64078  0.99622  0.92904  1.0000
  C   C14       1.0  0.64474  0.00379  0.57089  1.0000
  C   C15       1.0  0.35926  0.00379  0.07096  1.0000
  C   C16       1.0  0.35526  0.99620  0.42911  1.0000
  C   C17       1.0  0.63895  0.92196  0.95149  1.0000
  C   C18       1.0  0.71614  0.07815  0.54853  1.0000
  C   C19       1.0  0.36108  0.07805  0.04851  1.0000
  C   C20       1.0  0.28386  0.92184  0.45147  1.0000
  C   C21       1.0  0.49284  0.72453  0.09398  1.0000
  C   C22       1.0  0.76703  0.27574  0.40630  1.0000
  C   C23       1.0  0.50722  0.27548  0.90602  1.0000
  C   C24       1.0  0.23293  0.72425  0.59369  1.0000
  C   C25       1.0  0.49976  0.85400  0.04443  1.0000
  C   C26       1.0  0.64358  0.14630  0.45589  1.0000
  C   C27       1.0  0.50030  0.14601  0.95557  1.0000
  C   C28       1.0  0.35640  0.85369  0.54411  1.0000
  C   C29       1.0  0.34542  0.73606  0.16474  1.0000
  C   C30       1.0  0.60904  0.26421  0.33554  1.0000
  C   C31       1.0  0.65462  0.26396  0.83527  1.0000
  C   C32       1.0  0.39093  0.73578  0.66446  1.0000
  C   C33       1.0  0.49901  0.92629  0.02221  1.0000
  C   C34       1.0  0.57146  0.07387  0.47795  1.0000
  C   C35       1.0  0.50104  0.07372  0.97779  1.0000
  C   C36       1.0  0.42853  0.92612  0.52205  1.0000
  C   C37       1.0  0.77914  0.84527  0.90234  1.0000
  C   C38       1.0  0.93245  0.15493  0.59765  1.0000
  C   C39       1.0  0.22087  0.15474  0.09765  1.0000
  C   C40       1.0  0.06755  0.84507  0.40235  1.0000
  C   C41       1.0  0.78421  0.99036  0.85843  1.0000
  C   C42       1.0  0.79400  0.00963  0.64138  1.0000
  C   C43       1.0  0.21582  0.00965  0.14156  1.0000
  C   C44       1.0  0.20600  0.99036  0.35862  1.0000
  C   C45       1.0  0.50019  0.79186  0.06503  1.0000
  C   C46       1.0  0.70560  0.20863  0.43547  1.0000
  C   C47       1.0  0.49989  0.20816  0.93498  1.0000
  C   C48       1.0  0.29436  0.79136  0.56452  1.0000
  C   C49       1.0  0.92263  0.91557  0.81276  1.0000
  C   C50       1.0  0.00669  0.08453  0.68705  1.0000
  C   C51       1.0  0.07738  0.08443  0.18723  1.0000
  C   C52       1.0  0.99330  0.91547  0.31296  1.0000
  C   C53       1.0  0.91905  0.84222  0.83497  1.0000
  C   C54       1.0  0.07581  0.15795  0.66492  1.0000
  C   C55       1.0  0.08094  0.15778  0.16503  1.0000
  C   C56       1.0  0.92419  0.84205  0.33508  1.0000
  I   I1        1.0  0.90778  0.39411  0.14369  1.0000
  I   I2        1.0  0.51361  0.60654  0.35660  1.0000
  I   I3        1.0  0.09220  0.60589  0.85632  1.0000
  I   I4        1.0  0.48637  0.39346  0.64340  1.0000
  N   N1        1.0  0.48506  0.59493  0.15785  1.0000
  N   N2        1.0  0.89028  0.40529  0.34227  1.0000
  N   N3        1.0  0.51493  0.40508  0.84215  1.0000
  N   N4        1.0  0.10968  0.59471  0.65773  1.0000
