data_image0
_chemical_formula_structural       Cu8H36C24I2N18
_chemical_formula_sum              "Cu8 H36 C24 I2 N18"
_cell_length_a       8.51111
_cell_length_b       11.6918
_cell_length_c       11.6918
_cell_angle_alpha    120
_cell_angle_beta     90
_cell_angle_gamma    90.0001

_space_group_name_H-M_alt    "P 1"
_space_group_IT_number       1

loop_
  _space_group_symop_operation_xyz
  'x, y, z'

loop_
  _atom_site_type_symbol
  _atom_site_label
  _atom_site_symmetry_multiplicity
  _atom_site_fract_x
  _atom_site_fract_y
  _atom_site_fract_z
  _atom_site_occupancy
  Cu  Cu1       1.0  0.39116  0.33333  0.66667  1.0000
  Cu  Cu2       1.0  0.89116  0.66667  0.33333  1.0000
  Cu  Cu3       1.0  0.17611  0.23883  0.39444  1.0000
  Cu  Cu4       1.0  0.17611  0.60556  0.84439  1.0000
  Cu  Cu5       1.0  0.17611  0.15560  0.76116  1.0000
  Cu  Cu6       1.0  0.67611  0.76117  0.60556  1.0000
  Cu  Cu7       1.0  0.67611  0.39444  0.15561  1.0000
  Cu  Cu8       1.0  0.67611  0.84440  0.23883  1.0000
  H   H1        1.0  0.23425  0.99513  0.14651  1.0000
  H   H2        1.0  0.23425  0.85349  0.84862  1.0000
  H   H3        1.0  0.23425  0.15138  0.00487  1.0000
  H   H4        1.0  0.73425  0.00487  0.85349  1.0000
  H   H5        1.0  0.73425  0.14651  0.15138  1.0000
  H   H6        1.0  0.73425  0.84862  0.99513  1.0000
  H   H7        1.0  0.30034  0.84567  0.13643  1.0000
  H   H8        1.0  0.30034  0.86357  0.70924  1.0000
  H   H9        1.0  0.30034  0.29076  0.15433  1.0000
  H   H10       1.0  0.80034  0.15433  0.86357  1.0000
  H   H11       1.0  0.80034  0.13643  0.29076  1.0000
  H   H12       1.0  0.80034  0.70924  0.84567  1.0000
  H   H13       1.0  0.42192  0.92725  0.07691  1.0000
  H   H14       1.0  0.42192  0.92309  0.85034  1.0000
  H   H15       1.0  0.42192  0.14966  0.07275  1.0000
  H   H16       1.0  0.92192  0.07275  0.92309  1.0000
  H   H17       1.0  0.92192  0.07691  0.14966  1.0000
  H   H18       1.0  0.92192  0.85034  0.92724  1.0000
  H   H19       1.0  0.67212  0.17776  0.64443  1.0000
  H   H20       1.0  0.67213  0.35557  0.53333  1.0000
  H   H21       1.0  0.67213  0.46667  0.82224  1.0000
  H   H22       1.0  0.17212  0.82224  0.35557  1.0000
  H   H23       1.0  0.17213  0.64443  0.46667  1.0000
  H   H24       1.0  0.17212  0.53333  0.17777  1.0000
  H   H25       1.0  0.80184  0.09481  0.50729  1.0000
  H   H26       1.0  0.80184  0.49271  0.58752  1.0000
  H   H27       1.0  0.80184  0.41249  0.90519  1.0000
  H   H28       1.0  0.30184  0.90519  0.49270  1.0000
  H   H29       1.0  0.30184  0.50729  0.41249  1.0000
  H   H30       1.0  0.30184  0.58751  0.09481  1.0000
  H   H31       1.0  0.68330  0.00135  0.55521  1.0000
  H   H32       1.0  0.68330  0.44479  0.44614  1.0000
  H   H33       1.0  0.68330  0.55386  0.99865  1.0000
  H   H34       1.0  0.18330  0.99865  0.44479  1.0000
  H   H35       1.0  0.18330  0.55521  0.55386  1.0000
  H   H36       1.0  0.18329  0.44614  0.00135  1.0000
  C   C1        1.0  0.40822  0.02212  0.28794  1.0000
  C   C2        1.0  0.40822  0.71206  0.73418  1.0000
  C   C3        1.0  0.40822  0.26582  0.97788  1.0000
  C   C4        1.0  0.90822  0.97788  0.71206  1.0000
  C   C5        1.0  0.90822  0.28794  0.26582  1.0000
  C   C6        1.0  0.90822  0.73418  0.02212  1.0000
  C   C7        1.0  0.33754  0.94352  0.15484  1.0000
  C   C8        1.0  0.33754  0.84516  0.78868  1.0000
  C   C9        1.0  0.33754  0.21131  0.05648  1.0000
  C   C10       1.0  0.83754  0.05648  0.84516  1.0000
  C   C11       1.0  0.83754  0.15484  0.21132  1.0000
  C   C12       1.0  0.83754  0.78868  0.94352  1.0000
  C   C13       1.0  0.55742  0.08583  0.45870  1.0000
  C   C14       1.0  0.55742  0.54130  0.62713  1.0000
  C   C15       1.0  0.55742  0.37287  0.91417  1.0000
  C   C16       1.0  0.05742  0.91417  0.54130  1.0000
  C   C17       1.0  0.05742  0.45870  0.37287  1.0000
  C   C18       1.0  0.05742  0.62713  0.08583  1.0000
  C   C19       1.0  0.68574  0.09049  0.54630  1.0000
  C   C20       1.0  0.68574  0.45370  0.54420  1.0000
  C   C21       1.0  0.68574  0.45580  0.90951  1.0000
  C   C22       1.0  0.18574  0.90951  0.45370  1.0000
  C   C23       1.0  0.18574  0.54630  0.45580  1.0000
  C   C24       1.0  0.18574  0.54420  0.09050  1.0000
  I   I1        1.0  0.07118  0.33334  0.66667  1.0000
  I   I2        1.0  0.57117  0.66667  0.33333  1.0000
  N   N1        1.0  0.44255  0.17485  0.49484  1.0000
  N   N2        1.0  0.44255  0.50516  0.68001  1.0000
  N   N3        1.0  0.44255  0.31999  0.82515  1.0000
  N   N4        1.0  0.94255  0.82515  0.50516  1.0000
  N   N5        1.0  0.94255  0.49483  0.31999  1.0000
  N   N6        1.0  0.94255  0.68001  0.17485  1.0000
  N   N7        1.0  0.34769  0.13459  0.38573  1.0000
  N   N8        1.0  0.34769  0.61427  0.74886  1.0000
  N   N9        1.0  0.34769  0.25114  0.86542  1.0000
  N   N10       1.0  0.84769  0.86541  0.61428  1.0000
  N   N11       1.0  0.84769  0.38572  0.25114  1.0000
  N   N12       1.0  0.84769  0.74886  0.13459  1.0000
  N   N13       1.0  0.53973  0.98854  0.32994  1.0000
  N   N14       1.0  0.53973  0.67006  0.65860  1.0000
  N   N15       1.0  0.53973  0.34140  0.01146  1.0000
  N   N16       1.0  0.03973  0.01146  0.67006  1.0000
  N   N17       1.0  0.03973  0.32994  0.34141  1.0000
  N   N18       1.0  0.03973  0.65859  0.98854  1.0000
