data_image0
_chemical_formula_structural       Ca4H24C12O24
_chemical_formula_sum              "Ca4 H24 C12 O24"
_cell_length_a       6.71785
_cell_length_b       9.76231
_cell_length_c       12.1824
_cell_angle_alpha    115.342
_cell_angle_beta     90.0001
_cell_angle_gamma    89.9999

_space_group_name_H-M_alt    "P 1"
_space_group_IT_number       1

loop_
  _space_group_symop_operation_xyz
  'x, y, z'

loop_
  _atom_site_type_symbol
  _atom_site_label
  _atom_site_symmetry_multiplicity
  _atom_site_fract_x
  _atom_site_fract_y
  _atom_site_fract_z
  _atom_site_occupancy
  Ca  Ca1       1.0  0.86575  0.58260  0.82292  1.0000
  Ca  Ca2       1.0  0.36575  0.41740  0.67708  1.0000
  Ca  Ca3       1.0  0.13424  0.41740  0.17708  1.0000
  Ca  Ca4       1.0  0.63425  0.58260  0.32292  1.0000
  H   H1        1.0  0.75571  0.14682  0.92900  1.0000
  H   H2        1.0  0.25572  0.85318  0.57101  1.0000
  H   H3        1.0  0.24429  0.85318  0.07100  1.0000
  H   H4        1.0  0.74429  0.14683  0.42899  1.0000
  H   H5        1.0  0.48945  0.15000  0.93409  1.0000
  H   H6        1.0  0.98945  0.85000  0.56592  1.0000
  H   H7        1.0  0.51055  0.85000  0.06591  1.0000
  H   H8        1.0  0.01055  0.15000  0.43409  1.0000
  H   H9        1.0  0.75459  0.69323  0.10326  1.0000
  H   H10       1.0  0.25459  0.30677  0.39674  1.0000
  H   H11       1.0  0.24541  0.30677  0.89674  1.0000
  H   H12       1.0  0.74541  0.69323  0.60326  1.0000
  H   H13       1.0  0.99573  0.67531  0.08809  1.0000
  H   H14       1.0  0.49573  0.32470  0.41191  1.0000
  H   H15       1.0  0.00427  0.32469  0.91191  1.0000
  H   H16       1.0  0.50427  0.67531  0.58809  1.0000
  H   H17       1.0  0.01360  0.90051  0.93225  1.0000
  H   H18       1.0  0.51360  0.09949  0.56775  1.0000
  H   H19       1.0  0.98641  0.09948  0.06775  1.0000
  H   H20       1.0  0.48641  0.90051  0.43225  1.0000
  H   H21       1.0  0.88334  0.83623  0.00708  1.0000
  H   H22       1.0  0.38335  0.16377  0.49292  1.0000
  H   H23       1.0  0.11666  0.16377  0.99292  1.0000
  H   H24       1.0  0.61666  0.83623  0.50708  1.0000
  C   C1        1.0  0.62411  0.30871  0.87366  1.0000
  C   C2        1.0  0.12411  0.69128  0.62634  1.0000
  C   C3        1.0  0.37588  0.69129  0.12634  1.0000
  C   C4        1.0  0.87589  0.30872  0.37366  1.0000
  C   C5        1.0  0.62348  0.21972  0.95147  1.0000
  C   C6        1.0  0.12348  0.78028  0.54853  1.0000
  C   C7        1.0  0.37652  0.78028  0.04853  1.0000
  C   C8        1.0  0.87652  0.21972  0.45147  1.0000
  C   C9        1.0  0.63144  0.33214  0.08466  1.0000
  C   C10       1.0  0.13144  0.66786  0.41534  1.0000
  C   C11       1.0  0.36855  0.66786  0.91534  1.0000
  C   C12       1.0  0.86855  0.33214  0.58466  1.0000
  O   O1        1.0  0.78843  0.36559  0.86194  1.0000
  O   O2        1.0  0.28844  0.63440  0.63806  1.0000
  O   O3        1.0  0.21156  0.63440  0.13806  1.0000
  O   O4        1.0  0.71156  0.36560  0.36194  1.0000
  O   O5        1.0  0.45962  0.32277  0.82770  1.0000
  O   O6        1.0  0.95963  0.67722  0.67230  1.0000
  O   O7        1.0  0.54038  0.67723  0.17230  1.0000
  O   O8        1.0  0.04038  0.32278  0.32770  1.0000
  O   O9        1.0  0.79559  0.39744  0.12921  1.0000
  O   O10       1.0  0.29559  0.60256  0.37079  1.0000
  O   O11       1.0  0.20441  0.60256  0.87079  1.0000
  O   O12       1.0  0.70441  0.39743  0.62921  1.0000
  O   O13       1.0  0.47277  0.36329  0.14732  1.0000
  O   O14       1.0  0.97277  0.63671  0.35269  1.0000
  O   O15       1.0  0.52722  0.63671  0.85269  1.0000
  O   O16       1.0  0.02722  0.36329  0.64731  1.0000
  O   O17       1.0  0.87106  0.69875  0.05436  1.0000
  O   O18       1.0  0.37106  0.30125  0.44563  1.0000
  O   O19       1.0  0.12894  0.30125  0.94564  1.0000
  O   O20       1.0  0.62894  0.69875  0.55437  1.0000
  O   O21       1.0  0.87794  0.87039  0.94037  1.0000
  O   O22       1.0  0.37794  0.12961  0.55963  1.0000
  O   O23       1.0  0.12207  0.12961  0.05963  1.0000
  O   O24       1.0  0.62207  0.87039  0.44037  1.0000
