data_image0
_chemical_formula_structural       Zn6H18C42O18
_chemical_formula_sum              "Zn6 H18 C42 O18"
_cell_length_a       6.72998
_cell_length_b       21.8184
_cell_length_c       21.8184
_cell_angle_alpha    120.002
_cell_angle_beta     89.997
_cell_angle_gamma    90.003

_space_group_name_H-M_alt    "P 1"
_space_group_IT_number       1

loop_
  _space_group_symop_operation_xyz
  'x, y, z'

loop_
  _atom_site_type_symbol
  _atom_site_label
  _atom_site_symmetry_multiplicity
  _atom_site_fract_x
  _atom_site_fract_y
  _atom_site_fract_z
  _atom_site_occupancy
  Zn  Zn1       1.0  0.98176  0.38160  0.66268  1.0000
  Zn  Zn2       1.0  0.31518  0.33731  0.71889  1.0000
  Zn  Zn3       1.0  0.64859  0.28109  0.61838  1.0000
  Zn  Zn4       1.0  0.01824  0.66268  0.38160  1.0000
  Zn  Zn5       1.0  0.68482  0.71889  0.33731  1.0000
  Zn  Zn6       1.0  0.35141  0.61839  0.28109  1.0000
  H   H1        1.0  0.27108  0.45020  0.53714  1.0000
  H   H2        1.0  0.60426  0.46278  0.91298  1.0000
  H   H3        1.0  0.93796  0.08698  0.54983  1.0000
  H   H4        1.0  0.72892  0.53714  0.45020  1.0000
  H   H5        1.0  0.39574  0.91298  0.46278  1.0000
  H   H6        1.0  0.06204  0.54983  0.08698  1.0000
  H   H7        1.0  0.97003  0.36879  0.49620  1.0000
  H   H8        1.0  0.30335  0.50381  0.87260  1.0000
  H   H9        1.0  0.63704  0.12741  0.63124  1.0000
  H   H10       1.0  0.02996  0.49620  0.36880  1.0000
  H   H11       1.0  0.69665  0.87260  0.50381  1.0000
  H   H12       1.0  0.36295  0.63124  0.12741  1.0000
  H   H13       1.0  0.83422  0.42965  0.43527  1.0000
  H   H14       1.0  0.16732  0.56473  0.99434  1.0000
  H   H15       1.0  0.50106  0.00561  0.57037  1.0000
  H   H16       1.0  0.16578  0.43527  0.42965  1.0000
  H   H17       1.0  0.83268  0.99434  0.56473  1.0000
  H   H18       1.0  0.49894  0.57037  0.00561  1.0000
  C   C1        1.0  0.69891  0.37251  0.54955  1.0000
  C   C2        1.0  0.03224  0.45046  0.82289  1.0000
  C   C3        1.0  0.36596  0.17708  0.62755  1.0000
  C   C4        1.0  0.30109  0.54955  0.37251  1.0000
  C   C5        1.0  0.96776  0.82289  0.45046  1.0000
  C   C6        1.0  0.63404  0.62755  0.17708  1.0000
  C   C7        1.0  0.35453  0.38373  0.60423  1.0000
  C   C8        1.0  0.68794  0.39574  0.77944  1.0000
  C   C9        1.0  0.02153  0.22051  0.61627  1.0000
  C   C10       1.0  0.64548  0.60423  0.38373  1.0000
  C   C11       1.0  0.31206  0.77944  0.39574  1.0000
  C   C12       1.0  0.97847  0.61627  0.22051  1.0000
  C   C13       1.0  0.49659  0.39549  0.55979  1.0000
  C   C14       1.0  0.82994  0.44017  0.83563  1.0000
  C   C15       1.0  0.16363  0.16433  0.60453  1.0000
  C   C16       1.0  0.50341  0.55979  0.39549  1.0000
  C   C17       1.0  0.17006  0.83563  0.44017  1.0000
  C   C18       1.0  0.83637  0.60453  0.16433  1.0000
  C   C19       1.0  0.42431  0.43165  0.52600  1.0000
  C   C20       1.0  0.75747  0.47397  0.90559  1.0000
  C   C21       1.0  0.09120  0.09438  0.56839  1.0000
  C   C22       1.0  0.57569  0.52600  0.43165  1.0000
  C   C23       1.0  0.24253  0.90559  0.47397  1.0000
  C   C24       1.0  0.90880  0.56839  0.09438  1.0000
  C   C25       1.0  0.54087  0.44510  0.48132  1.0000
  C   C26       1.0  0.87389  0.51873  0.96374  1.0000
  C   C27       1.0  0.20772  0.03624  0.55499  1.0000
  C   C28       1.0  0.45913  0.48132  0.44510  1.0000
  C   C29       1.0  0.12611  0.96374  0.51873  1.0000
  C   C30       1.0  0.79228  0.55499  0.03624  1.0000
  C   C31       1.0  0.81638  0.38695  0.50464  1.0000
  C   C32       1.0  0.14963  0.49539  0.88226  1.0000
  C   C33       1.0  0.48340  0.11772  0.61311  1.0000
  C   C34       1.0  0.18362  0.50464  0.38694  1.0000
  C   C35       1.0  0.85037  0.88226  0.49539  1.0000
  C   C36       1.0  0.51659  0.61310  0.11772  1.0000
  C   C37       1.0  0.73988  0.42166  0.47136  1.0000
  C   C38       1.0  0.07294  0.52869  0.95025  1.0000
  C   C39       1.0  0.40679  0.04972  0.57841  1.0000
  C   C40       1.0  0.26012  0.47136  0.42166  1.0000
  C   C41       1.0  0.92706  0.95025  0.52869  1.0000
  C   C42       1.0  0.59321  0.57840  0.04972  1.0000
  O   O1        1.0  0.78524  0.33799  0.57931  1.0000
  O   O2        1.0  0.11859  0.42066  0.75862  1.0000
  O   O3        1.0  0.45224  0.24137  0.66209  1.0000
  O   O4        1.0  0.21476  0.57931  0.33800  1.0000
  O   O5        1.0  0.88141  0.75862  0.42066  1.0000
  O   O6        1.0  0.54776  0.66209  0.24137  1.0000
  O   O7        1.0  0.18608  0.41494  0.61912  1.0000
  O   O8        1.0  0.51940  0.38091  0.79576  1.0000
  O   O9        1.0  0.85302  0.20420  0.58510  1.0000
  O   O10       1.0  0.81392  0.61912  0.41494  1.0000
  O   O11       1.0  0.48060  0.79576  0.38091  1.0000
  O   O12       1.0  0.14698  0.58510  0.20420  1.0000
  O   O13       1.0  0.39882  0.34044  0.62643  1.0000
  O   O14       1.0  0.73218  0.37354  0.71396  1.0000
  O   O15       1.0  0.06580  0.28600  0.65953  1.0000
  O   O16       1.0  0.60118  0.62643  0.34044  1.0000
  O   O17       1.0  0.26782  0.71396  0.37354  1.0000
  O   O18       1.0  0.93420  0.65953  0.28600  1.0000
