data_image0
_chemical_formula_structural       Cu4H16C24S6N8
_chemical_formula_sum              "Cu4 H16 C24 S6 N8"
_cell_length_a       5.67055
_cell_length_b       8.95049
_cell_length_c       14.6052
_cell_angle_alpha    106.444
_cell_angle_beta     90.0003
_cell_angle_gamma    89.9996

_space_group_name_H-M_alt    "P 1"
_space_group_IT_number       1

loop_
  _space_group_symop_operation_xyz
  'x, y, z'

loop_
  _atom_site_type_symbol
  _atom_site_label
  _atom_site_symmetry_multiplicity
  _atom_site_fract_x
  _atom_site_fract_y
  _atom_site_fract_z
  _atom_site_occupancy
  Cu  Cu1       1.0  0.60552  0.37253  0.51435  1.0000
  Cu  Cu2       1.0  0.60555  0.62747  0.98565  1.0000
  Cu  Cu3       1.0  0.39445  0.62747  0.48564  1.0000
  Cu  Cu4       1.0  0.39447  0.37253  0.01435  1.0000
  H   H1        1.0  0.17768  0.44343  0.63462  1.0000
  H   H2        1.0  0.17770  0.55656  0.86538  1.0000
  H   H3        1.0  0.82228  0.55655  0.36537  1.0000
  H   H4        1.0  0.82232  0.44343  0.13462  1.0000
  H   H5        1.0  0.92266  0.30508  0.72276  1.0000
  H   H6        1.0  0.92266  0.69491  0.77724  1.0000
  H   H7        1.0  0.07733  0.69490  0.27723  1.0000
  H   H8        1.0  0.07735  0.30508  0.22277  1.0000
  H   H9        1.0  0.43491  0.92941  0.65523  1.0000
  H   H10       1.0  0.43491  0.07059  0.84477  1.0000
  H   H11       1.0  0.56511  0.07060  0.34477  1.0000
  H   H12       1.0  0.56511  0.92941  0.15523  1.0000
  H   H13       1.0  0.67010  0.08608  0.57350  1.0000
  H   H14       1.0  0.67012  0.91392  0.92650  1.0000
  H   H15       1.0  0.32988  0.91393  0.42649  1.0000
  H   H16       1.0  0.32990  0.08607  0.07350  1.0000
  C   C1        1.0  0.22906  0.32968  0.64145  1.0000
  C   C2        1.0  0.22908  0.67032  0.85854  1.0000
  C   C3        1.0  0.77090  0.67031  0.35854  1.0000
  C   C4        1.0  0.77094  0.32967  0.14146  1.0000
  C   C5        1.0  0.08646  0.25171  0.69023  1.0000
  C   C6        1.0  0.08646  0.74829  0.80977  1.0000
  C   C7        1.0  0.91354  0.74829  0.30977  1.0000
  C   C8        1.0  0.91355  0.25171  0.19023  1.0000
  C   C9        1.0  0.15747  0.10494  0.69672  1.0000
  C   C10       1.0  0.15747  0.89506  0.80328  1.0000
  C   C11       1.0  0.84253  0.89506  0.30329  1.0000
  C   C12       1.0  0.84254  0.10494  0.19672  1.0000
  C   C13       1.0  0.37168  0.04374  0.65399  1.0000
  C   C14       1.0  0.37168  0.95626  0.84601  1.0000
  C   C15       1.0  0.62833  0.95627  0.34601  1.0000
  C   C16       1.0  0.62834  0.04373  0.15400  1.0000
  C   C17       1.0  0.50341  0.13065  0.60770  1.0000
  C   C18       1.0  0.50342  0.86934  0.89231  1.0000
  C   C19       1.0  0.49658  0.86935  0.39230  1.0000
  C   C20       1.0  0.49660  0.13065  0.10770  1.0000
  C   C21       1.0  0.09424  0.33430  0.42553  1.0000
  C   C22       1.0  0.09428  0.66570  0.07448  1.0000
  C   C23       1.0  0.90573  0.66571  0.57447  1.0000
  C   C24       1.0  0.90577  0.33430  0.92553  1.0000
  S   S1        1.0  0.96562  1.00000  0.75000  1.0000
  S   S2        1.0  0.03440  1.00000  0.25000  1.0000
  S   S3        1.0  0.35479  0.36187  0.38381  1.0000
  S   S4        1.0  0.35481  0.63814  0.11619  1.0000
  S   S5        1.0  0.64518  0.63815  0.61619  1.0000
  S   S6        1.0  0.64520  0.36186  0.88381  1.0000
  N   N1        1.0  0.43493  0.27143  0.59999  1.0000
  N   N2        1.0  0.43494  0.72857  0.90001  1.0000
  N   N3        1.0  0.56505  0.72857  0.40000  1.0000
  N   N4        1.0  0.56508  0.27143  0.09999  1.0000
  N   N5        1.0  0.90656  0.31809  0.45666  1.0000
  N   N6        1.0  0.90656  0.68192  0.04334  1.0000
  N   N7        1.0  0.09343  0.68192  0.54334  1.0000
  N   N8        1.0  0.09343  0.31809  0.95666  1.0000
