data_image0
_chemical_formula_structural       Ni2H36C40S4N8O12
_chemical_formula_sum              "Ni2 H36 C40 S4 N8 O12"
_cell_length_a       7.59683
_cell_length_b       8.77293
_cell_length_c       15.4176
_cell_angle_alpha    89.9982
_cell_angle_beta     92.6414
_cell_angle_gamma    90.0006

_space_group_name_H-M_alt    "P 1"
_space_group_IT_number       1

loop_
  _space_group_symop_operation_xyz
  'x, y, z'

loop_
  _atom_site_type_symbol
  _atom_site_label
  _atom_site_symmetry_multiplicity
  _atom_site_fract_x
  _atom_site_fract_y
  _atom_site_fract_z
  _atom_site_occupancy
  Ni  Ni1       1.0  1.00000  1.00000  1.00000  1.0000
  Ni  Ni2       1.0  0.50000  0.50000  0.50000  1.0000
  H   H1        1.0  0.23957  0.86326  0.08290  1.0000
  H   H2        1.0  0.26049  0.36326  0.41710  1.0000
  H   H3        1.0  0.76043  0.13675  0.91710  1.0000
  H   H4        1.0  0.73952  0.63674  0.58290  1.0000
  H   H5        1.0  0.29468  0.81903  0.98673  1.0000
  H   H6        1.0  0.20535  0.31906  0.51328  1.0000
  H   H7        1.0  0.70532  0.18096  0.01328  1.0000
  H   H8        1.0  0.79466  0.68095  0.48672  1.0000
  H   H9        1.0  0.98257  0.21420  0.14858  1.0000
  H   H10       1.0  0.51739  0.71423  0.35143  1.0000
  H   H11       1.0  0.01743  0.78580  0.85142  1.0000
  H   H12       1.0  0.48262  0.28578  0.64857  1.0000
  H   H13       1.0  0.08779  0.47873  0.18479  1.0000
  H   H14       1.0  0.41216  0.97876  0.31522  1.0000
  H   H15       1.0  0.91220  0.52127  0.81520  1.0000
  H   H16       1.0  0.58784  0.02123  0.68478  1.0000
  H   H17       1.0  0.25088  0.62355  0.07607  1.0000
  H   H18       1.0  0.24909  0.12355  0.42395  1.0000
  H   H19       1.0  0.74912  0.37644  0.92392  1.0000
  H   H20       1.0  0.75091  0.87644  0.57604  1.0000
  H   H21       1.0  0.21663  0.22183  0.91244  1.0000
  H   H22       1.0  0.28343  0.72182  0.58760  1.0000
  H   H23       1.0  0.78339  0.77817  0.08756  1.0000
  H   H24       1.0  0.71658  0.27817  0.41241  1.0000
  H   H25       1.0  0.54621  0.92143  0.90439  1.0000
  H   H26       1.0  0.95381  0.42145  0.59560  1.0000
  H   H27       1.0  0.45380  0.07857  0.09561  1.0000
  H   H28       1.0  0.04619  0.57855  0.40440  1.0000
  H   H29       1.0  0.62898  0.88242  0.80010  1.0000
  H   H30       1.0  0.87102  0.38247  0.69989  1.0000
  H   H31       1.0  0.37102  0.11758  0.19990  1.0000
  H   H32       1.0  0.12897  0.61753  0.30011  1.0000
  H   H33       1.0  0.40781  0.94605  0.80994  1.0000
  H   H34       1.0  0.09221  0.44606  0.69004  1.0000
  H   H35       1.0  0.59218  0.05394  0.19006  1.0000
  H   H36       1.0  0.90779  0.55393  0.30997  1.0000
  C   C1        1.0  0.05901  0.27996  0.10396  1.0000
  C   C2        1.0  0.44096  0.77998  0.39606  1.0000
  C   C3        1.0  0.94099  0.72004  0.89604  1.0000
  C   C4        1.0  0.55904  0.22002  0.60394  1.0000
  C   C5        1.0  0.11662  0.42710  0.12295  1.0000
  C   C6        1.0  0.38335  0.92712  0.37707  1.0000
  C   C7        1.0  0.88337  0.57290  0.87705  1.0000
  C   C8        1.0  0.61664  0.07288  0.62293  1.0000
  C   C9        1.0  0.20855  0.50755  0.06214  1.0000
  C   C10       1.0  0.29145  0.00755  0.43789  1.0000
  C   C11       1.0  0.79145  0.49245  0.93786  1.0000
  C   C12       1.0  0.70855  0.99245  0.56211  1.0000
  C   C13       1.0  0.24400  0.43646  0.98334  1.0000
  C   C14       1.0  0.25600  0.93646  0.51669  1.0000
  C   C15       1.0  0.75600  0.56354  0.01666  1.0000
  C   C16       1.0  0.74399  0.06354  0.48331  1.0000
  C   C17       1.0  0.18847  0.28530  0.97099  1.0000
  C   C18       1.0  0.31152  0.78530  0.52904  1.0000
  C   C19       1.0  0.81153  0.71470  0.02901  1.0000
  C   C20       1.0  0.68848  0.21470  0.47096  1.0000
  C   C21       1.0  0.33007  0.51826  0.91480  1.0000
  C   C22       1.0  0.16993  0.01828  0.58522  1.0000
  C   C23       1.0  0.66994  0.48173  0.08520  1.0000
  C   C24       1.0  0.83006  0.98172  0.41478  1.0000
  C   C25       1.0  0.45419  0.71324  0.84572  1.0000
  C   C26       1.0  0.04578  0.21327  0.65428  1.0000
  C   C27       1.0  0.54581  0.28676  0.15429  1.0000
  C   C28       1.0  0.95422  0.78674  0.34571  1.0000
  C   C29       1.0  0.46711  0.60152  0.78256  1.0000
  C   C30       1.0  0.03285  0.10155  0.71744  1.0000
  C   C31       1.0  0.53289  0.39848  0.21744  1.0000
  C   C32       1.0  0.96715  0.89846  0.28256  1.0000
  C   C33       1.0  0.53612  0.60871  0.69352  1.0000
  C   C34       1.0  0.96387  0.10875  0.80649  1.0000
  C   C35       1.0  0.46389  0.39130  0.30648  1.0000
  C   C36       1.0  0.03613  0.89126  0.19351  1.0000
  C   C37       1.0  0.51343  0.87468  0.83974  1.0000
  C   C38       1.0  0.98657  0.37471  0.66025  1.0000
  C   C39       1.0  0.48656  0.12532  0.16026  1.0000
  C   C40       1.0  0.01342  0.62530  0.33974  1.0000
  S   S1        1.0  0.37841  0.43303  0.81766  1.0000
  S   S2        1.0  0.12159  0.93306  0.68236  1.0000
  S   S3        1.0  0.62160  0.56697  0.18234  1.0000
  S   S4        1.0  0.87841  0.06694  0.31764  1.0000
  N   N1        1.0  0.09517  0.20961  0.02892  1.0000
  N   N2        1.0  0.40480  0.70962  0.47110  1.0000
  N   N3        1.0  0.90482  0.79039  0.97108  1.0000
  N   N4        1.0  0.59520  0.29038  0.52889  1.0000
  N   N5        1.0  0.37391  0.66450  0.91883  1.0000
  N   N6        1.0  0.12608  0.16452  0.58118  1.0000
  N   N7        1.0  0.62609  0.33550  0.08117  1.0000
  N   N8        1.0  0.87392  0.83549  0.41883  1.0000
  O   O1        1.0  0.44954  0.52732  0.63701  1.0000
  O   O2        1.0  0.05047  0.02740  0.86302  1.0000
  O   O3        1.0  0.55047  0.47268  0.36300  1.0000
  O   O4        1.0  0.94951  0.97259  0.13698  1.0000
  O   O5        1.0  0.66909  0.69061  0.68051  1.0000
  O   O6        1.0  0.83087  0.19063  0.81948  1.0000
  O   O7        1.0  0.33091  0.30939  0.31949  1.0000
  O   O8        1.0  0.16913  0.80937  0.18052  1.0000
  O   O9        1.0  0.25945  0.90643  0.02370  1.0000
  O   O10       1.0  0.24059  0.40644  0.47629  1.0000
  O   O11       1.0  0.74055  0.09357  0.97629  1.0000
  O   O12       1.0  0.75944  0.59356  0.52371  1.0000
