data_image0
_chemical_formula_structural       Cd2H36C40S4N8O12
_chemical_formula_sum              "Cd2 H36 C40 S4 N8 O12"
_cell_length_a       8.6001
_cell_length_b       9.48896
_cell_length_c       13.4291
_cell_angle_alpha    90.0002
_cell_angle_beta     101.662
_cell_angle_gamma    90.0006

_space_group_name_H-M_alt    "P 1"
_space_group_IT_number       1

loop_
  _space_group_symop_operation_xyz
  'x, y, z'

loop_
  _atom_site_type_symbol
  _atom_site_label
  _atom_site_symmetry_multiplicity
  _atom_site_fract_x
  _atom_site_fract_y
  _atom_site_fract_z
  _atom_site_occupancy
  Cd  Cd1       1.0  0.49999  1.00000  1.00000  1.0000
  Cd  Cd2       1.0  0.00001  0.50000  0.50000  1.0000
  H   H1        1.0  0.32464  0.83349  0.86458  1.0000
  H   H2        1.0  0.17535  0.33348  0.63542  1.0000
  H   H3        1.0  0.67534  0.16651  0.13541  1.0000
  H   H4        1.0  0.82465  0.66651  0.36459  1.0000
  H   H5        1.0  0.23419  0.79642  0.95422  1.0000
  H   H6        1.0  0.26581  0.29642  0.54578  1.0000
  H   H7        1.0  0.76579  0.20359  0.04577  1.0000
  H   H8        1.0  0.73420  0.70358  0.45423  1.0000
  H   H9        1.0  0.50153  0.21080  0.80688  1.0000
  H   H10       1.0  0.99845  0.71079  0.69312  1.0000
  H   H11       1.0  0.49848  0.78922  0.19312  1.0000
  H   H12       1.0  0.00154  0.28922  0.30688  1.0000
  H   H13       1.0  0.42460  0.46018  0.75229  1.0000
  H   H14       1.0  0.07537  0.96017  0.74771  1.0000
  H   H15       1.0  0.57541  0.53983  0.24771  1.0000
  H   H16       1.0  0.92461  0.03983  0.25229  1.0000
  H   H17       1.0  0.29101  0.60845  0.86222  1.0000
  H   H18       1.0  0.20897  0.10845  0.63779  1.0000
  H   H19       1.0  0.70898  0.39155  0.13778  1.0000
  H   H20       1.0  0.79102  0.89155  0.36222  1.0000
  H   H21       1.0  0.30883  0.24991  0.06297  1.0000
  H   H22       1.0  0.19119  0.74991  0.43704  1.0000
  H   H23       1.0  0.69117  0.75009  0.93702  1.0000
  H   H24       1.0  0.80882  0.25010  0.56297  1.0000
  H   H25       1.0  0.04534  0.90039  0.02699  1.0000
  H   H26       1.0  0.45466  0.40038  0.47302  1.0000
  H   H27       1.0  0.95465  0.09961  0.97302  1.0000
  H   H28       1.0  0.54535  0.59962  0.52698  1.0000
  H   H29       1.0  0.91476  0.85681  0.11084  1.0000
  H   H30       1.0  0.58524  0.35681  0.38916  1.0000
  H   H31       1.0  0.08523  0.14318  0.88916  1.0000
  H   H32       1.0  0.41477  0.64319  0.61084  1.0000
  H   H33       1.0  0.10823  0.91934  0.16050  1.0000
  H   H34       1.0  0.39178  0.41934  0.33951  1.0000
  H   H35       1.0  0.89177  0.08065  0.83951  1.0000
  H   H36       1.0  0.60823  0.58066  0.66049  1.0000
  C   C1        1.0  0.44042  0.27973  0.85142  1.0000
  C   C2        1.0  0.05956  0.77973  0.64857  1.0000
  C   C3        1.0  0.55958  0.72027  0.14857  1.0000
  C   C4        1.0  0.94044  0.22028  0.35143  1.0000
  C   C5        1.0  0.39935  0.41803  0.82266  1.0000
  C   C6        1.0  0.10063  0.91802  0.67734  1.0000
  C   C7        1.0  0.60065  0.58198  0.17733  1.0000
  C   C8        1.0  0.89936  0.08198  0.32266  1.0000
  C   C9        1.0  0.32309  0.50036  0.88378  1.0000
  C   C10       1.0  0.17689  0.00036  0.61622  1.0000
  C   C11       1.0  0.67690  0.49964  0.11621  1.0000
  C   C12       1.0  0.82311  0.99964  0.38378  1.0000
  C   C13       1.0  0.28969  0.44250  0.97337  1.0000
  C   C14       1.0  0.21030  0.94250  0.52664  1.0000
  C   C15       1.0  0.71030  0.55750  0.02663  1.0000
  C   C16       1.0  0.78971  0.05750  0.47337  1.0000
  C   C17       1.0  0.33324  0.30183  0.99533  1.0000
  C   C18       1.0  0.16677  0.80182  0.50468  1.0000
  C   C19       1.0  0.66676  0.69818  0.00467  1.0000
  C   C20       1.0  0.83324  0.19818  0.49532  1.0000
  C   C21       1.0  0.21510  0.52366  0.04314  1.0000
  C   C22       1.0  0.28489  0.02365  0.45687  1.0000
  C   C23       1.0  0.78489  0.47634  0.95686  1.0000
  C   C24       1.0  0.71512  0.97635  0.54314  1.0000
  C   C25       1.0  0.09998  0.70673  0.10566  1.0000
  C   C26       1.0  0.40002  0.20672  0.39434  1.0000
  C   C27       1.0  0.90002  0.29327  0.89434  1.0000
  C   C28       1.0  0.59999  0.79328  0.60566  1.0000
  C   C29       1.0  0.09822  0.60949  0.18282  1.0000
  C   C30       1.0  0.40178  0.10949  0.31718  1.0000
  C   C31       1.0  0.90179  0.39050  0.81718  1.0000
  C   C32       1.0  0.59822  0.89051  0.68282  1.0000
  C   C33       1.0  0.03659  0.62126  0.27818  1.0000
  C   C34       1.0  0.46341  0.12125  0.22182  1.0000
  C   C35       1.0  0.96342  0.37874  0.72182  1.0000
  C   C36       1.0  0.53658  0.87875  0.77818  1.0000
  C   C37       1.0  0.03782  0.85382  0.10040  1.0000
  C   C38       1.0  0.46218  0.35382  0.39961  1.0000
  C   C39       1.0  0.96217  0.14617  0.89961  1.0000
  C   C40       1.0  0.53783  0.64618  0.60039  1.0000
  S   S1        1.0  0.18245  0.45343  0.15576  1.0000
  S   S2        1.0  0.31755  0.95342  0.34425  1.0000
  S   S3        1.0  0.81755  0.54657  0.84424  1.0000
  S   S4        1.0  0.68245  0.04658  0.65575  1.0000
  N   N1        1.0  0.40711  0.22293  0.93665  1.0000
  N   N2        1.0  0.09288  0.72292  0.56335  1.0000
  N   N3        1.0  0.59288  0.77707  0.06334  1.0000
  N   N4        1.0  0.90712  0.27708  0.43665  1.0000
  N   N5        1.0  0.16820  0.65677  0.02857  1.0000
  N   N6        1.0  0.33179  0.15677  0.47143  1.0000
  N   N7        1.0  0.83179  0.34322  0.97142  1.0000
  N   N8        1.0  0.66822  0.84323  0.52858  1.0000
  O   O1        1.0  0.08720  0.52701  0.34573  1.0000
  O   O2        1.0  0.41281  0.02700  0.15428  1.0000
  O   O3        1.0  0.91282  0.47299  0.65427  1.0000
  O   O4        1.0  0.58719  0.97300  0.84573  1.0000
  O   O5        1.0  0.94075  0.72005  0.28534  1.0000
  O   O6        1.0  0.55926  0.22004  0.21467  1.0000
  O   O7        1.0  0.05926  0.27995  0.71466  1.0000
  O   O8        1.0  0.44074  0.77996  0.78533  1.0000
  O   O9        1.0  0.26877  0.87702  0.91593  1.0000
  O   O10       1.0  0.23122  0.37702  0.58406  1.0000
  O   O11       1.0  0.73121  0.12298  0.08406  1.0000
  O   O12       1.0  0.76879  0.62298  0.41594  1.0000
