data_image0
_chemical_formula_structural       Gd2P4H26C12N2O22
_chemical_formula_sum              "Gd2 P4 H26 C12 N2 O22"
_cell_length_a       8.69508
_cell_length_b       9.63166
_cell_length_c       9.58085
_cell_angle_alpha    109.382
_cell_angle_beta     95.6289
_cell_angle_gamma    111.545

_space_group_name_H-M_alt    "P 1"
_space_group_IT_number       1

loop_
  _space_group_symop_operation_xyz
  'x, y, z'

loop_
  _atom_site_type_symbol
  _atom_site_label
  _atom_site_symmetry_multiplicity
  _atom_site_fract_x
  _atom_site_fract_y
  _atom_site_fract_z
  _atom_site_occupancy
  Gd  Gd1       1.0  0.62604  0.73815  0.82573  1.0000
  Gd  Gd2       1.0  0.37395  0.26185  0.17426  1.0000
  P   P1        1.0  0.73273  0.49451  0.51137  1.0000
  P   P2        1.0  0.26726  0.50548  0.48864  1.0000
  P   P3        1.0  0.80372  0.01579  0.62715  1.0000
  P   P4        1.0  0.19628  0.98420  0.37285  1.0000
  H   H1        1.0  0.65525  0.35421  0.73533  1.0000
  H   H2        1.0  0.34475  0.64579  0.26467  1.0000
  H   H3        1.0  0.00159  0.62423  0.55024  1.0000
  H   H4        1.0  0.99840  0.37581  0.44976  1.0000
  H   H5        1.0  0.85662  0.93616  0.39585  1.0000
  H   H6        1.0  0.14339  0.06384  0.60415  1.0000
  H   H7        1.0  0.01506  0.86078  0.96455  1.0000
  H   H8        1.0  0.98493  0.13921  0.03544  1.0000
  H   H9        1.0  0.93566  0.85359  0.10503  1.0000
  H   H10       1.0  0.06434  0.14640  0.89497  1.0000
  H   H11       1.0  0.89762  0.31942  0.95962  1.0000
  H   H12       1.0  0.10238  0.68060  0.04039  1.0000
  H   H13       1.0  0.81155  0.46370  0.98313  1.0000
  H   H14       1.0  0.18846  0.53633  0.01687  1.0000
  H   H15       1.0  0.00239  0.36932  0.73996  1.0000
  H   H16       1.0  0.99762  0.63068  0.26004  1.0000
  H   H17       1.0  0.94338  0.53506  0.77780  1.0000
  H   H18       1.0  0.05662  0.46494  0.22220  1.0000
  H   H19       1.0  0.67447  0.15039  0.79948  1.0000
  H   H20       1.0  0.32555  0.84961  0.20053  1.0000
  H   H21       1.0  0.55008  0.06532  0.61279  1.0000
  H   H22       1.0  0.44993  0.93468  0.38722  1.0000
  H   H23       1.0  0.77194  0.23723  0.45525  1.0000
  H   H24       1.0  0.22807  0.76277  0.54475  1.0000
  H   H25       1.0  0.56680  0.22131  0.47130  1.0000
  H   H26       1.0  0.43321  0.77869  0.52870  1.0000
  C   C1        1.0  0.91521  0.43326  0.94750  1.0000
  C   C2        1.0  0.08479  0.56675  0.05250  1.0000
  C   C3        1.0  0.91286  0.41702  0.78428  1.0000
  C   C4        1.0  0.08714  0.58299  0.21572  1.0000
  C   C5        1.0  0.68176  0.13857  0.68290  1.0000
  C   C6        1.0  0.31825  0.86143  0.31710  1.0000
  C   C7        1.0  0.70395  0.29869  0.52311  1.0000
  C   C8        1.0  0.29605  0.70131  0.47690  1.0000
  C   C9        1.0  0.40619  0.94027  0.95200  1.0000
  C   C10       1.0  0.59382  0.05973  0.04800  1.0000
  C   C11       1.0  0.49216  0.57037  0.06247  1.0000
  C   C12       1.0  0.50783  0.42963  0.93753  1.0000
  N   N1        1.0  0.73678  0.30476  0.68201  1.0000
  N   N2        1.0  0.26323  0.69523  0.31799  1.0000
  O   O1        1.0  0.53368  0.70390  0.04812  1.0000
  O   O2        1.0  0.46629  0.29608  0.95187  1.0000
  O   O3        1.0  0.38646  0.81385  0.84090  1.0000
  O   O4        1.0  0.61355  0.18616  0.15911  1.0000
  O   O5        1.0  0.43434  0.53644  0.16939  1.0000
  O   O6        1.0  0.56566  0.46356  0.83062  1.0000
  O   O7        1.0  0.28879  0.98012  0.99442  1.0000
  O   O8        1.0  0.71121  0.01988  0.00559  1.0000
  O   O9        1.0  0.90542  0.56687  0.45997  1.0000
  O   O10       1.0  0.09456  0.43312  0.54003  1.0000
  O   O11       1.0  0.76154  0.61216  0.67163  1.0000
  O   O12       1.0  0.23845  0.38783  0.32836  1.0000
  O   O13       1.0  0.59208  0.45443  0.38096  1.0000
  O   O14       1.0  0.40791  0.54556  0.61904  1.0000
  O   O15       1.0  0.99467  0.10352  0.70186  1.0000
  O   O16       1.0  0.00535  0.89648  0.29814  1.0000
  O   O17       1.0  0.70112  0.87591  0.66798  1.0000
  O   O18       1.0  0.29889  0.12409  0.33202  1.0000
  O   O19       1.0  0.76993  0.96491  0.44684  1.0000
  O   O20       1.0  0.23008  0.03508  0.55316  1.0000
  O   O21       1.0  0.90587  0.82088  0.99174  1.0000
  O   O22       1.0  0.09413  0.17911  0.00825  1.0000
