data_image0
_chemical_formula_structural       U2H10C16N2O16
_chemical_formula_sum              "U2 H10 C16 N2 O16"
_cell_length_a       7.94305
_cell_length_b       7.94307
_cell_length_c       8.93809
_cell_angle_alpha    101.728
_cell_angle_beta     101.727
_cell_angle_gamma    96.8612

_space_group_name_H-M_alt    "P 1"
_space_group_IT_number       1

loop_
  _space_group_symop_operation_xyz
  'x, y, z'

loop_
  _atom_site_type_symbol
  _atom_site_label
  _atom_site_symmetry_multiplicity
  _atom_site_fract_x
  _atom_site_fract_y
  _atom_site_fract_z
  _atom_site_occupancy
  U   U1        1.0  0.62539  0.37462  0.74999  1.0000
  U   U2        1.0  0.37462  0.62539  0.25000  1.0000
  H   H1        1.0  0.94034  0.05966  0.75000  1.0000
  H   H2        1.0  0.05966  0.94034  0.25000  1.0000
  H   H3        1.0  0.45648  0.97161  0.85226  1.0000
  H   H4        1.0  0.02839  0.54353  0.64774  1.0000
  H   H5        1.0  0.54352  0.02838  0.14774  1.0000
  H   H6        1.0  0.97161  0.45647  0.35226  1.0000
  H   H7        1.0  0.23554  0.17612  0.85302  1.0000
  H   H8        1.0  0.82388  0.76446  0.64698  1.0000
  H   H9        1.0  0.76446  0.82388  0.14698  1.0000
  H   H10       1.0  0.17612  0.23554  0.35302  1.0000
  C   C1        1.0  0.97048  0.58570  0.03077  1.0000
  C   C2        1.0  0.41431  0.02952  0.46923  1.0000
  C   C3        1.0  0.02953  0.41431  0.96923  1.0000
  C   C4        1.0  0.58569  0.97047  0.53077  1.0000
  C   C5        1.0  0.38356  0.61644  0.75000  1.0000
  C   C6        1.0  0.61644  0.38356  0.25000  1.0000
  C   C7        1.0  0.25741  0.74258  0.75000  1.0000
  C   C8        1.0  0.74258  0.25741  0.25000  1.0000
  C   C9        1.0  0.31797  0.92143  0.80767  1.0000
  C   C10       1.0  0.07857  0.68203  0.69233  1.0000
  C   C11       1.0  0.68203  0.07857  0.19233  1.0000
  C   C12       1.0  0.92143  0.31796  0.30767  1.0000
  C   C13       1.0  0.19934  0.03570  0.80757  1.0000
  C   C14       1.0  0.96430  0.80066  0.69243  1.0000
  C   C15       1.0  0.80066  0.96430  0.19243  1.0000
  C   C16       1.0  0.03570  0.19934  0.30757  1.0000
  N   N1        1.0  0.02776  0.97224  0.75000  1.0000
  N   N2        1.0  0.97224  0.02776  0.25000  1.0000
  O   O1        1.0  0.82375  0.60815  0.95917  1.0000
  O   O2        1.0  0.39184  0.17625  0.54083  1.0000
  O   O3        1.0  0.17625  0.39185  0.04083  1.0000
  O   O4        1.0  0.60815  0.82376  0.45917  1.0000
  O   O5        1.0  0.07499  0.69051  0.14811  1.0000
  O   O6        1.0  0.30949  0.92502  0.35189  1.0000
  O   O7        1.0  0.92501  0.30949  0.85189  1.0000
  O   O8        1.0  0.69051  0.07498  0.64812  1.0000
  O   O9        1.0  0.54583  0.67380  0.77532  1.0000
  O   O10       1.0  0.32620  0.45417  0.72468  1.0000
  O   O11       1.0  0.45417  0.32620  0.22468  1.0000
  O   O12       1.0  0.67380  0.54583  0.27532  1.0000
  O   O13       1.0  0.56302  0.29345  0.90904  1.0000
  O   O14       1.0  0.70655  0.43698  0.59097  1.0000
  O   O15       1.0  0.43698  0.70656  0.09096  1.0000
  O   O16       1.0  0.29345  0.56303  0.40903  1.0000
