data_image0
_chemical_formula_structural       Cd4H40C20S8I4N4
_chemical_formula_sum              "Cd4 H40 C20 S8 I4 N4"
_cell_length_a       7.39676
_cell_length_b       9.09041
_cell_length_c       15.5193
_cell_angle_alpha    90.0001
_cell_angle_beta     96.2066
_cell_angle_gamma    89.9997

_space_group_name_H-M_alt    "P 1"
_space_group_IT_number       1

loop_
  _space_group_symop_operation_xyz
  'x, y, z'

loop_
  _atom_site_type_symbol
  _atom_site_label
  _atom_site_symmetry_multiplicity
  _atom_site_fract_x
  _atom_site_fract_y
  _atom_site_fract_z
  _atom_site_occupancy
  Cd  Cd1       1.0  0.25294  0.96496  0.02581  1.0000
  Cd  Cd2       1.0  0.74706  0.46496  0.47419  1.0000
  Cd  Cd3       1.0  0.74706  0.03504  0.97419  1.0000
  Cd  Cd4       1.0  0.25294  0.53504  0.52581  1.0000
  H   H1        1.0  0.80000  0.66991  0.29194  1.0000
  H   H2        1.0  0.20000  0.16991  0.20806  1.0000
  H   H3        1.0  0.20000  0.33009  0.70806  1.0000
  H   H4        1.0  0.79999  0.83009  0.79194  1.0000
  H   H5        1.0  0.02239  0.73963  0.28723  1.0000
  H   H6        1.0  0.97762  0.23964  0.21277  1.0000
  H   H7        1.0  0.97762  0.26036  0.71277  1.0000
  H   H8        1.0  0.02238  0.76036  0.78723  1.0000
  H   H9        1.0  0.84733  0.90427  0.37708  1.0000
  H   H10       1.0  0.15268  0.40427  0.12292  1.0000
  H   H11       1.0  0.15268  0.09573  0.62292  1.0000
  H   H12       1.0  0.84732  0.59573  0.87708  1.0000
  H   H13       1.0  0.67651  0.93018  0.28862  1.0000
  H   H14       1.0  0.32350  0.43018  0.21138  1.0000
  H   H15       1.0  0.32349  0.06982  0.71138  1.0000
  H   H16       1.0  0.67650  0.56982  0.78862  1.0000
  H   H17       1.0  0.89947  0.99941  0.28240  1.0000
  H   H18       1.0  0.10054  0.49941  0.21760  1.0000
  H   H19       1.0  0.10054  0.00059  0.71760  1.0000
  H   H20       1.0  0.89946  0.50059  0.78240  1.0000
  H   H21       1.0  0.56901  0.74327  0.18508  1.0000
  H   H22       1.0  0.43099  0.24327  0.31492  1.0000
  H   H23       1.0  0.43099  0.25673  0.81492  1.0000
  H   H24       1.0  0.56900  0.75673  0.68508  1.0000
  H   H25       1.0  0.62155  0.78267  0.07886  1.0000
  H   H26       1.0  0.37846  0.28268  0.42114  1.0000
  H   H27       1.0  0.37846  0.21732  0.92114  1.0000
  H   H28       1.0  0.62154  0.71733  0.57886  1.0000
  H   H29       1.0  0.50511  0.52755  0.08791  1.0000
  H   H30       1.0  0.49490  0.02756  0.41209  1.0000
  H   H31       1.0  0.49489  0.47244  0.91209  1.0000
  H   H32       1.0  0.50511  0.97245  0.58791  1.0000
  H   H33       1.0  0.68251  0.48232  0.17024  1.0000
  H   H34       1.0  0.31751  0.98232  0.32976  1.0000
  H   H35       1.0  0.31750  0.51768  0.82977  1.0000
  H   H36       1.0  0.68250  0.01768  0.67024  1.0000
  H   H37       1.0  0.73428  0.52393  0.06349  1.0000
  H   H38       1.0  0.26574  0.02394  0.43652  1.0000
  H   H39       1.0  0.26572  0.47606  0.93652  1.0000
  H   H40       1.0  0.73427  0.97606  0.56348  1.0000
  C   C1        1.0  0.97280  0.80110  0.12399  1.0000
  C   C2        1.0  0.02720  0.30110  0.37601  1.0000
  C   C3        1.0  0.02720  0.19890  0.87601  1.0000
  C   C4        1.0  0.97280  0.69890  0.62399  1.0000
  C   C5        1.0  0.87760  0.76202  0.26855  1.0000
  C   C6        1.0  0.12240  0.26202  0.23145  1.0000
  C   C7        1.0  0.12239  0.23798  0.73145  1.0000
  C   C8        1.0  0.87760  0.73798  0.76855  1.0000
  C   C9        1.0  0.82169  0.90790  0.30608  1.0000
  C   C10       1.0  0.17832  0.40791  0.19392  1.0000
  C   C11       1.0  0.17831  0.09209  0.69392  1.0000
  C   C12       1.0  0.82168  0.59209  0.80608  1.0000
  C   C13       1.0  0.66083  0.71518  0.13644  1.0000
  C   C14       1.0  0.33917  0.21518  0.36356  1.0000
  C   C15       1.0  0.33917  0.28482  0.86356  1.0000
  C   C16       1.0  0.66083  0.78482  0.63644  1.0000
  C   C17       1.0  0.64602  0.55249  0.11348  1.0000
  C   C18       1.0  0.35399  0.05250  0.38652  1.0000
  C   C19       1.0  0.35398  0.44751  0.88652  1.0000
  C   C20       1.0  0.64601  0.94751  0.61348  1.0000
  S   S1        1.0  0.93137  0.79468  0.01094  1.0000
  S   S2        1.0  0.06863  0.29468  0.48906  1.0000
  S   S3        1.0  0.06863  0.20532  0.98906  1.0000
  S   S4        1.0  0.93136  0.70532  0.51094  1.0000
  S   S5        1.0  0.18408  0.85611  0.16990  1.0000
  S   S6        1.0  0.81593  0.35611  0.33010  1.0000
  S   S7        1.0  0.81593  0.14388  0.83010  1.0000
  S   S8        1.0  0.18407  0.64389  0.66990  1.0000
  I   I1        1.0  0.42460  0.85880  0.88739  1.0000
  I   I2        1.0  0.57540  0.35880  0.61261  1.0000
  I   I3        1.0  0.57541  0.14120  0.11261  1.0000
  I   I4        1.0  0.42459  0.64120  0.38739  1.0000
  N   N1        1.0  0.84486  0.75970  0.17313  1.0000
  N   N2        1.0  0.15514  0.25970  0.32687  1.0000
  N   N3        1.0  0.15514  0.24030  0.82687  1.0000
  N   N4        1.0  0.84485  0.74030  0.67313  1.0000
