data_image0
_chemical_formula_structural       Co4P4H16C20N4O12
_chemical_formula_sum              "Co4 P4 H16 C20 N4 O12"
_cell_length_a       5.11375
_cell_length_b       8.44413
_cell_length_c       14.9981
_cell_angle_alpha    89.9999
_cell_angle_beta     90.0002
_cell_angle_gamma    94.3218

_space_group_name_H-M_alt    "P 1"
_space_group_IT_number       1

loop_
  _space_group_symop_operation_xyz
  'x, y, z'

loop_
  _atom_site_type_symbol
  _atom_site_label
  _atom_site_symmetry_multiplicity
  _atom_site_fract_x
  _atom_site_fract_y
  _atom_site_fract_z
  _atom_site_occupancy
  Co  Co1       1.0  0.78717  0.51872  0.70132  1.0000
  Co  Co2       1.0  0.71283  0.98128  0.20132  1.0000
  Co  Co3       1.0  0.21283  0.48128  0.29868  1.0000
  Co  Co4       1.0  0.28717  0.01872  0.79868  1.0000
  P   P1        1.0  0.73679  0.80332  0.83627  1.0000
  P   P2        1.0  0.76322  0.69668  0.33627  1.0000
  P   P3        1.0  0.26321  0.19668  0.16373  1.0000
  P   P4        1.0  0.23679  0.30332  0.66373  1.0000
  H   H1        1.0  0.86011  0.93712  0.01501  1.0000
  H   H2        1.0  0.63989  0.56288  0.51501  1.0000
  H   H3        1.0  0.13988  0.06288  0.98499  1.0000
  H   H4        1.0  0.36011  0.43712  0.48499  1.0000
  H   H5        1.0  0.26645  0.60996  0.89892  1.0000
  H   H6        1.0  0.23356  0.89004  0.39892  1.0000
  H   H7        1.0  0.73355  0.39004  0.10108  1.0000
  H   H8        1.0  0.76645  0.10996  0.60108  1.0000
  H   H9        1.0  0.06501  0.58326  0.05287  1.0000
  H   H10       1.0  0.43499  0.91673  0.55286  1.0000
  H   H11       1.0  0.93499  0.41673  0.94714  1.0000
  H   H12       1.0  0.56501  0.08327  0.44713  1.0000
  H   H13       1.0  0.26127  0.74400  0.17668  1.0000
  H   H14       1.0  0.23873  0.75601  0.67668  1.0000
  H   H15       1.0  0.73873  0.25600  0.82332  1.0000
  H   H16       1.0  0.76127  0.24400  0.32332  1.0000
  C   C1        1.0  0.68524  0.85650  0.01959  1.0000
  C   C2        1.0  0.81476  0.64350  0.51959  1.0000
  C   C3        1.0  0.31476  0.14350  0.98041  1.0000
  C   C4        1.0  0.18524  0.35650  0.48041  1.0000
  C   C5        1.0  0.58430  0.77467  0.94507  1.0000
  C   C6        1.0  0.91570  0.72533  0.44507  1.0000
  C   C7        1.0  0.41570  0.22533  0.05493  1.0000
  C   C8        1.0  0.08430  0.27467  0.55493  1.0000
  C   C9        1.0  0.35511  0.67391  0.95595  1.0000
  C   C10       1.0  0.14489  0.82608  0.45595  1.0000
  C   C11       1.0  0.64488  0.32609  0.04405  1.0000
  C   C12       1.0  0.85511  0.17391  0.54405  1.0000
  C   C13       1.0  0.24070  0.66054  0.04017  1.0000
  C   C14       1.0  0.25931  0.83946  0.54017  1.0000
  C   C15       1.0  0.75930  0.33946  0.95983  1.0000
  C   C16       1.0  0.74070  0.16055  0.45983  1.0000
  C   C17       1.0  0.35186  0.74842  0.11088  1.0000
  C   C18       1.0  0.14814  0.75158  0.61088  1.0000
  C   C19       1.0  0.64813  0.25158  0.88912  1.0000
  C   C20       1.0  0.85187  0.24842  0.38912  1.0000
  N   N1        1.0  0.57197  0.84536  0.10085  1.0000
  N   N2        1.0  0.92803  0.65464  0.60085  1.0000
  N   N3        1.0  0.42803  0.15464  0.89915  1.0000
  N   N4        1.0  0.07197  0.34536  0.39915  1.0000
  O   O1        1.0  0.82990  0.64121  0.80918  1.0000
  O   O2        1.0  0.67010  0.85879  0.30918  1.0000
  O   O3        1.0  0.17010  0.35880  0.19082  1.0000
  O   O4        1.0  0.32989  0.14120  0.69082  1.0000
  O   O5        1.0  0.52225  0.85391  0.77236  1.0000
  O   O6        1.0  0.97775  0.64609  0.27236  1.0000
  O   O7        1.0  0.47775  0.14609  0.22764  1.0000
  O   O8        1.0  0.02225  0.35391  0.72764  1.0000
  O   O9        1.0  0.96126  0.93257  0.84994  1.0000
  O   O10       1.0  0.53875  0.56743  0.34994  1.0000
  O   O11       1.0  0.03874  0.06743  0.15006  1.0000
  O   O12       1.0  0.46126  0.43257  0.65006  1.0000
