data_image0
_chemical_formula_structural       Cu2H24C36N2Cl8O12
_chemical_formula_sum              "Cu2 H24 C36 N2 Cl8 O12"
_cell_length_a       9.86255
_cell_length_b       10.8677
_cell_length_c       10.9554
_cell_angle_alpha    63.9208
_cell_angle_beta     79.1553
_cell_angle_gamma    72.2234

_space_group_name_H-M_alt    "P 1"
_space_group_IT_number       1

loop_
  _space_group_symop_operation_xyz
  'x, y, z'

loop_
  _atom_site_type_symbol
  _atom_site_label
  _atom_site_symmetry_multiplicity
  _atom_site_fract_x
  _atom_site_fract_y
  _atom_site_fract_z
  _atom_site_occupancy
  Cu  Cu1       1.0  0.36297  0.51230  0.48718  1.0000
  Cu  Cu2       1.0  0.63709  0.48769  0.51283  1.0000
  H   H1        1.0  0.04825  0.77882  0.72934  1.0000
  H   H2        1.0  0.95175  0.22118  0.27066  1.0000
  H   H3        1.0  0.67508  0.75141  0.59992  1.0000
  H   H4        1.0  0.32491  0.24859  0.40008  1.0000
  H   H5        1.0  0.58195  0.65372  0.83862  1.0000
  H   H6        1.0  0.41804  0.34628  0.16138  1.0000
  H   H7        1.0  0.56244  0.50764  0.07310  1.0000
  H   H8        1.0  0.43757  0.49235  0.92690  1.0000
  H   H9        1.0  0.49848  0.69186  0.03899  1.0000
  H   H10       1.0  0.50151  0.30813  0.96102  1.0000
  H   H11       1.0  0.16822  0.80066  0.97933  1.0000
  H   H12       1.0  0.83176  0.19935  0.02065  1.0000
  H   H13       1.0  0.31267  0.11384  0.02442  1.0000
  H   H14       1.0  0.68732  0.88616  0.97558  1.0000
  H   H15       1.0  0.45782  0.15207  0.80842  1.0000
  H   H16       1.0  0.54219  0.84793  0.19158  1.0000
  H   H17       1.0  0.65903  0.04517  0.53794  1.0000
  H   H18       1.0  0.34098  0.95483  0.46207  1.0000
  H   H19       1.0  0.65679  0.02802  0.70783  1.0000
  H   H20       1.0  0.34321  0.97198  0.29217  1.0000
  H   H21       1.0  0.12885  0.60109  0.28266  1.0000
  H   H22       1.0  0.87116  0.39891  0.71735  1.0000
  H   H23       1.0  0.87518  0.58315  0.29574  1.0000
  H   H24       1.0  0.12483  0.41686  0.70426  1.0000
  C   C1        1.0  0.76078  0.66038  0.92162  1.0000
  C   C2        1.0  0.23922  0.33962  0.07838  1.0000
  C   C3        1.0  0.89358  0.69484  0.88794  1.0000
  C   C4        1.0  0.10641  0.30516  0.11207  1.0000
  C   C5        1.0  0.94627  0.75151  0.75335  1.0000
  C   C6        1.0  0.05373  0.24849  0.24665  1.0000
  C   C7        1.0  0.86581  0.77276  0.65036  1.0000
  C   C8        1.0  0.13419  0.22724  0.34964  1.0000
  C   C9        1.0  0.73601  0.73627  0.68083  1.0000
  C   C10       1.0  0.26398  0.26373  0.31917  1.0000
  C   C11       1.0  0.68402  0.68055  0.81647  1.0000
  C   C12       1.0  0.31598  0.31945  0.18354  1.0000
  C   C13       1.0  0.57697  0.59299  0.09422  1.0000
  C   C14       1.0  0.42303  0.40701  0.90579  1.0000
  C   C15       1.0  0.54630  0.55411  0.24691  1.0000
  C   C16       1.0  0.45371  0.44589  0.75309  1.0000
  C   C17       1.0  0.39774  0.99819  0.76911  1.0000
  C   C18       1.0  0.60226  0.00181  0.23089  1.0000
  C   C19       1.0  0.31442  0.89894  0.82063  1.0000
  C   C20       1.0  0.68557  0.10106  0.17936  1.0000
  C   C21       1.0  0.23209  0.87714  0.94274  1.0000
  C   C22       1.0  0.76789  0.12288  0.05725  1.0000
  C   C23       1.0  0.23188  0.95468  0.01588  1.0000
  C   C24       1.0  0.76811  0.04534  0.98410  1.0000
  C   C25       1.0  0.31342  0.05313  0.96750  1.0000
  C   C26       1.0  0.68658  0.94687  0.03249  1.0000
  C   C27       1.0  0.39563  0.07409  0.84514  1.0000
  C   C28       1.0  0.60437  0.92591  0.15486  1.0000
  C   C29       1.0  0.59304  0.07343  0.61871  1.0000
  C   C30       1.0  0.40696  0.92657  0.38129  1.0000
  C   C31       1.0  0.55571  0.23527  0.56647  1.0000
  C   C32       1.0  0.44429  0.76473  0.43353  1.0000
  C   C33       1.0  0.07067  0.55581  0.37994  1.0000
  C   C34       1.0  0.92934  0.44420  0.62007  1.0000
  C   C35       1.0  0.93132  0.54641  0.38702  1.0000
  C   C36       1.0  0.06869  0.45359  0.61298  1.0000
  N   N1        1.0  0.13948  0.50968  0.49262  1.0000
  N   N2        1.0  0.86052  0.49032  0.50738  1.0000
  Cl  Cl1       1.0  0.92818  0.84835  0.48181  1.0000
  Cl  Cl2       1.0  0.07181  0.15165  0.51819  1.0000
  Cl  Cl3       1.0  0.99104  0.66408  0.01841  1.0000
  Cl  Cl4       1.0  0.00896  0.33593  0.98159  1.0000
  Cl  Cl5       1.0  0.31575  0.79828  0.73394  1.0000
  Cl  Cl6       1.0  0.68425  0.20173  0.26605  1.0000
  Cl  Cl7       1.0  0.13003  0.92625  0.16827  1.0000
  Cl  Cl8       1.0  0.86996  0.07376  0.83171  1.0000
  O   O1        1.0  0.42835  0.30258  0.53697  1.0000
  O   O2        1.0  0.57165  0.69742  0.46303  1.0000
  O   O3        1.0  0.66058  0.28269  0.56020  1.0000
  O   O4        1.0  0.33942  0.71730  0.43980  1.0000
  O   O5        1.0  0.41765  0.55122  0.28874  1.0000
  O   O6        1.0  0.58235  0.44876  0.71129  1.0000
  O   O7        1.0  0.64949  0.53025  0.31412  1.0000
  O   O8        1.0  0.35051  0.46975  0.68587  1.0000
  O   O9        1.0  0.47509  0.01300  0.64877  1.0000
  O   O10       1.0  0.52492  0.98698  0.35123  1.0000
  O   O11       1.0  0.71871  0.60838  0.05676  1.0000
  O   O12       1.0  0.28128  0.39163  0.94325  1.0000
