data_image0
_chemical_formula_structural       K8H32C16S36O4
_chemical_formula_sum              "K8 H32 C16 S36 O4"
_cell_length_a       8.89131
_cell_length_b       9.77691
_cell_length_c       18.5316
_cell_angle_alpha    90.0001
_cell_angle_beta     90.0001
_cell_angle_gamma    90

_space_group_name_H-M_alt    "P 1"
_space_group_IT_number       1

loop_
  _space_group_symop_operation_xyz
  'x, y, z'

loop_
  _atom_site_type_symbol
  _atom_site_label
  _atom_site_symmetry_multiplicity
  _atom_site_fract_x
  _atom_site_fract_y
  _atom_site_fract_z
  _atom_site_occupancy
  K   K1        1.0  0.27464  0.43055  0.25000  1.0000
  K   K2        1.0  0.72536  0.56945  0.75000  1.0000
  K   K3        1.0  0.22536  0.43055  0.75000  1.0000
  K   K4        1.0  0.77464  0.56945  0.25000  1.0000
  K   K5        1.0  0.25000  0.49156  0.50000  1.0000
  K   K6        1.0  0.75000  0.50844  1.00000  1.0000
  K   K7        1.0  0.75000  0.50844  0.50000  1.0000
  K   K8        1.0  0.25000  0.49156  1.00000  1.0000
  H   H1        1.0  0.13311  0.18279  0.35806  1.0000
  H   H2        1.0  0.86689  0.81721  0.85806  1.0000
  H   H3        1.0  0.36689  0.18278  0.64194  1.0000
  H   H4        1.0  0.63311  0.81721  0.14194  1.0000
  H   H5        1.0  0.86689  0.81721  0.64194  1.0000
  H   H6        1.0  0.13311  0.18279  0.14194  1.0000
  H   H7        1.0  0.63311  0.81722  0.35806  1.0000
  H   H8        1.0  0.36689  0.18279  0.85806  1.0000
  H   H9        1.0  0.14580  0.01259  0.32351  1.0000
  H   H10       1.0  0.85420  0.98741  0.82351  1.0000
  H   H11       1.0  0.35420  0.01258  0.67649  1.0000
  H   H12       1.0  0.64580  0.98741  0.17649  1.0000
  H   H13       1.0  0.85420  0.98741  0.67649  1.0000
  H   H14       1.0  0.14580  0.01259  0.17649  1.0000
  H   H15       1.0  0.64580  0.98742  0.32351  1.0000
  H   H16       1.0  0.35420  0.01259  0.82351  1.0000
  H   H17       1.0  0.88127  0.20737  0.31297  1.0000
  H   H18       1.0  0.11873  0.79263  0.81297  1.0000
  H   H19       1.0  0.61873  0.20736  0.68703  1.0000
  H   H20       1.0  0.38127  0.79263  0.18703  1.0000
  H   H21       1.0  0.11873  0.79263  0.68703  1.0000
  H   H22       1.0  0.88127  0.20737  0.18703  1.0000
  H   H23       1.0  0.38127  0.79264  0.31297  1.0000
  H   H24       1.0  0.61873  0.20737  0.81297  1.0000
  H   H25       1.0  0.88265  0.02580  0.31401  1.0000
  H   H26       1.0  0.11735  0.97420  0.81401  1.0000
  H   H27       1.0  0.61735  0.02580  0.68599  1.0000
  H   H28       1.0  0.38265  0.97420  0.18599  1.0000
  H   H29       1.0  0.11735  0.97420  0.68599  1.0000
  H   H30       1.0  0.88265  0.02580  0.18599  1.0000
  H   H31       1.0  0.38265  0.97420  0.31401  1.0000
  H   H32       1.0  0.61735  0.02580  0.81401  1.0000
  C   C1        1.0  0.10555  0.11713  0.31192  1.0000
  C   C2        1.0  0.89445  0.88287  0.81192  1.0000
  C   C3        1.0  0.39446  0.11712  0.68808  1.0000
  C   C4        1.0  0.60555  0.88287  0.18808  1.0000
  C   C5        1.0  0.89445  0.88287  0.68808  1.0000
  C   C6        1.0  0.10555  0.11713  0.18808  1.0000
  C   C7        1.0  0.60554  0.88288  0.31192  1.0000
  C   C8        1.0  0.39445  0.11713  0.81192  1.0000
  C   C9        1.0  0.93851  0.11633  0.29179  1.0000
  C   C10       1.0  0.06149  0.88367  0.79179  1.0000
  C   C11       1.0  0.56149  0.11632  0.70821  1.0000
  C   C12       1.0  0.43851  0.88367  0.20821  1.0000
  C   C13       1.0  0.06149  0.88367  0.70821  1.0000
  C   C14       1.0  0.93851  0.11633  0.20821  1.0000
  C   C15       1.0  0.43851  0.88368  0.29179  1.0000
  C   C16       1.0  0.56149  0.11633  0.79179  1.0000
  S   S1        1.0  0.50751  0.52871  0.37331  1.0000
  S   S2        1.0  0.49249  0.47129  0.87331  1.0000
  S   S3        1.0  0.99249  0.52871  0.62669  1.0000
  S   S4        1.0  0.00751  0.47129  0.12669  1.0000
  S   S5        1.0  0.49249  0.47128  0.62668  1.0000
  S   S6        1.0  0.50751  0.52871  0.12669  1.0000
  S   S7        1.0  0.00751  0.47129  0.37331  1.0000
  S   S8        1.0  0.99249  0.52871  0.87331  1.0000
  S   S9        1.0  0.55980  0.32747  0.35410  1.0000
  S   S10       1.0  0.44020  0.67253  0.85410  1.0000
  S   S11       1.0  0.94020  0.32747  0.64590  1.0000
  S   S12       1.0  0.05980  0.67253  0.14590  1.0000
  S   S13       1.0  0.44020  0.67253  0.64590  1.0000
  S   S14       1.0  0.55980  0.32747  0.14590  1.0000
  S   S15       1.0  0.05979  0.67253  0.35410  1.0000
  S   S16       1.0  0.94021  0.32747  0.85409  1.0000
  S   S17       1.0  0.44831  0.20109  0.42433  1.0000
  S   S18       1.0  0.55169  0.79891  0.92433  1.0000
  S   S19       1.0  0.05169  0.20109  0.57567  1.0000
  S   S20       1.0  0.94831  0.79891  0.07567  1.0000
  S   S21       1.0  0.55169  0.79891  0.57567  1.0000
  S   S22       1.0  0.44831  0.20109  0.07567  1.0000
  S   S23       1.0  0.94831  0.79891  0.42433  1.0000
  S   S24       1.0  0.05169  0.20109  0.92433  1.0000
  S   S25       1.0  0.57095  0.18906  0.52072  1.0000
  S   S26       1.0  0.42905  0.81094  0.02072  1.0000
  S   S27       1.0  0.92905  0.18906  0.47928  1.0000
  S   S28       1.0  0.07095  0.81094  0.97928  1.0000
  S   S29       1.0  0.42905  0.81094  0.47928  1.0000
  S   S30       1.0  0.57095  0.18906  0.97928  1.0000
  S   S31       1.0  0.07095  0.81094  0.52072  1.0000
  S   S32       1.0  0.92905  0.18906  0.02072  1.0000
  S   S33       1.0  0.75000  0.06115  0.50000  1.0000
  S   S34       1.0  0.25000  0.93885  1.00000  1.0000
  S   S35       1.0  0.25000  0.93885  0.50000  1.0000
  S   S36       1.0  0.75000  0.06115  1.00000  1.0000
  O   O1        1.0  0.18382  0.17091  0.25000  1.0000
  O   O2        1.0  0.81618  0.82909  0.75000  1.0000
  O   O3        1.0  0.31618  0.17091  0.75000  1.0000
  O   O4        1.0  0.68382  0.82909  0.25000  1.0000
