data_image0
_chemical_formula_structural       Zn2H28C44N4O18
_chemical_formula_sum              "Zn2 H28 C44 N4 O18"
_cell_length_a       9.75194
_cell_length_b       10.1701
_cell_length_c       11.2845
_cell_angle_alpha    87.1232
_cell_angle_beta     72.0081
_cell_angle_gamma    64.6969

_space_group_name_H-M_alt    "P 1"
_space_group_IT_number       1

loop_
  _space_group_symop_operation_xyz
  'x, y, z'

loop_
  _atom_site_type_symbol
  _atom_site_label
  _atom_site_symmetry_multiplicity
  _atom_site_fract_x
  _atom_site_fract_y
  _atom_site_fract_z
  _atom_site_occupancy
  Zn  Zn1       1.0  0.53085  0.64389  0.76029  1.0000
  Zn  Zn2       1.0  0.46915  0.35611  0.23971  1.0000
  H   H1        1.0  0.19583  0.83204  0.97032  1.0000
  H   H2        1.0  0.80417  0.16796  0.02968  1.0000
  H   H3        1.0  0.06305  0.08295  0.08159  1.0000
  H   H4        1.0  0.93695  0.91705  0.91840  1.0000
  H   H5        1.0  0.20735  0.24328  0.02831  1.0000
  H   H6        1.0  0.79265  0.75673  0.97169  1.0000
  H   H7        1.0  0.45935  0.26852  0.90959  1.0000
  H   H8        1.0  0.54065  0.73148  0.09041  1.0000
  H   H9        1.0  0.73343  0.15870  0.75809  1.0000
  H   H10       1.0  0.26657  0.84130  0.24192  1.0000
  H   H11       1.0  0.96125  0.94359  0.61050  1.0000
  H   H12       1.0  0.03875  0.05641  0.38950  1.0000
  H   H13       1.0  0.06199  0.69087  0.51229  1.0000
  H   H14       1.0  0.93802  0.30913  0.48771  1.0000
  H   H15       1.0  0.87783  0.56590  0.56805  1.0000
  H   H16       1.0  0.12217  0.43410  0.43195  1.0000
  H   H17       1.0  0.66226  0.75219  0.38820  1.0000
  H   H18       1.0  0.33774  0.24782  0.61180  1.0000
  H   H19       1.0  0.99524  0.24763  0.77865  1.0000
  H   H20       1.0  0.00476  0.75237  0.22135  1.0000
  H   H21       1.0  0.02448  0.50440  0.77503  1.0000
  H   H22       1.0  0.97552  0.49560  0.22497  1.0000
  H   H23       1.0  0.66864  0.39997  0.34683  1.0000
  H   H24       1.0  0.33136  0.60003  0.65318  1.0000
  H   H25       1.0  0.73566  0.38121  0.73023  1.0000
  H   H26       1.0  0.26434  0.61879  0.26977  1.0000
  H   H27       1.0  0.67594  0.37376  0.61269  1.0000
  H   H28       1.0  0.32406  0.62624  0.38730  1.0000
  C   C1        1.0  0.25243  0.90603  0.94716  1.0000
  C   C2        1.0  0.74757  0.09397  0.05284  1.0000
  C   C3        1.0  0.17913  0.04712  0.00919  1.0000
  C   C4        1.0  0.82087  0.95288  0.99080  1.0000
  C   C5        1.0  0.25904  0.13452  0.98040  1.0000
  C   C6        1.0  0.74096  0.86548  0.01960  1.0000
  C   C7        1.0  0.50803  0.16069  0.86031  1.0000
  C   C8        1.0  0.49197  0.83931  0.13969  1.0000
  C   C9        1.0  0.65968  0.09981  0.77732  1.0000
  C   C10       1.0  0.34032  0.90019  0.22267  1.0000
  C   C11       1.0  0.88473  0.88702  0.63116  1.0000
  C   C12       1.0  0.11527  0.11297  0.36884  1.0000
  C   C13       1.0  0.94111  0.74671  0.57736  1.0000
  C   C14       1.0  0.05889  0.25329  0.42264  1.0000
  C   C15       1.0  0.84020  0.67607  0.60805  1.0000
  C   C16       1.0  0.15980  0.32393  0.39195  1.0000
  C   C17       1.0  0.41313  0.08075  0.89065  1.0000
  C   C18       1.0  0.58687  0.91925  0.10935  1.0000
  C   C19       1.0  0.72767  0.95595  0.71597  1.0000
  C   C20       1.0  0.27233  0.04405  0.28403  1.0000
  C   C21       1.0  0.47711  0.93740  0.83256  1.0000
  C   C22       1.0  0.52289  0.06260  0.16744  1.0000
  C   C23       1.0  0.63563  0.87518  0.74272  1.0000
  C   C24       1.0  0.36437  0.12481  0.25728  1.0000
  C   C25       1.0  0.59019  0.86087  0.43799  1.0000
  C   C26       1.0  0.40981  0.13914  0.56202  1.0000
  C   C27       1.0  0.43843  0.89452  0.52253  1.0000
  C   C28       1.0  0.56158  0.10548  0.47747  1.0000
  C   C29       1.0  0.38022  0.77695  0.53583  1.0000
  C   C30       1.0  0.61978  0.22305  0.46417  1.0000
  C   C31       1.0  0.34699  0.03596  0.58518  1.0000
  C   C32       1.0  0.65302  0.96404  0.41482  1.0000
  C   C33       1.0  0.18364  0.07678  0.67603  1.0000
  C   C34       1.0  0.81637  0.92323  0.32396  1.0000
  C   C35       1.0  0.77172  0.46134  0.90366  1.0000
  C   C36       1.0  0.22828  0.53866  0.09634  1.0000
  C   C37       1.0  0.88870  0.47683  0.95782  1.0000
  C   C38       1.0  0.11130  0.52317  0.04218  1.0000
  C   C39       1.0  0.01293  0.50145  0.87407  1.0000
  C   C40       1.0  0.98707  0.49855  0.12593  1.0000
  C   C41       1.0  0.87643  0.47532  0.08552  1.0000
  C   C42       1.0  0.12357  0.52468  0.91448  1.0000
  C   C43       1.0  0.74955  0.44428  0.17732  1.0000
  C   C44       1.0  0.25045  0.55572  0.82268  1.0000
  N   N1        1.0  0.39628  0.85363  0.86087  1.0000
  N   N2        1.0  0.60372  0.14636  0.13913  1.0000
  N   N3        1.0  0.69249  0.73838  0.68844  1.0000
  N   N4        1.0  0.30751  0.26161  0.31156  1.0000
  O   O1        1.0  0.42441  0.67926  0.61167  1.0000
  O   O2        1.0  0.57559  0.32074  0.38833  1.0000
  O   O3        1.0  0.64872  0.57624  0.90674  1.0000
  O   O4        1.0  0.35128  0.42375  0.09326  1.0000
  O   O5        1.0  0.65722  0.41466  0.13954  1.0000
  O   O6        1.0  0.34278  0.58535  0.86046  1.0000
  O   O7        1.0  0.81444  0.33690  0.84733  1.0000
  O   O8        1.0  0.18556  0.66310  0.15266  1.0000
  O   O9        1.0  0.30497  0.77178  0.46596  1.0000
  O   O10       1.0  0.69503  0.22822  0.53403  1.0000
  O   O11       1.0  0.11050  0.21694  0.72033  1.0000
  O   O12       1.0  0.88950  0.78306  0.27967  1.0000
  O   O13       1.0  0.12460  0.98948  0.70592  1.0000
  O   O14       1.0  0.87540  0.01052  0.29408  1.0000
  O   O15       1.0  0.74568  0.44759  0.29436  1.0000
  O   O16       1.0  0.25432  0.55241  0.70564  1.0000
  O   O17       1.0  0.69105  0.43925  0.66568  1.0000
  O   O18       1.0  0.30895  0.56075  0.33432  1.0000
