data_image0
_chemical_formula_structural       Ag16H8C40O32
_chemical_formula_sum              "Ag16 H8 C40 O32"
_cell_length_a       6.66511
_cell_length_b       9.05577
_cell_length_c       18.9258
_cell_angle_alpha    90
_cell_angle_beta     89.9998
_cell_angle_gamma    100.855

_space_group_name_H-M_alt    "P 1"
_space_group_IT_number       1

loop_
  _space_group_symop_operation_xyz
  'x, y, z'

loop_
  _atom_site_type_symbol
  _atom_site_label
  _atom_site_symmetry_multiplicity
  _atom_site_fract_x
  _atom_site_fract_y
  _atom_site_fract_z
  _atom_site_occupancy
  Ag  Ag1       1.0  0.83976  0.30900  0.24104  1.0000
  Ag  Ag2       1.0  0.66024  0.19099  0.74104  1.0000
  Ag  Ag3       1.0  0.16023  0.69101  0.75896  1.0000
  Ag  Ag4       1.0  0.33976  0.80900  0.25896  1.0000
  Ag  Ag5       1.0  0.90741  0.00473  0.25750  1.0000
  Ag  Ag6       1.0  0.59259  0.49526  0.75750  1.0000
  Ag  Ag7       1.0  0.09259  0.99527  0.74250  1.0000
  Ag  Ag8       1.0  0.40741  0.50473  0.24250  1.0000
  Ag  Ag9       1.0  0.06117  0.87409  0.10823  1.0000
  Ag  Ag10      1.0  0.43883  0.62591  0.60823  1.0000
  Ag  Ag11      1.0  0.93882  0.12591  0.89177  1.0000
  Ag  Ag12      1.0  0.56117  0.37409  0.39177  1.0000
  Ag  Ag13      1.0  0.88385  0.57061  0.15138  1.0000
  Ag  Ag14      1.0  0.61614  0.92939  0.65138  1.0000
  Ag  Ag15      1.0  0.11614  0.42939  0.84862  1.0000
  Ag  Ag16      1.0  0.38385  0.07061  0.34862  1.0000
  H   H1        1.0  0.75111  0.35681  0.48340  1.0000
  H   H2        1.0  0.74888  0.14318  0.98340  1.0000
  H   H3        1.0  0.24889  0.64321  0.51660  1.0000
  H   H4        1.0  0.25110  0.85680  0.01660  1.0000
  H   H5        1.0  0.23949  0.10335  0.48193  1.0000
  H   H6        1.0  0.26053  0.39665  0.98194  1.0000
  H   H7        1.0  0.76052  0.89667  0.51806  1.0000
  H   H8        1.0  0.73949  0.60335  0.01807  1.0000
  C   C1        1.0  0.87630  0.31432  0.50843  1.0000
  C   C2        1.0  0.62370  0.18567  0.00843  1.0000
  C   C3        1.0  0.12370  0.68569  0.49157  1.0000
  C   C4        1.0  0.37629  0.81432  0.99157  1.0000
  C   C5        1.0  0.91583  0.35595  0.57861  1.0000
  C   C6        1.0  0.58417  0.14405  0.07861  1.0000
  C   C7        1.0  0.08418  0.64406  0.42139  1.0000
  C   C8        1.0  0.41582  0.85594  0.92139  1.0000
  C   C9        1.0  0.07322  0.30431  0.61541  1.0000
  C   C10       1.0  0.42679  0.19569  0.11542  1.0000
  C   C11       1.0  0.92679  0.69570  0.38459  1.0000
  C   C12       1.0  0.57321  0.80430  0.88459  1.0000
  C   C13       1.0  0.18947  0.21370  0.57828  1.0000
  C   C14       1.0  0.31054  0.28630  0.07829  1.0000
  C   C15       1.0  0.81054  0.78631  0.42171  1.0000
  C   C16       1.0  0.68946  0.71369  0.92171  1.0000
  C   C17       1.0  0.14695  0.17506  0.50754  1.0000
  C   C18       1.0  0.35306  0.32494  0.00755  1.0000
  C   C19       1.0  0.85306  0.82495  0.49245  1.0000
  C   C20       1.0  0.64694  0.67506  0.99245  1.0000
  C   C21       1.0  0.98848  0.22475  0.47151  1.0000
  C   C22       1.0  0.51152  0.27525  0.97152  1.0000
  C   C23       1.0  0.01153  0.77526  0.52848  1.0000
  C   C24       1.0  0.48847  0.72475  0.02848  1.0000
  C   C25       1.0  0.93872  0.18598  0.39601  1.0000
  C   C26       1.0  0.56128  0.31403  0.89601  1.0000
  C   C27       1.0  0.06129  0.81403  0.60399  1.0000
  C   C28       1.0  0.43871  0.68597  0.10399  1.0000
  C   C29       1.0  0.78608  0.45695  0.61087  1.0000
  C   C30       1.0  0.71392  0.04304  0.11087  1.0000
  C   C31       1.0  0.21392  0.54306  0.38913  1.0000
  C   C32       1.0  0.28607  0.95694  0.88913  1.0000
  C   C33       1.0  0.11727  0.34968  0.69182  1.0000
  C   C34       1.0  0.38274  0.15033  0.19182  1.0000
  C   C35       1.0  0.88274  0.65033  0.30818  1.0000
  C   C36       1.0  0.61726  0.84967  0.80818  1.0000
  C   C37       1.0  0.35729  0.15333  0.61459  1.0000
  C   C38       1.0  0.14273  0.34668  0.11460  1.0000
  C   C39       1.0  0.64272  0.84667  0.38540  1.0000
  C   C40       1.0  0.85727  0.65332  0.88541  1.0000
  O   O1        1.0  0.79074  0.23307  0.36553  1.0000
  O   O2        1.0  0.70926  0.26693  0.86553  1.0000
  O   O3        1.0  0.20925  0.76693  0.63447  1.0000
  O   O4        1.0  0.29074  0.73308  0.13447  1.0000
  O   O5        1.0  0.04438  0.10460  0.36279  1.0000
  O   O6        1.0  0.45562  0.39541  0.86279  1.0000
  O   O7        1.0  0.95562  0.89541  0.63721  1.0000
  O   O8        1.0  0.54438  0.60460  0.13721  1.0000
  O   O9        1.0  0.64389  0.48848  0.57176  1.0000
  O   O10       1.0  0.85610  0.01151  0.07176  1.0000
  O   O11       1.0  0.35611  0.51153  0.42824  1.0000
  O   O12       1.0  0.14388  0.98847  0.92824  1.0000
  O   O13       1.0  0.82762  0.50428  0.67328  1.0000
  O   O14       1.0  0.67237  0.99572  0.17329  1.0000
  O   O15       1.0  0.17237  0.49572  0.32672  1.0000
  O   O16       1.0  0.32762  0.00428  0.82672  1.0000
  O   O17       1.0  0.24934  0.46815  0.70324  1.0000
  O   O18       1.0  0.25066  0.03185  0.20325  1.0000
  O   O19       1.0  0.75066  0.53185  0.29676  1.0000
  O   O20       1.0  0.74934  0.96815  0.79676  1.0000
  O   O21       1.0  0.01824  0.27222  0.74159  1.0000
  O   O22       1.0  0.48177  0.22778  0.24159  1.0000
  O   O23       1.0  0.98176  0.72777  0.25841  1.0000
  O   O24       1.0  0.51824  0.77222  0.75841  1.0000
  O   O25       1.0  0.37762  0.18392  0.68083  1.0000
  O   O26       1.0  0.12240  0.31608  0.18084  1.0000
  O   O27       1.0  0.62239  0.81607  0.31916  1.0000
  O   O28       1.0  0.87760  0.68391  0.81917  1.0000
  O   O29       1.0  0.46068  0.07467  0.57993  1.0000
  O   O30       1.0  0.03934  0.42534  0.07994  1.0000
  O   O31       1.0  0.53934  0.92534  0.42006  1.0000
  O   O32       1.0  0.96066  0.57466  0.92007  1.0000
