data_image0
_chemical_formula_structural       Co2H38C52N6O10
_chemical_formula_sum              "Co2 H38 C52 N6 O10"
_cell_length_a       8.71945
_cell_length_b       8.74241
_cell_length_c       15.5
_cell_angle_alpha    99.4502
_cell_angle_beta     89.8675
_cell_angle_gamma    112.114

_space_group_name_H-M_alt    "P 1"
_space_group_IT_number       1

loop_
  _space_group_symop_operation_xyz
  'x, y, z'

loop_
  _atom_site_type_symbol
  _atom_site_label
  _atom_site_symmetry_multiplicity
  _atom_site_fract_x
  _atom_site_fract_y
  _atom_site_fract_z
  _atom_site_occupancy
  Co  Co1       1.0  0.33606  0.87364  0.62550  1.0000
  Co  Co2       1.0  0.66394  0.12636  0.37450  1.0000
  H   H1        1.0  0.77646  0.43864  0.65513  1.0000
  H   H2        1.0  0.22353  0.56135  0.34487  1.0000
  H   H3        1.0  0.23764  0.96369  0.44661  1.0000
  H   H4        1.0  0.76236  0.03632  0.55340  1.0000
  H   H5        1.0  0.98159  0.86486  0.34659  1.0000
  H   H6        1.0  0.01840  0.13515  0.65342  1.0000
  H   H7        1.0  0.72498  0.63492  0.38277  1.0000
  H   H8        1.0  0.27502  0.36508  0.61723  1.0000
  H   H9        1.0  0.73185  0.52131  0.51938  1.0000
  H   H10       1.0  0.26814  0.47869  0.48062  1.0000
  H   H11       1.0  0.80121  0.31334  0.81229  1.0000
  H   H12       1.0  0.19879  0.68666  0.18771  1.0000
  H   H13       1.0  0.99869  0.37360  0.94129  1.0000
  H   H14       1.0  0.00131  0.62640  0.05872  1.0000
  H   H15       1.0  0.27725  0.59685  0.95284  1.0000
  H   H16       1.0  0.72276  0.40315  0.04716  1.0000
  H   H17       1.0  0.37862  0.76105  0.83161  1.0000
  H   H18       1.0  0.62138  0.23895  0.16839  1.0000
  H   H19       1.0  0.31269  0.09049  0.81112  1.0000
  H   H20       1.0  0.68731  0.90951  0.18887  1.0000
  H   H21       1.0  0.32811  0.21261  0.96685  1.0000
  H   H22       1.0  0.67189  0.78739  0.03314  1.0000
  H   H23       1.0  0.66402  0.69007  0.91176  1.0000
  H   H24       1.0  0.33599  0.30993  0.08823  1.0000
  H   H25       1.0  0.64440  0.56674  0.75733  1.0000
  H   H26       1.0  0.35561  0.43326  0.24267  1.0000
  H   H27       1.0  0.61373  0.05076  0.88117  1.0000
  H   H28       1.0  0.38627  0.94924  0.11882  1.0000
  H   H29       1.0  0.78093  0.09925  0.01776  1.0000
  H   H30       1.0  0.21906  0.90076  0.98224  1.0000
  H   H31       1.0  0.09499  0.87802  0.87479  1.0000
  H   H32       1.0  0.90501  0.12198  0.12521  1.0000
  H   H33       1.0  0.93145  0.84136  0.73873  1.0000
  H   H34       1.0  0.06855  0.15864  0.26127  1.0000
  H   H35       1.0  0.45660  0.75969  0.47426  1.0000
  H   H36       1.0  0.54340  0.24030  0.52574  1.0000
  H   H37       1.0  0.56733  0.79364  0.57308  1.0000
  H   H38       1.0  0.43267  0.20636  0.42692  1.0000
  C   C1        1.0  0.12352  0.86606  0.46051  1.0000
  C   C2        1.0  0.87647  0.13395  0.53949  1.0000
  C   C3        1.0  0.98058  0.80981  0.40478  1.0000
  C   C4        1.0  0.01941  0.19020  0.59523  1.0000
  C   C5        1.0  0.83803  0.68327  0.42530  1.0000
  C   C6        1.0  0.16197  0.31673  0.57470  1.0000
  C   C7        1.0  0.84140  0.61902  0.50134  1.0000
  C   C8        1.0  0.15860  0.38097  0.49866  1.0000
  C   C9        1.0  0.98906  0.68293  0.55399  1.0000
  C   C10       1.0  0.01093  0.31707  0.44602  1.0000
  C   C11       1.0  0.01202  0.62992  0.63510  1.0000
  C   C12       1.0  0.98798  0.37008  0.36490  1.0000
  C   C13       1.0  0.97998  0.50781  0.75153  1.0000
  C   C14       1.0  0.02002  0.49218  0.24847  1.0000
  C   C15       1.0  0.92491  0.41091  0.81697  1.0000
  C   C16       1.0  0.07509  0.58908  0.18303  1.0000
  C   C17       1.0  0.03604  0.44612  0.88865  1.0000
  C   C18       1.0  0.96396  0.55388  0.11136  1.0000
  C   C19       1.0  0.19627  0.57276  0.89469  1.0000
  C   C20       1.0  0.80373  0.42724  0.10531  1.0000
  C   C21       1.0  0.25370  0.66578  0.82830  1.0000
  C   C22       1.0  0.74629  0.33422  0.17170  1.0000
  C   C23       1.0  0.14315  0.63197  0.75574  1.0000
  C   C24       1.0  0.85685  0.36803  0.24426  1.0000
  C   C25       1.0  0.46818  0.23991  0.67994  1.0000
  C   C26       1.0  0.53182  0.76009  0.32006  1.0000
  C   C27       1.0  0.47788  0.31907  0.77350  1.0000
  C   C28       1.0  0.52212  0.68093  0.22649  1.0000
  C   C29       1.0  0.38911  0.22205  0.83414  1.0000
  C   C30       1.0  0.61090  0.77796  0.16585  1.0000
  C   C31       1.0  0.39920  0.29206  0.92202  1.0000
  C   C32       1.0  0.60081  0.70794  0.07798  1.0000
  C   C33       1.0  0.49730  0.46228  0.95327  1.0000
  C   C34       1.0  0.50272  0.53772  0.04673  1.0000
  C   C35       1.0  0.58653  0.55799  0.89164  1.0000
  C   C36       1.0  0.41348  0.44201  0.10836  1.0000
  C   C37       1.0  0.57643  0.48840  0.80353  1.0000
  C   C38       1.0  0.42358  0.51160  0.19646  1.0000
  C   C39       1.0  0.65450  0.89898  0.71733  1.0000
  C   C40       1.0  0.34549  0.10102  0.28267  1.0000
  C   C41       1.0  0.75993  0.93949  0.80080  1.0000
  C   C42       1.0  0.24007  0.06051  0.19920  1.0000
  C   C43       1.0  0.72017  0.01374  0.88039  1.0000
  C   C44       1.0  0.27982  0.98626  0.11961  1.0000
  C   C45       1.0  0.81513  0.03982  0.95754  1.0000
  C   C46       1.0  0.18487  0.96018  0.04247  1.0000
  C   C47       1.0  0.95149  0.98995  0.95877  1.0000
  C   C48       1.0  0.04851  0.01006  0.04123  1.0000
  C   C49       1.0  0.99142  0.91896  0.87794  1.0000
  C   C50       1.0  0.00858  0.08105  0.12206  1.0000
  C   C51       1.0  0.89890  0.89605  0.80070  1.0000
  C   C52       1.0  0.10109  0.10395  0.19930  1.0000
  N   N1        1.0  0.12914  0.80388  0.53348  1.0000
  N   N2        1.0  0.87085  0.19612  0.46652  1.0000
  N   N3        1.0  0.15923  0.70512  0.68162  1.0000
  N   N4        1.0  0.84077  0.29488  0.31838  1.0000
  N   N5        1.0  0.90154  0.51095  0.67474  1.0000
  N   N6        1.0  0.09846  0.48905  0.32526  1.0000
  O   O1        1.0  0.34484  0.10229  0.65307  1.0000
  O   O2        1.0  0.65516  0.89771  0.34693  1.0000
  O   O3        1.0  0.57861  0.31185  0.62958  1.0000
  O   O4        1.0  0.42139  0.68815  0.37042  1.0000
  O   O5        1.0  0.52726  0.93921  0.72136  1.0000
  O   O6        1.0  0.47274  0.06080  0.27864  1.0000
  O   O7        1.0  0.69646  0.82518  0.64913  1.0000
  O   O8        1.0  0.30354  0.17482  0.35087  1.0000
  O   O9        1.0  0.46361  0.78963  0.54021  1.0000
  O   O10       1.0  0.53638  0.21037  0.45979  1.0000
