data_image0
_chemical_formula_structural       Ni4P4H16C4O16
_chemical_formula_sum              "Ni4 P4 H16 C4 O16"
_cell_length_a       4.69566
_cell_length_b       5.59537
_cell_length_c       15.3242
_cell_angle_alpha    98.8354
_cell_angle_beta     90
_cell_angle_gamma    90

_space_group_name_H-M_alt    "P 1"
_space_group_IT_number       1

loop_
  _space_group_symop_operation_xyz
  'x, y, z'

loop_
  _atom_site_type_symbol
  _atom_site_label
  _atom_site_symmetry_multiplicity
  _atom_site_fract_x
  _atom_site_fract_y
  _atom_site_fract_z
  _atom_site_occupancy
  Ni  Ni1       1.0  0.89131  0.49474  0.73836  1.0000
  Ni  Ni2       1.0  0.39130  0.00527  0.76164  1.0000
  Ni  Ni3       1.0  0.10869  0.50527  0.26164  1.0000
  Ni  Ni4       1.0  0.60869  0.99473  0.23836  1.0000
  P   P1        1.0  0.46731  0.54685  0.85966  1.0000
  P   P2        1.0  0.96731  0.95315  0.64034  1.0000
  P   P3        1.0  0.53272  0.45316  0.14034  1.0000
  P   P4        1.0  0.03272  0.04684  0.35966  1.0000
  H   H1        1.0  0.46882  0.32104  0.64223  1.0000
  H   H2        1.0  0.96882  0.17896  0.85777  1.0000
  H   H3        1.0  0.53118  0.67896  0.35777  1.0000
  H   H4        1.0  0.03118  0.82104  0.14223  1.0000
  H   H5        1.0  0.48426  0.59988  0.64021  1.0000
  H   H6        1.0  0.98426  0.90012  0.85979  1.0000
  H   H7        1.0  0.51574  0.40012  0.35979  1.0000
  H   H8        1.0  0.01574  0.09988  0.14021  1.0000
  H   H9        1.0  0.78927  0.61339  0.97918  1.0000
  H   H10       1.0  0.28927  0.88661  0.52082  1.0000
  H   H11       1.0  0.21073  0.38661  0.02082  1.0000
  H   H12       1.0  0.71073  0.11339  0.47918  1.0000
  H   H13       1.0  0.46956  0.77719  0.00344  1.0000
  H   H14       1.0  0.96957  0.72280  0.49656  1.0000
  H   H15       1.0  0.53043  0.22281  0.99656  1.0000
  H   H16       1.0  0.03043  0.27719  0.50344  1.0000
  C   C1        1.0  0.55599  0.59929  0.97538  1.0000
  C   C2        1.0  0.05599  0.90071  0.52462  1.0000
  C   C3        1.0  0.44400  0.40071  0.02462  1.0000
  C   C4        1.0  0.94401  0.09929  0.47538  1.0000
  O   O1        1.0  0.61682  0.74899  0.81529  1.0000
  O   O2        1.0  0.11682  0.75101  0.68471  1.0000
  O   O3        1.0  0.38318  0.25101  0.18471  1.0000
  O   O4        1.0  0.88317  0.24899  0.31529  1.0000
  O   O5        1.0  0.61690  0.30579  0.81600  1.0000
  O   O6        1.0  0.11690  0.19421  0.68400  1.0000
  O   O7        1.0  0.38310  0.69422  0.18400  1.0000
  O   O8        1.0  0.88310  0.80578  0.31600  1.0000
  O   O9        1.0  0.14497  0.54184  0.84933  1.0000
  O   O10       1.0  0.64497  0.95816  0.65067  1.0000
  O   O11       1.0  0.85500  0.45817  0.15067  1.0000
  O   O12       1.0  0.35500  0.04183  0.34933  1.0000
  O   O13       1.0  0.60236  0.45244  0.63437  1.0000
  O   O14       1.0  0.10236  0.04756  0.86563  1.0000
  O   O15       1.0  0.39764  0.54756  0.36563  1.0000
  O   O16       1.0  0.89764  0.95244  0.13437  1.0000
