data_image0
_chemical_formula_structural       Mn2P4H12C4O12
_chemical_formula_sum              "Mn2 P4 H12 C4 O12"
_cell_length_a       5.46453
_cell_length_b       7.69063
_cell_length_c       8.06027
_cell_angle_alpha    83.7198
_cell_angle_beta     75.9826
_cell_angle_gamma    80.284

_space_group_name_H-M_alt    "P 1"
_space_group_IT_number       1

loop_
  _space_group_symop_operation_xyz
  'x, y, z'

loop_
  _atom_site_type_symbol
  _atom_site_label
  _atom_site_symmetry_multiplicity
  _atom_site_fract_x
  _atom_site_fract_y
  _atom_site_fract_z
  _atom_site_occupancy
  Mn  Mn1       1.0  0.20076  0.79560  0.99339  1.0000
  Mn  Mn2       1.0  0.79924  0.20439  0.00662  1.0000
  P   P1        1.0  0.36288  0.40967  0.77426  1.0000
  P   P2        1.0  0.63713  0.59034  0.22573  1.0000
  P   P3        1.0  0.24607  0.08768  0.25519  1.0000
  P   P4        1.0  0.75392  0.91232  0.74481  1.0000
  H   H1        1.0  0.21833  0.47939  0.51692  1.0000
  H   H2        1.0  0.78169  0.52062  0.48308  1.0000
  H   H3        1.0  0.47198  0.30458  0.49398  1.0000
  H   H4        1.0  0.52804  0.69543  0.50602  1.0000
  H   H5        1.0  0.29366  0.13520  0.81530  1.0000
  H   H6        1.0  0.70634  0.86480  0.18470  1.0000
  H   H7        1.0  0.26142  0.98664  0.54696  1.0000
  H   H8        1.0  0.73857  0.01333  0.45304  1.0000
  H   H9        1.0  0.17181  0.82959  0.43448  1.0000
  H   H10       1.0  0.82818  0.17039  0.56551  1.0000
  H   H11       1.0  0.02459  0.35119  0.22888  1.0000
  H   H12       1.0  0.97540  0.64881  0.77114  1.0000
  C   C1        1.0  0.40802  0.43593  0.54372  1.0000
  C   C2        1.0  0.59201  0.56409  0.45627  1.0000
  C   C3        1.0  0.14111  0.96988  0.46014  1.0000
  C   C4        1.0  0.85887  0.03010  0.53986  1.0000
  O   O1        1.0  0.20555  0.57968  0.84813  1.0000
  O   O2        1.0  0.79446  0.42033  0.15186  1.0000
  O   O3        1.0  0.61068  0.34496  0.82842  1.0000
  O   O4        1.0  0.38933  0.65504  0.17158  1.0000
  O   O5        1.0  0.18292  0.25753  0.82566  1.0000
  O   O6        1.0  0.81708  0.74247  0.17434  1.0000
  O   O7        1.0  0.09957  0.03816  0.13107  1.0000
  O   O8        1.0  0.90043  0.96185  0.86893  1.0000
  O   O9        1.0  0.17237  0.29133  0.28244  1.0000
  O   O10       1.0  0.82761  0.70866  0.71759  1.0000
  O   O11       1.0  0.53832  0.05047  0.19882  1.0000
  O   O12       1.0  0.46167  0.94954  0.80118  1.0000
