data_image0
_chemical_formula_structural       Cu4H20C20N12O20
_chemical_formula_sum              "Cu4 H20 C20 N12 O20"
_cell_length_a       6.70884
_cell_length_b       7.79178
_cell_length_c       14.9314
_cell_angle_alpha    89.9999
_cell_angle_beta     90
_cell_angle_gamma    89.9999

_space_group_name_H-M_alt    "P 1"
_space_group_IT_number       1

loop_
  _space_group_symop_operation_xyz
  'x, y, z'

loop_
  _atom_site_type_symbol
  _atom_site_label
  _atom_site_symmetry_multiplicity
  _atom_site_fract_x
  _atom_site_fract_y
  _atom_site_fract_z
  _atom_site_occupancy
  Cu  Cu1       1.0  0.75000  0.61610  0.32007  1.0000
  Cu  Cu2       1.0  0.25000  0.88390  0.82007  1.0000
  Cu  Cu3       1.0  0.25000  0.38390  0.67993  1.0000
  Cu  Cu4       1.0  0.75000  0.11610  0.17993  1.0000
  H   H1        1.0  0.75000  0.65626  0.10705  1.0000
  H   H2        1.0  0.25000  0.84374  0.60706  1.0000
  H   H3        1.0  0.25000  0.34373  0.89294  1.0000
  H   H4        1.0  0.75000  0.15626  0.39294  1.0000
  H   H5        1.0  0.06379  0.54639  0.17854  1.0000
  H   H6        1.0  0.93621  0.95361  0.67854  1.0000
  H   H7        1.0  0.56379  0.45362  0.82147  1.0000
  H   H8        1.0  0.43621  0.04639  0.32146  1.0000
  H   H9        1.0  0.93621  0.45362  0.82147  1.0000
  H   H10       1.0  0.06379  0.04639  0.32146  1.0000
  H   H11       1.0  0.43621  0.54639  0.17854  1.0000
  H   H12       1.0  0.56379  0.95361  0.67854  1.0000
  H   H13       1.0  0.06179  0.64905  0.45336  1.0000
  H   H14       1.0  0.93821  0.85095  0.95336  1.0000
  H   H15       1.0  0.56179  0.35095  0.54664  1.0000
  H   H16       1.0  0.43821  0.14905  0.04663  1.0000
  H   H17       1.0  0.93821  0.35095  0.54664  1.0000
  H   H18       1.0  0.06179  0.14905  0.04663  1.0000
  H   H19       1.0  0.43821  0.64905  0.45336  1.0000
  H   H20       1.0  0.56179  0.85095  0.95336  1.0000
  C   C1        1.0  0.75000  0.78323  0.14027  1.0000
  C   C2        1.0  0.25000  0.71676  0.64027  1.0000
  C   C3        1.0  0.24999  0.21676  0.85973  1.0000
  C   C4        1.0  0.75000  0.28323  0.35973  1.0000
  C   C5        1.0  0.14653  0.57160  0.23988  1.0000
  C   C6        1.0  0.85347  0.92840  0.73988  1.0000
  C   C7        1.0  0.64653  0.42841  0.76013  1.0000
  C   C8        1.0  0.35347  0.07160  0.26012  1.0000
  C   C9        1.0  0.85347  0.42841  0.76012  1.0000
  C   C10       1.0  0.14653  0.07160  0.26012  1.0000
  C   C11       1.0  0.35347  0.57160  0.23988  1.0000
  C   C12       1.0  0.64653  0.92840  0.73988  1.0000
  C   C13       1.0  0.14619  0.62847  0.39211  1.0000
  C   C14       1.0  0.85381  0.87153  0.89211  1.0000
  C   C15       1.0  0.64619  0.37153  0.60790  1.0000
  C   C16       1.0  0.35381  0.12847  0.10789  1.0000
  C   C17       1.0  0.85381  0.37153  0.60790  1.0000
  C   C18       1.0  0.14619  0.12847  0.10789  1.0000
  C   C19       1.0  0.35381  0.62847  0.39211  1.0000
  C   C20       1.0  0.64619  0.87153  0.89211  1.0000
  N   N1        1.0  0.04512  0.60260  0.31598  1.0000
  N   N2        1.0  0.95488  0.89739  0.81598  1.0000
  N   N3        1.0  0.54511  0.39740  0.68403  1.0000
  N   N4        1.0  0.45489  0.10261  0.18402  1.0000
  N   N5        1.0  0.95489  0.39740  0.68403  1.0000
  N   N6        1.0  0.04512  0.10261  0.18402  1.0000
  N   N7        1.0  0.45488  0.60260  0.31598  1.0000
  N   N8        1.0  0.54511  0.89740  0.81598  1.0000
  N   N9        1.0  0.75000  0.87365  0.49541  1.0000
  N   N10       1.0  0.25000  0.62635  0.99541  1.0000
  N   N11       1.0  0.25000  0.12635  0.50459  1.0000
  N   N12       1.0  0.75000  0.37365  0.00459  1.0000
  O   O1        1.0  0.75000  0.79566  0.22548  1.0000
  O   O2        1.0  0.25000  0.70434  0.72548  1.0000
  O   O3        1.0  0.25000  0.20433  0.77452  1.0000
  O   O4        1.0  0.75000  0.29566  0.27452  1.0000
  O   O5        1.0  0.75000  0.91645  0.09137  1.0000
  O   O6        1.0  0.25000  0.58355  0.59137  1.0000
  O   O7        1.0  0.25000  0.08354  0.90863  1.0000
  O   O8        1.0  0.75000  0.41645  0.40863  1.0000
  O   O9        1.0  0.75000  0.86703  0.40916  1.0000
  O   O10       1.0  0.25000  0.63297  0.90916  1.0000
  O   O11       1.0  0.25000  0.13297  0.59084  1.0000
  O   O12       1.0  0.75000  0.36703  0.09084  1.0000
  O   O13       1.0  0.75000  0.73640  0.54027  1.0000
  O   O14       1.0  0.25000  0.76360  0.04027  1.0000
  O   O15       1.0  0.25000  0.26360  0.45973  1.0000
  O   O16       1.0  0.75000  0.23640  0.95973  1.0000
  O   O17       1.0  0.75000  0.01834  0.53316  1.0000
  O   O18       1.0  0.25000  0.48165  0.03316  1.0000
  O   O19       1.0  0.25000  0.98166  0.46684  1.0000
  O   O20       1.0  0.75000  0.51835  0.96684  1.0000
