data_image0
_chemical_formula_structural       Pr2H14C14N4O16
_chemical_formula_sum              "Pr2 H14 C14 N4 O16"
_cell_length_a       7.94592
_cell_length_b       8.73801
_cell_length_c       8.6974
_cell_angle_alpha    115.755
_cell_angle_beta     100.494
_cell_angle_gamma    96.7876

_space_group_name_H-M_alt    "P 1"
_space_group_IT_number       1

loop_
  _space_group_symop_operation_xyz
  'x, y, z'

loop_
  _atom_site_type_symbol
  _atom_site_label
  _atom_site_symmetry_multiplicity
  _atom_site_fract_x
  _atom_site_fract_y
  _atom_site_fract_z
  _atom_site_occupancy
  Pr  Pr1       1.0  0.16053  0.91617  0.17484  1.0000
  Pr  Pr2       1.0  0.83947  0.08383  0.82516  1.0000
  H   H1        1.0  0.17545  0.56914  0.45696  1.0000
  H   H2        1.0  0.82455  0.43086  0.54304  1.0000
  H   H3        1.0  0.52775  0.41378  0.74586  1.0000
  H   H4        1.0  0.47225  0.58622  0.25414  1.0000
  H   H5        1.0  0.48928  0.64880  0.03044  1.0000
  H   H6        1.0  0.51072  0.35120  0.96956  1.0000
  H   H7        1.0  0.84035  0.87864  0.33751  1.0000
  H   H8        1.0  0.15965  0.12136  0.66249  1.0000
  H   H9        1.0  0.97665  0.78867  0.38881  1.0000
  H   H10       1.0  0.02335  0.21133  0.61119  1.0000
  H   H11       1.0  0.32601  0.31058  0.37808  1.0000
  H   H12       1.0  0.67398  0.68942  0.62192  1.0000
  H   H13       1.0  0.22542  0.26998  0.18431  1.0000
  H   H14       1.0  0.77458  0.73002  0.81568  1.0000
  C   C1        1.0  0.10542  0.83356  0.74274  1.0000
  C   C2        1.0  0.89458  0.16644  0.25726  1.0000
  C   C3        1.0  0.22516  0.71357  0.74190  1.0000
  C   C4        1.0  0.77484  0.28643  0.25810  1.0000
  C   C5        1.0  0.24503  0.58447  0.58491  1.0000
  C   C6        1.0  0.75497  0.41553  0.41509  1.0000
  C   C7        1.0  0.43732  0.49816  0.74402  1.0000
  C   C8        1.0  0.56267  0.50183  0.25598  1.0000
  C   C9        1.0  0.41713  0.62775  0.90132  1.0000
  C   C10       1.0  0.58287  0.37225  0.09868  1.0000
  C   C11       1.0  0.44283  0.02556  0.56690  1.0000
  C   C12       1.0  0.55717  0.97444  0.43309  1.0000
  C   C13       1.0  0.07223  0.49510  0.07136  1.0000
  C   C14       1.0  0.92778  0.50491  0.92864  1.0000
  N   N1        1.0  0.30784  0.73220  0.90026  1.0000
  N   N2        1.0  0.69216  0.26780  0.09974  1.0000
  N   N3        1.0  0.34864  0.47465  0.58627  1.0000
  N   N4        1.0  0.65136  0.52535  0.41373  1.0000
  O   O1        1.0  0.10424  0.95406  0.89477  1.0000
  O   O2        1.0  0.89576  0.04594  0.10523  1.0000
  O   O3        1.0  0.00831  0.81105  0.60035  1.0000
  O   O4        1.0  0.99169  0.18894  0.39965  1.0000
  O   O5        1.0  0.28457  0.02482  0.50532  1.0000
  O   O6        1.0  0.71544  0.97517  0.49468  1.0000
  O   O7        1.0  0.51422  0.06420  0.72469  1.0000
  O   O8        1.0  0.48578  0.93581  0.27532  1.0000
  O   O9        1.0  0.19104  0.63075  0.17249  1.0000
  O   O10       1.0  0.80897  0.36925  0.82751  1.0000
  O   O11       1.0  0.05886  0.35084  0.07587  1.0000
  O   O12       1.0  0.94114  0.64916  0.92412  1.0000
  O   O13       1.0  0.92389  0.80706  0.28771  1.0000
  O   O14       1.0  0.07611  0.19294  0.71229  1.0000
  O   O15       1.0  0.29686  0.22074  0.24924  1.0000
  O   O16       1.0  0.70314  0.77926  0.75076  1.0000
