data_image0
_chemical_formula_structural       Er2H14C14N4O16
_chemical_formula_sum              "Er2 H14 C14 N4 O16"
_cell_length_a       7.75236
_cell_length_b       8.57973
_cell_length_c       8.51818
_cell_angle_alpha    116.059
_cell_angle_beta     101.665
_cell_angle_gamma    97.7428

_space_group_name_H-M_alt    "P 1"
_space_group_IT_number       1

loop_
  _space_group_symop_operation_xyz
  'x, y, z'

loop_
  _atom_site_type_symbol
  _atom_site_label
  _atom_site_symmetry_multiplicity
  _atom_site_fract_x
  _atom_site_fract_y
  _atom_site_fract_z
  _atom_site_occupancy
  Er  Er1       1.0  0.66362  0.41072  0.16626  1.0000
  Er  Er2       1.0  0.33639  0.58928  0.83374  1.0000
  H   H1        1.0  0.32360  0.93617  0.55205  1.0000
  H   H2        1.0  0.67640  0.06383  0.44795  1.0000
  H   H3        1.0  0.96119  0.08093  0.24220  1.0000
  H   H4        1.0  0.03880  0.91907  0.75780  1.0000
  H   H5        1.0  0.00082  0.83930  0.95281  1.0000
  H   H6        1.0  0.99918  0.16070  0.04718  1.0000
  H   H7        1.0  0.72725  0.75333  0.18043  1.0000
  H   H8        1.0  0.27276  0.24666  0.81957  1.0000
  H   H9        1.0  0.83004  0.79953  0.38212  1.0000
  H   H10       1.0  0.16996  0.20046  0.61788  1.0000
  H   H11       1.0  0.34794  0.38949  0.32624  1.0000
  H   H12       1.0  0.65205  0.61051  0.67375  1.0000
  H   H13       1.0  0.48007  0.29190  0.37552  1.0000
  H   H14       1.0  0.51993  0.70810  0.62448  1.0000
  C   C1        1.0  0.40097  0.67149  0.26611  1.0000
  C   C2        1.0  0.59904  0.32852  0.73390  1.0000
  C   C3        1.0  0.27600  0.78762  0.25934  1.0000
  C   C4        1.0  0.72401  0.21239  0.74066  1.0000
  C   C5        1.0  0.25319  0.91838  0.41864  1.0000
  C   C6        1.0  0.74681  0.08162  0.58135  1.0000
  C   C7        1.0  0.05550  0.99854  0.24741  1.0000
  C   C8        1.0  0.94450  0.00146  0.75259  1.0000
  C   C9        1.0  0.07703  0.86621  0.08786  1.0000
  C   C10       1.0  0.92296  0.13379  0.91213  1.0000
  C   C11       1.0  0.57436  0.99942  0.07611  1.0000
  C   C12       1.0  0.42565  0.00058  0.92389  1.0000
  C   C13       1.0  0.05986  0.47706  0.43545  1.0000
  C   C14       1.0  0.94014  0.52294  0.56455  1.0000
  N   N1        1.0  0.19235  0.76505  0.09402  1.0000
  N   N2        1.0  0.80765  0.23496  0.90598  1.0000
  N   N3        1.0  0.14648  0.02684  0.41251  1.0000
  N   N4        1.0  0.85352  0.97315  0.58748  1.0000
  O   O1        1.0  0.40798  0.54977  0.11136  1.0000
  O   O2        1.0  0.59202  0.45024  0.88865  1.0000
  O   O3        1.0  0.49544  0.69982  0.41782  1.0000
  O   O4        1.0  0.50456  0.30018  0.58219  1.0000
  O   O5        1.0  0.69619  0.14386  0.18200  1.0000
  O   O6        1.0  0.30381  0.85614  0.81801  1.0000
  O   O7        1.0  0.56112  0.85352  0.08296  1.0000
  O   O8        1.0  0.43889  0.14648  0.91704  1.0000
  O   O9        1.0  0.98793  0.44240  0.27314  1.0000
  O   O10       1.0  0.01207  0.55760  0.72686  1.0000
  O   O11       1.0  0.22159  0.47721  0.50411  1.0000
  O   O12       1.0  0.77841  0.52279  0.49589  1.0000
  O   O13       1.0  0.79823  0.70397  0.24895  1.0000
  O   O14       1.0  0.20177  0.29603  0.75105  1.0000
  O   O15       1.0  0.42755  0.31321  0.27278  1.0000
  O   O16       1.0  0.57245  0.68679  0.72721  1.0000
