data_image0
_chemical_formula_structural       Mn2H20C20N8O8
_chemical_formula_sum              "Mn2 H20 C20 N8 O8"
_cell_length_a       5.08543
_cell_length_b       8.32453
_cell_length_c       12.2321
_cell_angle_alpha    93.0813
_cell_angle_beta     90
_cell_angle_gamma    90.0005

_space_group_name_H-M_alt    "P 1"
_space_group_IT_number       1

loop_
  _space_group_symop_operation_xyz
  'x, y, z'

loop_
  _atom_site_type_symbol
  _atom_site_label
  _atom_site_symmetry_multiplicity
  _atom_site_fract_x
  _atom_site_fract_y
  _atom_site_fract_z
  _atom_site_occupancy
  Mn  Mn1       1.0  1.00000  0.50000  0.49999  1.0000
  Mn  Mn2       1.0  0.50000  0.00000  0.00001  1.0000
  H   H1        1.0  0.26670  0.26201  0.68637  1.0000
  H   H2        1.0  0.76670  0.23800  0.81363  1.0000
  H   H3        1.0  0.73328  0.73800  0.31363  1.0000
  H   H4        1.0  0.23329  0.76200  0.18637  1.0000
  H   H5        1.0  0.56680  0.19544  0.50668  1.0000
  H   H6        1.0  0.06678  0.30454  0.99332  1.0000
  H   H7        1.0  0.43321  0.80452  0.49331  1.0000
  H   H8        1.0  0.93323  0.69549  0.00670  1.0000
  H   H9        1.0  0.69603  0.90707  0.60735  1.0000
  H   H10       1.0  0.19601  0.59292  0.89264  1.0000
  H   H11       1.0  0.30399  0.09292  0.39263  1.0000
  H   H12       1.0  0.80401  0.40709  0.10737  1.0000
  H   H13       1.0  0.35244  0.98247  0.74820  1.0000
  H   H14       1.0  0.85244  0.51753  0.75181  1.0000
  H   H15       1.0  0.64755  0.01752  0.25180  1.0000
  H   H16       1.0  0.14756  0.48248  0.24820  1.0000
  H   H17       1.0  0.15425  0.82334  0.69135  1.0000
  H   H18       1.0  0.65424  0.67665  0.80865  1.0000
  H   H19       1.0  0.84574  0.17665  0.30865  1.0000
  H   H20       1.0  0.34575  0.32335  0.19135  1.0000
  C   C1        1.0  0.09134  0.20764  0.65069  1.0000
  C   C2        1.0  0.59133  0.29236  0.84931  1.0000
  C   C3        1.0  0.90867  0.79235  0.34931  1.0000
  C   C4        1.0  0.40868  0.70765  0.15069  1.0000
  C   C5        1.0  0.73056  0.16430  0.55809  1.0000
  C   C6        1.0  0.23056  0.33570  0.94191  1.0000
  C   C7        1.0  0.26944  0.83569  0.44190  1.0000
  C   C8        1.0  0.76945  0.66431  0.05810  1.0000
  C   C9        1.0  0.78685  0.02469  0.60858  1.0000
  C   C10       1.0  0.28685  0.47530  0.89143  1.0000
  C   C11       1.0  0.21315  0.97531  0.39142  1.0000
  C   C12       1.0  0.71315  0.52471  0.10858  1.0000
  C   C13       1.0  0.14904  0.94257  0.73500  1.0000
  C   C14       1.0  0.64905  0.55743  0.76500  1.0000
  C   C15       1.0  0.85094  0.05743  0.26500  1.0000
  C   C16       1.0  0.35094  0.44257  0.23500  1.0000
  C   C17       1.0  0.01857  0.92010  0.84641  1.0000
  C   C18       1.0  0.51856  0.57989  0.65359  1.0000
  C   C19       1.0  0.98143  0.07991  0.15360  1.0000
  C   C20       1.0  0.48144  0.42009  0.34640  1.0000
  N   N1        1.0  0.92277  0.27760  0.58454  1.0000
  N   N2        1.0  0.42276  0.22239  0.91545  1.0000
  N   N3        1.0  0.07723  0.72239  0.41545  1.0000
  N   N4        1.0  0.57725  0.77761  0.08455  1.0000
  N   N5        1.0  0.01565  0.05423  0.66681  1.0000
  N   N6        1.0  0.51565  0.44577  0.83319  1.0000
  N   N7        1.0  0.98435  0.94576  0.33318  1.0000
  N   N8        1.0  0.48435  0.55424  0.16682  1.0000
  O   O1        1.0  0.17128  0.87177  0.92030  1.0000
  O   O2        1.0  0.67128  0.62823  0.57970  1.0000
  O   O3        1.0  0.82872  0.12826  0.07970  1.0000
  O   O4        1.0  0.32872  0.37175  0.42030  1.0000
  O   O5        1.0  0.77269  0.94127  0.85546  1.0000
  O   O6        1.0  0.27270  0.55873  0.64453  1.0000
  O   O7        1.0  0.22729  0.05875  0.14454  1.0000
  O   O8        1.0  0.72730  0.44125  0.35546  1.0000
