data_image0
_chemical_formula_structural       Ni2H20C20N8O8
_chemical_formula_sum              "Ni2 H20 C20 N8 O8"
_cell_length_a       5.05145
_cell_length_b       8.19123
_cell_length_c       11.977
_cell_angle_alpha    92.6501
_cell_angle_beta     90.0001
_cell_angle_gamma    89.9999

_space_group_name_H-M_alt    "P 1"
_space_group_IT_number       1

loop_
  _space_group_symop_operation_xyz
  'x, y, z'

loop_
  _atom_site_type_symbol
  _atom_site_label
  _atom_site_symmetry_multiplicity
  _atom_site_fract_x
  _atom_site_fract_y
  _atom_site_fract_z
  _atom_site_occupancy
  Ni  Ni1       1.0  0.00000  0.00000  1.00000  1.0000
  Ni  Ni2       1.0  0.50000  0.50000  0.50000  1.0000
  H   H1        1.0  0.35093  0.48677  0.25154  1.0000
  H   H2        1.0  0.85092  0.01322  0.24845  1.0000
  H   H3        1.0  0.64908  0.51322  0.74845  1.0000
  H   H4        1.0  0.14908  0.98678  0.75155  1.0000
  H   H5        1.0  0.15014  0.32575  0.19379  1.0000
  H   H6        1.0  0.65014  0.17425  0.30621  1.0000
  H   H7        1.0  0.84984  0.67425  0.80621  1.0000
  H   H8        1.0  0.34985  0.82576  0.69379  1.0000
  H   H9        1.0  0.28126  0.76634  0.18026  1.0000
  H   H10       1.0  0.78125  0.73365  0.31974  1.0000
  H   H11       1.0  0.71875  0.23365  0.81974  1.0000
  H   H12       1.0  0.21875  0.26635  0.68026  1.0000
  H   H13       1.0  0.56911  0.70884  0.00146  1.0000
  H   H14       1.0  0.06911  0.79116  0.49854  1.0000
  H   H15       1.0  0.43089  0.29117  0.99855  1.0000
  H   H16       1.0  0.93089  0.20883  0.50145  1.0000
  H   H17       1.0  0.68381  0.41748  0.10880  1.0000
  H   H18       1.0  0.18382  0.08251  0.39120  1.0000
  H   H19       1.0  0.31618  0.58252  0.89121  1.0000
  H   H20       1.0  0.81619  0.91748  0.60880  1.0000
  C   C1        1.0  0.01207  0.42555  0.35061  1.0000
  C   C2        1.0  0.51207  0.07445  0.14939  1.0000
  C   C3        1.0  0.98793  0.57445  0.64939  1.0000
  C   C4        1.0  0.48793  0.92556  0.85061  1.0000
  C   C5        1.0  0.14608  0.44735  0.23723  1.0000
  C   C6        1.0  0.64608  0.05264  0.26277  1.0000
  C   C7        1.0  0.85391  0.55264  0.76277  1.0000
  C   C8        1.0  0.35392  0.94736  0.73723  1.0000
  C   C9        1.0  0.10100  0.71437  0.14571  1.0000
  C   C10       1.0  0.60100  0.78562  0.35429  1.0000
  C   C11       1.0  0.89900  0.28563  0.85429  1.0000
  C   C12       1.0  0.39900  0.21438  0.64571  1.0000
  C   C13       1.0  0.73396  0.67499  0.05320  1.0000
  C   C14       1.0  0.23396  0.82500  0.44680  1.0000
  C   C15       1.0  0.26604  0.32500  0.94680  1.0000
  C   C16       1.0  0.76605  0.17499  0.55320  1.0000
  C   C17       1.0  0.78349  0.53416  0.10761  1.0000
  C   C18       1.0  0.28349  0.96584  0.39239  1.0000
  C   C19       1.0  0.21651  0.46584  0.89240  1.0000
  C   C20       1.0  0.71651  0.03416  0.60761  1.0000
  N   N1        1.0  0.01610  0.56106  0.16577  1.0000
  N   N2        1.0  0.51610  0.93893  0.33422  1.0000
  N   N3        1.0  0.98390  0.43894  0.83423  1.0000
  N   N4        1.0  0.48390  0.06107  0.66578  1.0000
  N   N5        1.0  0.93419  0.78636  0.07708  1.0000
  N   N6        1.0  0.43419  0.71363  0.42292  1.0000
  N   N7        1.0  0.06581  0.21364  0.92292  1.0000
  N   N8        1.0  0.56582  0.28637  0.57708  1.0000
  O   O1        1.0  0.76170  0.43844  0.35636  1.0000
  O   O2        1.0  0.26170  0.06156  0.14364  1.0000
  O   O3        1.0  0.23830  0.56156  0.64364  1.0000
  O   O4        1.0  0.73831  0.93844  0.85636  1.0000
  O   O5        1.0  0.16388  0.38302  0.42865  1.0000
  O   O6        1.0  0.66388  0.11697  0.07135  1.0000
  O   O7        1.0  0.83612  0.61698  0.57135  1.0000
  O   O8        1.0  0.33612  0.88302  0.92865  1.0000
