data_image0
_chemical_formula_structural       Cu4H40C40N16O16
_chemical_formula_sum              "Cu4 H40 C40 N16 O16"
_cell_length_a       7.45595
_cell_length_b       11.3447
_cell_length_c       13.7665
_cell_angle_alpha    89.9989
_cell_angle_beta     90.0005
_cell_angle_gamma    89.9993

_space_group_name_H-M_alt    "P 1"
_space_group_IT_number       1

loop_
  _space_group_symop_operation_xyz
  'x, y, z'

loop_
  _atom_site_type_symbol
  _atom_site_label
  _atom_site_symmetry_multiplicity
  _atom_site_fract_x
  _atom_site_fract_y
  _atom_site_fract_z
  _atom_site_occupancy
  Cu  Cu1       1.0  0.00001  0.50000  0.50000  1.0000
  Cu  Cu2       1.0  0.99999  1.00000  0.00000  1.0000
  Cu  Cu3       1.0  0.49999  0.50000  0.00000  1.0000
  Cu  Cu4       1.0  0.50000  1.00000  0.50000  1.0000
  H   H1        1.0  0.71195  0.70270  0.73211  1.0000
  H   H2        1.0  0.28805  0.79730  0.23209  1.0000
  H   H3        1.0  0.21195  0.29730  0.76789  1.0000
  H   H4        1.0  0.78805  0.20270  0.26790  1.0000
  H   H5        1.0  0.28804  0.29730  0.26790  1.0000
  H   H6        1.0  0.71193  0.20270  0.76789  1.0000
  H   H7        1.0  0.78806  0.70270  0.23211  1.0000
  H   H8        1.0  0.21195  0.79731  0.73210  1.0000
  H   H9        1.0  0.73728  0.56225  0.78792  1.0000
  H   H10       1.0  0.26275  0.93775  0.28791  1.0000
  H   H11       1.0  0.23727  0.43774  0.71208  1.0000
  H   H12       1.0  0.76276  0.06225  0.21209  1.0000
  H   H13       1.0  0.26272  0.43774  0.21208  1.0000
  H   H14       1.0  0.73725  0.06225  0.71209  1.0000
  H   H15       1.0  0.76274  0.56225  0.28791  1.0000
  H   H16       1.0  0.23726  0.93776  0.78791  1.0000
  H   H17       1.0  0.82137  0.87595  0.81446  1.0000
  H   H18       1.0  0.17863  0.62405  0.31445  1.0000
  H   H19       1.0  0.32138  0.12404  0.68554  1.0000
  H   H20       1.0  0.67862  0.37595  0.18554  1.0000
  H   H21       1.0  0.17861  0.12404  0.18555  1.0000
  H   H22       1.0  0.82137  0.37595  0.68554  1.0000
  H   H23       1.0  0.67863  0.87595  0.31446  1.0000
  H   H24       1.0  0.32137  0.62406  0.81446  1.0000
  H   H25       1.0  0.12267  0.72968  0.04556  1.0000
  H   H26       1.0  0.87735  0.77032  0.54556  1.0000
  H   H27       1.0  0.62266  0.27032  0.45444  1.0000
  H   H28       1.0  0.37732  0.22968  0.95444  1.0000
  H   H29       1.0  0.87733  0.27031  0.95444  1.0000
  H   H30       1.0  0.12268  0.22968  0.45445  1.0000
  H   H31       1.0  0.37733  0.72968  0.54556  1.0000
  H   H32       1.0  0.62266  0.77033  0.04556  1.0000
  H   H33       1.0  0.01537  0.55088  0.92040  1.0000
  H   H34       1.0  0.98466  0.94912  0.42038  1.0000
  H   H35       1.0  0.51538  0.44911  0.57961  1.0000
  H   H36       1.0  0.48464  0.05088  0.07962  1.0000
  H   H37       1.0  0.98463  0.44911  0.07961  1.0000
  H   H38       1.0  0.01536  0.05088  0.57962  1.0000
  H   H39       1.0  0.48463  0.55088  0.42038  1.0000
  H   H40       1.0  0.51537  0.94913  0.92038  1.0000
  C   C1        1.0  0.93875  0.60275  0.68162  1.0000
  C   C2        1.0  0.06127  0.89727  0.18161  1.0000
  C   C3        1.0  0.43873  0.39726  0.81838  1.0000
  C   C4        1.0  0.56127  0.10273  0.31838  1.0000
  C   C5        1.0  0.06126  0.39726  0.31838  1.0000
  C   C6        1.0  0.93872  0.10274  0.81839  1.0000
  C   C7        1.0  0.56127  0.60274  0.18162  1.0000
  C   C8        1.0  0.43873  0.89727  0.68161  1.0000
  C   C9        1.0  0.81010  0.64076  0.76255  1.0000
  C   C10       1.0  0.18991  0.85925  0.26254  1.0000
  C   C11       1.0  0.31009  0.35924  0.73745  1.0000
  C   C12       1.0  0.68991  0.14075  0.23745  1.0000
  C   C13       1.0  0.18990  0.35924  0.23745  1.0000
  C   C14       1.0  0.81008  0.14076  0.73745  1.0000
  C   C15       1.0  0.68991  0.64076  0.26255  1.0000
  C   C16       1.0  0.31009  0.85925  0.76254  1.0000
  C   C17       1.0  0.89328  0.81519  0.86092  1.0000
  C   C18       1.0  0.10673  0.68482  0.36091  1.0000
  C   C19       1.0  0.39328  0.18481  0.63909  1.0000
  C   C20       1.0  0.60672  0.31518  0.13909  1.0000
  C   C21       1.0  0.10671  0.18482  0.13910  1.0000
  C   C22       1.0  0.89327  0.31518  0.63909  1.0000
  C   C23       1.0  0.60673  0.81518  0.36091  1.0000
  C   C24       1.0  0.39328  0.68483  0.86092  1.0000
  C   C25       1.0  0.04123  0.73406  0.98057  1.0000
  C   C26       1.0  0.95879  0.76594  0.48056  1.0000
  C   C27       1.0  0.54124  0.26593  0.51943  1.0000
  C   C28       1.0  0.45876  0.23406  0.01943  1.0000
  C   C29       1.0  0.95877  0.26593  0.01944  1.0000
  C   C30       1.0  0.04124  0.23406  0.51944  1.0000
  C   C31       1.0  0.45877  0.73406  0.48056  1.0000
  C   C32       1.0  0.54123  0.76595  0.98057  1.0000
  C   C33       1.0  0.98887  0.64473  0.91955  1.0000
  C   C34       1.0  0.01114  0.85527  0.41954  1.0000
  C   C35       1.0  0.48888  0.35526  0.58046  1.0000
  C   C36       1.0  0.51113  0.14473  0.08046  1.0000
  C   C37       1.0  0.01112  0.35526  0.08046  1.0000
  C   C38       1.0  0.98887  0.14473  0.58046  1.0000
  C   C39       1.0  0.51113  0.64473  0.41954  1.0000
  C   C40       1.0  0.48887  0.85528  0.91954  1.0000
  N   N1        1.0  0.89600  0.69781  0.84453  1.0000
  N   N2        1.0  0.10402  0.80220  0.34452  1.0000
  N   N3        1.0  0.39600  0.30219  0.65548  1.0000
  N   N4        1.0  0.60401  0.19780  0.15548  1.0000
  N   N5        1.0  0.10399  0.30219  0.15548  1.0000
  N   N6        1.0  0.89599  0.19780  0.65548  1.0000
  N   N7        1.0  0.60401  0.69780  0.34452  1.0000
  N   N8        1.0  0.39599  0.80221  0.84452  1.0000
  N   N9        1.0  0.98070  0.84026  0.94312  1.0000
  N   N10       1.0  0.01931  0.65975  0.44311  1.0000
  N   N11       1.0  0.48070  0.15974  0.55689  1.0000
  N   N12       1.0  0.51929  0.34026  0.05689  1.0000
  N   N13       1.0  0.01929  0.15974  0.05689  1.0000
  N   N14       1.0  0.98070  0.34026  0.55689  1.0000
  N   N15       1.0  0.51930  0.84026  0.44311  1.0000
  N   N16       1.0  0.48069  0.65975  0.94312  1.0000
  O   O1        1.0  0.85160  0.56273  0.60755  1.0000
  O   O2        1.0  0.14843  0.93728  0.10754  1.0000
  O   O3        1.0  0.35157  0.43728  0.89245  1.0000
  O   O4        1.0  0.64843  0.06271  0.39246  1.0000
  O   O5        1.0  0.14842  0.43728  0.39245  1.0000
  O   O6        1.0  0.85155  0.06272  0.89246  1.0000
  O   O7        1.0  0.64843  0.56272  0.10754  1.0000
  O   O8        1.0  0.35157  0.93727  0.60753  1.0000
  O   O9        1.0  0.10522  0.60963  0.69012  1.0000
  O   O10       1.0  0.89480  0.89041  0.19011  1.0000
  O   O11       1.0  0.60520  0.39039  0.80989  1.0000
  O   O12       1.0  0.39479  0.10958  0.30988  1.0000
  O   O13       1.0  0.89479  0.39040  0.30988  1.0000
  O   O14       1.0  0.10518  0.10961  0.80990  1.0000
  O   O15       1.0  0.39480  0.60961  0.19012  1.0000
  O   O16       1.0  0.60521  0.89040  0.69011  1.0000
