data_image0
_chemical_formula_structural       Ni2H24C24S4N12
_chemical_formula_sum              "Ni2 H24 C24 S4 N12"
_cell_length_a       7.86039
_cell_length_b       9.30328
_cell_length_c       10.0067
_cell_angle_alpha    101.729
_cell_angle_beta     91.313
_cell_angle_gamma    101.683

_space_group_name_H-M_alt    "P 1"
_space_group_IT_number       1

loop_
  _space_group_symop_operation_xyz
  'x, y, z'

loop_
  _atom_site_type_symbol
  _atom_site_label
  _atom_site_symmetry_multiplicity
  _atom_site_fract_x
  _atom_site_fract_y
  _atom_site_fract_z
  _atom_site_occupancy
  Ni  Ni1       1.0  0.50000  0.50000  0.00000  1.0000
  Ni  Ni2       1.0  0.50000  1.00000  0.50000  1.0000
  H   H1        1.0  0.46198  0.54221  0.30942  1.0000
  H   H2        1.0  0.53802  0.45780  0.69058  1.0000
  H   H3        1.0  0.36113  0.38496  0.47873  1.0000
  H   H4        1.0  0.63888  0.61505  0.52128  1.0000
  H   H5        1.0  0.28638  0.99576  0.14573  1.0000
  H   H6        1.0  0.71362  0.00425  0.85428  1.0000
  H   H7        1.0  0.38403  0.17023  0.99125  1.0000
  H   H8        1.0  0.61597  0.82977  0.00875  1.0000
  H   H9        1.0  0.19490  0.98216  0.37649  1.0000
  H   H10       1.0  0.80510  0.01784  0.62352  1.0000
  H   H11       1.0  0.22470  0.13381  0.50617  1.0000
  H   H12       1.0  0.77530  0.86619  0.49384  1.0000
  H   H13       1.0  0.29281  0.06397  0.75518  1.0000
  H   H14       1.0  0.70719  0.93603  0.24482  1.0000
  H   H15       1.0  0.09622  0.92369  0.89575  1.0000
  H   H16       1.0  0.90378  0.07631  0.10425  1.0000
  H   H17       1.0  0.11517  0.51738  0.60019  1.0000
  H   H18       1.0  0.88483  0.48262  0.39981  1.0000
  H   H19       1.0  0.30880  0.67671  0.47170  1.0000
  H   H20       1.0  0.69121  0.32329  0.52830  1.0000
  H   H21       1.0  0.94930  0.50832  0.80528  1.0000
  H   H22       1.0  0.05070  0.49168  0.19472  1.0000
  H   H23       1.0  0.94041  0.66858  0.92463  1.0000
  H   H24       1.0  0.05958  0.33143  0.07537  1.0000
  C   C1        1.0  0.38382  0.76287  0.23056  1.0000
  C   C2        1.0  0.61619  0.23714  0.76944  1.0000
  C   C3        1.0  0.19245  0.31897  0.78531  1.0000
  C   C4        1.0  0.80754  0.68103  0.21470  1.0000
  C   C5        1.0  0.42060  0.42061  0.27737  1.0000
  C   C6        1.0  0.57941  0.57939  0.72264  1.0000
  C   C7        1.0  0.36581  0.33296  0.37139  1.0000
  C   C8        1.0  0.63419  0.66704  0.62862  1.0000
  C   C9        1.0  0.31758  0.17636  0.32671  1.0000
  C   C10       1.0  0.68242  0.82364  0.67329  1.0000
  C   C11       1.0  0.32249  0.11660  0.18653  1.0000
  C   C12       1.0  0.67751  0.88340  0.81348  1.0000
  C   C13       1.0  0.37779  0.21331  0.10023  1.0000
  C   C14       1.0  0.62221  0.78669  0.89977  1.0000
  C   C15       1.0  0.25072  0.94254  0.72421  1.0000
  C   C16       1.0  0.74928  0.05746  0.27579  1.0000
  C   C17       1.0  0.14164  0.86348  0.80297  1.0000
  C   C18       1.0  0.85836  0.13652  0.19703  1.0000
  C   C19       1.0  0.08926  0.70531  0.76216  1.0000
  C   C20       1.0  0.91074  0.29468  0.23784  1.0000
  C   C21       1.0  0.15125  0.63861  0.63817  1.0000
  C   C22       1.0  0.84875  0.36138  0.36183  1.0000
  C   C23       1.0  0.26012  0.72705  0.56698  1.0000
  C   C24       1.0  0.73988  0.27294  0.43302  1.0000
  S   S1        1.0  0.29327  0.66686  0.08302  1.0000
  S   S2        1.0  0.70673  0.33314  0.91698  1.0000
  S   S3        1.0  0.04367  0.24582  0.66080  1.0000
  S   S4        1.0  0.95632  0.75418  0.33921  1.0000
  N   N1        1.0  0.45062  0.83175  0.33824  1.0000
  N   N2        1.0  0.54938  0.16825  0.66175  1.0000
  N   N3        1.0  0.30174  0.37520  0.87464  1.0000
  N   N4        1.0  0.69825  0.62480  0.12537  1.0000
  N   N5        1.0  0.42774  0.36350  0.14343  1.0000
  N   N6        1.0  0.57226  0.63650  0.85657  1.0000
  N   N7        1.0  0.27613  0.08299  0.41946  1.0000
  N   N8        1.0  0.72387  0.91701  0.58055  1.0000
  N   N9        1.0  0.31319  0.87782  0.60730  1.0000
  N   N10       1.0  0.68682  0.12218  0.39270  1.0000
  N   N11       1.0  0.98553  0.62185  0.83585  1.0000
  N   N12       1.0  0.01447  0.37815  0.16416  1.0000
