data_image0
_chemical_formula_structural       Cd4H40C24S8N48
_chemical_formula_sum              "Cd4 H40 C24 S8 N48"
_cell_length_a       9.54179
_cell_length_b       9.47566
_cell_length_c       15.7295
_cell_angle_alpha    90.0002
_cell_angle_beta     90.0002
_cell_angle_gamma    89.9999

_space_group_name_H-M_alt    "P 1"
_space_group_IT_number       1

loop_
  _space_group_symop_operation_xyz
  'x, y, z'

loop_
  _atom_site_type_symbol
  _atom_site_label
  _atom_site_symmetry_multiplicity
  _atom_site_fract_x
  _atom_site_fract_y
  _atom_site_fract_z
  _atom_site_occupancy
  Cd  Cd1       1.0  0.28604  0.50000  0.75000  1.0000
  Cd  Cd2       1.0  0.78604  0.00000  0.75000  1.0000
  Cd  Cd3       1.0  0.71396  0.50000  0.25000  1.0000
  Cd  Cd4       1.0  0.21396  0.00000  0.25000  1.0000
  H   H1        1.0  0.14920  0.99939  0.55815  1.0000
  H   H2        1.0  0.64920  0.50061  0.55815  1.0000
  H   H3        1.0  0.85080  0.99939  0.05815  1.0000
  H   H4        1.0  0.35080  0.50061  0.05815  1.0000
  H   H5        1.0  0.85080  0.00061  0.44185  1.0000
  H   H6        1.0  0.35080  0.49939  0.44185  1.0000
  H   H7        1.0  0.14920  0.00062  0.94185  1.0000
  H   H8        1.0  0.64920  0.49939  0.94185  1.0000
  H   H9        1.0  0.99100  0.05440  0.60040  1.0000
  H   H10       1.0  0.49100  0.44560  0.60040  1.0000
  H   H11       1.0  0.00900  0.05439  0.10040  1.0000
  H   H12       1.0  0.50900  0.44560  0.10040  1.0000
  H   H13       1.0  0.00901  0.94560  0.39960  1.0000
  H   H14       1.0  0.50900  0.55440  0.39960  1.0000
  H   H15       1.0  0.99099  0.94561  0.89960  1.0000
  H   H16       1.0  0.49099  0.55439  0.89960  1.0000
  H   H17       1.0  0.86424  0.71426  0.83883  1.0000
  H   H18       1.0  0.36424  0.78574  0.83883  1.0000
  H   H19       1.0  0.13576  0.71426  0.33883  1.0000
  H   H20       1.0  0.63576  0.78574  0.33883  1.0000
  H   H21       1.0  0.13576  0.28574  0.16117  1.0000
  H   H22       1.0  0.63576  0.21426  0.16117  1.0000
  H   H23       1.0  0.86424  0.28574  0.66116  1.0000
  H   H24       1.0  0.36424  0.21426  0.66116  1.0000
  H   H25       1.0  0.96651  0.56519  0.83034  1.0000
  H   H26       1.0  0.46651  0.93481  0.83034  1.0000
  H   H27       1.0  0.03349  0.56518  0.33034  1.0000
  H   H28       1.0  0.53349  0.93482  0.33034  1.0000
  H   H29       1.0  0.03349  0.43481  0.16966  1.0000
  H   H30       1.0  0.53349  0.06519  0.16966  1.0000
  H   H31       1.0  0.96651  0.43482  0.66966  1.0000
  H   H32       1.0  0.46651  0.06518  0.66966  1.0000
  H   H33       1.0  0.24609  0.75611  0.61112  1.0000
  H   H34       1.0  0.74609  0.74389  0.61112  1.0000
  H   H35       1.0  0.75391  0.75611  0.11112  1.0000
  H   H36       1.0  0.25391  0.74389  0.11112  1.0000
  H   H37       1.0  0.75391  0.24389  0.38888  1.0000
  H   H38       1.0  0.25391  0.25611  0.38888  1.0000
  H   H39       1.0  0.24609  0.24389  0.88888  1.0000
  H   H40       1.0  0.74609  0.25611  0.88888  1.0000
  C   C1        1.0  0.00235  0.71680  0.74181  1.0000
  C   C2        1.0  0.50235  0.78320  0.74181  1.0000
  C   C3        1.0  0.99765  0.71680  0.24181  1.0000
  C   C4        1.0  0.49765  0.78320  0.24181  1.0000
  C   C5        1.0  0.99765  0.28320  0.25819  1.0000
  C   C6        1.0  0.49765  0.21680  0.25819  1.0000
  C   C7        1.0  0.00235  0.28320  0.75819  1.0000
  C   C8        1.0  0.50235  0.21680  0.75819  1.0000
  C   C9        1.0  0.06920  0.87569  0.65210  1.0000
  C   C10       1.0  0.56920  0.62431  0.65209  1.0000
  C   C11       1.0  0.93080  0.87569  0.15210  1.0000
  C   C12       1.0  0.43080  0.62431  0.15210  1.0000
  C   C13       1.0  0.93080  0.12431  0.34790  1.0000
  C   C14       1.0  0.43080  0.37569  0.34790  1.0000
  C   C15       1.0  0.06920  0.12431  0.84791  1.0000
  C   C16       1.0  0.56920  0.37569  0.84791  1.0000
  C   C17       1.0  0.20205  0.36404  0.55766  1.0000
  C   C18       1.0  0.70205  0.13596  0.55766  1.0000
  C   C19       1.0  0.79794  0.36404  0.05767  1.0000
  C   C20       1.0  0.29794  0.13596  0.05766  1.0000
  C   C21       1.0  0.79795  0.63596  0.44234  1.0000
  C   C22       1.0  0.29794  0.86404  0.44233  1.0000
  C   C23       1.0  0.20205  0.63596  0.94234  1.0000
  C   C24       1.0  0.70206  0.86404  0.94233  1.0000
  S   S1        1.0  0.08743  0.31866  0.48733  1.0000
  S   S2        1.0  0.58743  0.18134  0.48732  1.0000
  S   S3        1.0  0.91257  0.31866  0.98733  1.0000
  S   S4        1.0  0.41257  0.18135  0.98733  1.0000
  S   S5        1.0  0.91258  0.68134  0.51267  1.0000
  S   S6        1.0  0.41257  0.81866  0.51267  1.0000
  S   S7        1.0  0.08743  0.68134  0.01267  1.0000
  S   S8        1.0  0.58743  0.81865  0.01267  1.0000
  N   N1        1.0  0.11780  0.66273  0.70595  1.0000
  N   N2        1.0  0.61780  0.83727  0.70595  1.0000
  N   N3        1.0  0.88220  0.66273  0.20595  1.0000
  N   N4        1.0  0.38220  0.83727  0.20595  1.0000
  N   N5        1.0  0.88220  0.33727  0.29405  1.0000
  N   N6        1.0  0.38220  0.16273  0.29405  1.0000
  N   N7        1.0  0.11780  0.33727  0.79405  1.0000
  N   N8        1.0  0.61780  0.16273  0.79405  1.0000
  N   N9        1.0  0.15803  0.76610  0.64839  1.0000
  N   N10       1.0  0.65803  0.73390  0.64839  1.0000
  N   N11       1.0  0.84197  0.76610  0.14839  1.0000
  N   N12       1.0  0.34197  0.73390  0.14839  1.0000
  N   N13       1.0  0.84197  0.23390  0.35161  1.0000
  N   N14       1.0  0.34197  0.26610  0.35161  1.0000
  N   N15       1.0  0.15803  0.23390  0.85161  1.0000
  N   N16       1.0  0.65803  0.26610  0.85161  1.0000
  N   N17       1.0  0.96753  0.84663  0.70957  1.0000
  N   N18       1.0  0.46753  0.65337  0.70957  1.0000
  N   N19       1.0  0.03247  0.84663  0.20957  1.0000
  N   N20       1.0  0.53247  0.65338  0.20957  1.0000
  N   N21       1.0  0.03247  0.15337  0.29043  1.0000
  N   N22       1.0  0.53247  0.34663  0.29043  1.0000
  N   N23       1.0  0.96753  0.15338  0.79043  1.0000
  N   N24       1.0  0.46753  0.34662  0.79043  1.0000
  N   N25       1.0  0.08099  0.99668  0.60757  1.0000
  N   N26       1.0  0.58099  0.50332  0.60757  1.0000
  N   N27       1.0  0.91901  0.99668  0.10757  1.0000
  N   N28       1.0  0.41901  0.50332  0.10757  1.0000
  N   N29       1.0  0.91901  0.00332  0.39243  1.0000
  N   N30       1.0  0.41900  0.49668  0.39243  1.0000
  N   N31       1.0  0.08099  0.00332  0.89243  1.0000
  N   N32       1.0  0.58099  0.49668  0.89243  1.0000
  N   N33       1.0  0.92316  0.64998  0.80087  1.0000
  N   N34       1.0  0.42316  0.85002  0.80087  1.0000
  N   N35       1.0  0.07685  0.64998  0.30087  1.0000
  N   N36       1.0  0.57685  0.85002  0.30087  1.0000
  N   N37       1.0  0.07684  0.35002  0.19913  1.0000
  N   N38       1.0  0.57684  0.14998  0.19913  1.0000
  N   N39       1.0  0.92315  0.35002  0.69913  1.0000
  N   N40       1.0  0.42315  0.14998  0.69913  1.0000
  N   N41       1.0  0.28730  0.39772  0.60948  1.0000
  N   N42       1.0  0.78730  0.10228  0.60948  1.0000
  N   N43       1.0  0.71269  0.39772  0.10949  1.0000
  N   N44       1.0  0.21270  0.10228  0.10948  1.0000
  N   N45       1.0  0.71270  0.60228  0.39052  1.0000
  N   N46       1.0  0.21269  0.89772  0.39052  1.0000
  N   N47       1.0  0.28730  0.60228  0.89052  1.0000
  N   N48       1.0  0.78731  0.89772  0.89052  1.0000
