data_image0
_chemical_formula_structural       UH10C14O6
_chemical_formula_sum              "U1 H10 C14 O6"
_cell_length_a       5.34814
_cell_length_b       7.22923
_cell_length_c       9.46666
_cell_angle_alpha    67.5124
_cell_angle_beta     87.584
_cell_angle_gamma    83.6251

_space_group_name_H-M_alt    "P 1"
_space_group_IT_number       1

loop_
  _space_group_symop_operation_xyz
  'x, y, z'

loop_
  _atom_site_type_symbol
  _atom_site_label
  _atom_site_symmetry_multiplicity
  _atom_site_fract_x
  _atom_site_fract_y
  _atom_site_fract_z
  _atom_site_occupancy
  U   U1        1.0  0.99999  0.00001  0.00000  1.0000
  H   H1        1.0  0.12330  0.35782  0.55916  1.0000
  H   H2        1.0  0.87678  0.08259  0.55979  1.0000
  H   H3        1.0  0.87670  0.64219  0.44083  1.0000
  H   H4        1.0  0.12321  0.91740  0.44022  1.0000
  H   H5        1.0  0.12344  0.50182  0.27280  1.0000
  H   H6        1.0  0.87719  0.22470  0.27342  1.0000
  H   H7        1.0  0.87658  0.49818  0.72719  1.0000
  H   H8        1.0  0.12281  0.77529  0.72659  1.0000
  H   H9        1.0  0.50053  0.43367  0.13219  1.0000
  H   H10       1.0  0.49948  0.56633  0.86781  1.0000
  C   C1        1.0  0.49976  0.12748  0.74506  1.0000
  C   C2        1.0  0.50022  0.87252  0.25494  1.0000
  C   C3        1.0  0.50006  0.21203  0.57606  1.0000
  C   C4        1.0  0.49996  0.78798  0.42394  1.0000
  C   C5        1.0  0.28695  0.32942  0.49542  1.0000
  C   C6        1.0  0.71319  0.17476  0.49580  1.0000
  C   C7        1.0  0.71305  0.67058  0.50457  1.0000
  C   C8        1.0  0.28681  0.82523  0.50420  1.0000
  C   C9        1.0  0.28772  0.40952  0.33632  1.0000
  C   C10       1.0  0.71287  0.25374  0.33670  1.0000
  C   C11       1.0  0.71230  0.59048  0.66368  1.0000
  C   C12       1.0  0.28715  0.74626  0.66331  1.0000
  C   C13       1.0  0.50037  0.37144  0.25672  1.0000
  C   C14       1.0  0.49964  0.62855  0.74327  1.0000
  O   O1        1.0  0.89583  0.24658  0.00001  1.0000
  O   O2        1.0  0.10416  0.75343  0.99999  1.0000
  O   O3        1.0  0.70649  0.04601  0.81601  1.0000
  O   O4        1.0  0.29286  0.13843  0.81563  1.0000
  O   O5        1.0  0.29349  0.95399  0.18400  1.0000
  O   O6        1.0  0.70713  0.86157  0.18437  1.0000
