data_image0
_chemical_formula_structural       H24Pb2C16O10
_chemical_formula_sum              "H24 Pb2 C16 O10"
_cell_length_a       5.08594
_cell_length_b       8.14615
_cell_length_c       11.4715
_cell_angle_alpha    92.0237
_cell_angle_beta     91.0467
_cell_angle_gamma    97.3082

_space_group_name_H-M_alt    "P 1"
_space_group_IT_number       1

loop_
  _space_group_symop_operation_xyz
  'x, y, z'

loop_
  _atom_site_type_symbol
  _atom_site_label
  _atom_site_symmetry_multiplicity
  _atom_site_fract_x
  _atom_site_fract_y
  _atom_site_fract_z
  _atom_site_occupancy
  H   H1        1.0  0.70938  0.21363  0.04455  1.0000
  H   H2        1.0  0.29066  0.78636  0.95544  1.0000
  H   H3        1.0  0.49490  0.20864  0.84525  1.0000
  H   H4        1.0  0.50511  0.79134  0.15474  1.0000
  H   H5        1.0  0.22261  0.07349  0.89373  1.0000
  H   H6        1.0  0.77741  0.92650  0.10626  1.0000
  H   H7        1.0  0.45817  0.08686  0.20868  1.0000
  H   H8        1.0  0.54182  0.91313  0.79131  1.0000
  H   H9        1.0  0.19938  0.00083  0.11124  1.0000
  H   H10       1.0  0.80064  0.99916  0.88874  1.0000
  H   H11       1.0  0.70037  0.13561  0.51360  1.0000
  H   H12       1.0  0.29958  0.86442  0.48641  1.0000
  H   H13       1.0  0.28818  0.17695  0.45557  1.0000
  H   H14       1.0  0.71182  0.82305  0.54444  1.0000
  H   H15       1.0  0.14095  0.29519  0.56107  1.0000
  H   H16       1.0  0.85905  0.70483  0.43893  1.0000
  H   H17       1.0  0.98905  0.95803  0.32439  1.0000
  H   H18       1.0  0.01093  0.04197  0.67562  1.0000
  H   H19       1.0  0.64396  0.92781  0.34693  1.0000
  H   H20       1.0  0.35605  0.07220  0.65307  1.0000
  H   H21       1.0  0.47262  0.50748  0.35964  1.0000
  H   H22       1.0  0.52737  0.49252  0.64037  1.0000
  H   H23       1.0  0.29171  0.58804  0.44837  1.0000
  H   H24       1.0  0.70831  0.41199  0.55164  1.0000
  Pb  Pb1       1.0  0.99293  0.52674  0.19167  1.0000
  Pb  Pb2       1.0  0.00704  0.47323  0.80833  1.0000
  C   C1        1.0  0.49483  0.17654  0.03277  1.0000
  C   C2        1.0  0.50520  0.82338  0.96723  1.0000
  C   C3        1.0  0.43723  0.11049  0.90703  1.0000
  C   C4        1.0  0.56278  0.88949  0.09295  1.0000
  C   C5        1.0  0.35717  0.32464  0.06679  1.0000
  C   C6        1.0  0.64289  0.67538  0.93321  1.0000
  C   C7        1.0  0.41507  0.03830  0.11898  1.0000
  C   C8        1.0  0.58493  0.96175  0.88099  1.0000
  C   C9        1.0  0.84497  0.26975  0.36728  1.0000
  C   C10       1.0  0.15501  0.73025  0.63271  1.0000
  C   C11       1.0  0.86080  0.13126  0.45080  1.0000
  C   C12       1.0  0.13920  0.86873  0.54923  1.0000
  C   C13       1.0  0.12696  0.17132  0.51871  1.0000
  C   C14       1.0  0.87300  0.82869  0.48128  1.0000
  C   C15       1.0  0.83773  0.95859  0.39183  1.0000
  C   C16       1.0  0.16226  0.04142  0.60818  1.0000
  O   O1        1.0  0.12128  0.33294  0.02823  1.0000
  O   O2        1.0  0.87870  0.66705  0.97177  1.0000
  O   O3        1.0  0.47075  0.43491  0.13994  1.0000
  O   O4        1.0  0.52931  0.56508  0.86007  1.0000
  O   O5        1.0  0.94548  0.25648  0.26664  1.0000
  O   O6        1.0  0.05447  0.74351  0.73334  1.0000
  O   O7        1.0  0.74866  0.39956  0.40293  1.0000
  O   O8        1.0  0.25135  0.60046  0.59709  1.0000
  O   O9        1.0  0.33553  0.58284  0.36376  1.0000
  O   O10       1.0  0.66447  0.41717  0.63625  1.0000
