data_image0
_chemical_formula_structural       Mn2H34C44N8O8
_chemical_formula_sum              "Mn2 H34 C44 N8 O8"
_cell_length_a       8.38716
_cell_length_b       10.2882
_cell_length_c       12.0299
_cell_angle_alpha    67.6653
_cell_angle_beta     86.3547
_cell_angle_gamma    88.4997

_space_group_name_H-M_alt    "P 1"
_space_group_IT_number       1

loop_
  _space_group_symop_operation_xyz
  'x, y, z'

loop_
  _atom_site_type_symbol
  _atom_site_label
  _atom_site_symmetry_multiplicity
  _atom_site_fract_x
  _atom_site_fract_y
  _atom_site_fract_z
  _atom_site_occupancy
  Mn  Mn1       1.0  0.00072  0.36796  0.37783  1.0000
  Mn  Mn2       1.0  0.99928  0.63204  0.62217  1.0000
  H   H1        1.0  0.93466  0.89745  0.41276  1.0000
  H   H2        1.0  0.06534  0.10256  0.58724  1.0000
  H   H3        1.0  0.96170  0.75775  0.11930  1.0000
  H   H4        1.0  0.03830  0.24225  0.88070  1.0000
  H   H5        1.0  0.00791  0.20037  0.05321  1.0000
  H   H6        1.0  0.99209  0.79964  0.94678  1.0000
  H   H7        1.0  0.31710  0.27927  0.22611  1.0000
  H   H8        1.0  0.68290  0.72073  0.77389  1.0000
  H   H9        1.0  0.58271  0.45342  0.13465  1.0000
  H   H10       1.0  0.41729  0.54658  0.86536  1.0000
  H   H11       1.0  0.24224  0.64931  0.29474  1.0000
  H   H12       1.0  0.75776  0.35069  0.70526  1.0000
  H   H13       1.0  0.66331  0.68462  0.17538  1.0000
  H   H14       1.0  0.33669  0.31538  0.82462  1.0000
  H   H15       1.0  0.50032  0.77881  0.20875  1.0000
  H   H16       1.0  0.49968  0.22119  0.79125  1.0000
  H   H17       1.0  0.71748  0.92899  0.00574  1.0000
  H   H18       1.0  0.28252  0.07101  0.99425  1.0000
  H   H19       1.0  0.70572  0.05210  0.78590  1.0000
  H   H20       1.0  0.29428  0.94790  0.21409  1.0000
  H   H21       1.0  0.29651  0.80174  0.79524  1.0000
  H   H22       1.0  0.70349  0.19826  0.20476  1.0000
  H   H23       1.0  0.31070  0.67918  0.01233  1.0000
  H   H24       1.0  0.68931  0.32082  0.98767  1.0000
  H   H25       1.0  0.54323  0.91918  0.60455  1.0000
  H   H26       1.0  0.45677  0.08082  0.39545  1.0000
  H   H27       1.0  0.36688  0.01299  0.61474  1.0000
  H   H28       1.0  0.63313  0.98701  0.38525  1.0000
  H   H29       1.0  0.38459  0.28015  0.55483  1.0000
  H   H30       1.0  0.61540  0.71986  0.44516  1.0000
  H   H31       1.0  0.63288  0.46698  0.43793  1.0000
  H   H32       1.0  0.36712  0.53302  0.56207  1.0000
  H   H33       1.0  0.81233  0.05183  0.55002  1.0000
  H   H34       1.0  0.18767  0.94817  0.44998  1.0000
  C   C1        1.0  0.99275  0.17406  0.28312  1.0000
  C   C2        1.0  0.00725  0.82595  0.71688  1.0000
  C   C3        1.0  0.97729  0.05952  0.23599  1.0000
  C   C4        1.0  0.02271  0.94048  0.76401  1.0000
  C   C5        1.0  0.94947  0.92138  0.31636  1.0000
  C   C6        1.0  0.05053  0.07862  0.68364  1.0000
  C   C7        1.0  0.94074  0.81421  0.27223  1.0000
  C   C8        1.0  0.05926  0.18579  0.72778  1.0000
  C   C9        1.0  0.96431  0.84564  0.14849  1.0000
  C   C10       1.0  0.03569  0.15435  0.85151  1.0000
  C   C11       1.0  0.98877  0.98406  0.06568  1.0000
  C   C12       1.0  0.01123  0.01594  0.93432  1.0000
  C   C13       1.0  0.99146  0.09055  0.11215  1.0000
  C   C14       1.0  0.00854  0.90946  0.88785  1.0000
  C   C15       1.0  0.90823  0.66550  0.35635  1.0000
  C   C16       1.0  0.09177  0.33450  0.64365  1.0000
  C   C17       1.0  0.34051  0.38183  0.22706  1.0000
  C   C18       1.0  0.65949  0.61817  0.77295  1.0000
  C   C19       1.0  0.47236  0.46619  0.18126  1.0000
  C   C20       1.0  0.52764  0.53381  0.81874  1.0000
  C   C21       1.0  0.29548  0.57064  0.26426  1.0000
  C   C22       1.0  0.70452  0.42936  0.73574  1.0000
  C   C23       1.0  0.53743  0.71309  0.15782  1.0000
  C   C24       1.0  0.46257  0.28691  0.84217  1.0000
  C   C25       1.0  0.51869  0.79275  0.02453  1.0000
  C   C26       1.0  0.48131  0.20725  0.97546  1.0000
  C   C27       1.0  0.62558  0.90065  0.95916  1.0000
  C   C28       1.0  0.37442  0.09935  0.04084  1.0000
  C   C29       1.0  0.61709  0.97182  0.83517  1.0000
  C   C30       1.0  0.38291  0.02818  0.16482  1.0000
  C   C31       1.0  0.49889  0.93730  0.77439  1.0000
  C   C32       1.0  0.50111  0.06270  0.22561  1.0000
  C   C33       1.0  0.38851  0.83257  0.84036  1.0000
  C   C34       1.0  0.61149  0.16743  0.15964  1.0000
  C   C35       1.0  0.39771  0.76138  0.96397  1.0000
  C   C36       1.0  0.60229  0.23862  0.03602  1.0000
  C   C37       1.0  0.49203  0.99715  0.63902  1.0000
  C   C38       1.0  0.50797  0.00286  0.36098  1.0000
  C   C39       1.0  0.51090  0.26283  0.53967  1.0000
  C   C40       1.0  0.48910  0.73717  0.46032  1.0000
  C   C41       1.0  0.63358  0.35341  0.47994  1.0000
  C   C42       1.0  0.36642  0.64658  0.52006  1.0000
  C   C43       1.0  0.73316  0.14210  0.53501  1.0000
  C   C44       1.0  0.26684  0.85790  0.46498  1.0000
  N   N1        1.0  0.23116  0.44795  0.27894  1.0000
  N   N2        1.0  0.76884  0.55204  0.72107  1.0000
  N   N3        1.0  0.44229  0.58543  0.20603  1.0000
  N   N4        1.0  0.55771  0.41457  0.79396  1.0000
  N   N5        1.0  0.57639  0.12909  0.57453  1.0000
  N   N6        1.0  0.42361  0.87091  0.42547  1.0000
  N   N7        1.0  0.77140  0.27741  0.47760  1.0000
  N   N8        1.0  0.22860  0.72259  0.52240  1.0000
  O   O1        1.0  0.06210  0.14464  0.38182  1.0000
  O   O2        1.0  0.93790  0.85536  0.61818  1.0000
  O   O3        1.0  0.93644  0.29553  0.22553  1.0000
  O   O4        1.0  0.06356  0.70447  0.77447  1.0000
  O   O5        1.0  0.88302  0.63917  0.46835  1.0000
  O   O6        1.0  0.11698  0.36083  0.53165  1.0000
  O   O7        1.0  0.90401  0.57309  0.30949  1.0000
  O   O8        1.0  0.09599  0.42691  0.69051  1.0000
