data_image0
_chemical_formula_structural       Zn2P2H14C12N2O6
_chemical_formula_sum              "Zn2 P2 H14 C12 N2 O6"
_cell_length_a       5.12548
_cell_length_b       8.84745
_cell_length_c       11.2785
_cell_angle_alpha    84.0776
_cell_angle_beta     79.2359
_cell_angle_gamma    74.0936

_space_group_name_H-M_alt    "P 1"
_space_group_IT_number       1

loop_
  _space_group_symop_operation_xyz
  'x, y, z'

loop_
  _atom_site_type_symbol
  _atom_site_label
  _atom_site_symmetry_multiplicity
  _atom_site_fract_x
  _atom_site_fract_y
  _atom_site_fract_z
  _atom_site_occupancy
  Zn  Zn1       1.0  0.15073  0.15950  0.92001  1.0000
  Zn  Zn2       1.0  0.84927  0.84050  0.07999  1.0000
  P   P1        1.0  0.57095  0.20801  0.06373  1.0000
  P   P2        1.0  0.42905  0.79199  0.93627  1.0000
  H   H1        1.0  0.81367  0.34400  0.15577  1.0000
  H   H2        1.0  0.18632  0.65600  0.84423  1.0000
  H   H3        1.0  0.48609  0.34622  0.24584  1.0000
  H   H4        1.0  0.51391  0.65378  0.75416  1.0000
  H   H5        1.0  0.50970  0.47695  0.11324  1.0000
  H   H6        1.0  0.49030  0.52305  0.88676  1.0000
  H   H7        1.0  0.89857  0.44818  0.77506  1.0000
  H   H8        1.0  0.10142  0.55182  0.22494  1.0000
  H   H9        1.0  0.03707  0.60860  0.59375  1.0000
  H   H10       1.0  0.96293  0.39140  0.40625  1.0000
  H   H11       1.0  0.83369  0.26755  0.55118  1.0000
  H   H12       1.0  0.16631  0.73245  0.44882  1.0000
  H   H13       1.0  0.65773  0.12375  0.73601  1.0000
  H   H14       1.0  0.34226  0.87625  0.26398  1.0000
  C   C1        1.0  0.59479  0.35937  0.15339  1.0000
  C   C2        1.0  0.40521  0.64062  0.84661  1.0000
  C   C3        1.0  0.10327  0.41272  0.72153  1.0000
  C   C4        1.0  0.89673  0.58728  0.27847  1.0000
  C   C5        1.0  0.18394  0.50127  0.61928  1.0000
  C   C6        1.0  0.81606  0.49873  0.38072  1.0000
  C   C7        1.0  0.45144  0.45333  0.55377  1.0000
  C   C8        1.0  0.54855  0.54668  0.44623  1.0000
  C   C9        1.0  0.62326  0.31320  0.59624  1.0000
  C   C10       1.0  0.37674  0.68680  0.40375  1.0000
  C   C11       1.0  0.52792  0.23087  0.69935  1.0000
  C   C12       1.0  0.47208  0.76913  0.30065  1.0000
  N   N1        1.0  0.27156  0.28009  0.76112  1.0000
  N   N2        1.0  0.72844  0.71991  0.23887  1.0000
  O   O1        1.0  0.26610  0.23785  0.05101  1.0000
  O   O2        1.0  0.73391  0.76214  0.94898  1.0000
  O   O3        1.0  0.67997  0.05127  0.13408  1.0000
  O   O4        1.0  0.32004  0.94873  0.86592  1.0000
  O   O5        1.0  0.74948  0.22210  0.93774  1.0000
  O   O6        1.0  0.25053  0.77790  0.06226  1.0000
