data_image0
_chemical_formula_structural       Zn2P2H18C14N2O6
_chemical_formula_sum              "Zn2 P2 H18 C14 N2 O6"
_cell_length_a       5.22453
_cell_length_b       8.56631
_cell_length_c       11.2849
_cell_angle_alpha    67.3665
_cell_angle_beta     78.7696
_cell_angle_gamma    83.734

_space_group_name_H-M_alt    "P 1"
_space_group_IT_number       1

loop_
  _space_group_symop_operation_xyz
  'x, y, z'

loop_
  _atom_site_type_symbol
  _atom_site_label
  _atom_site_symmetry_multiplicity
  _atom_site_fract_x
  _atom_site_fract_y
  _atom_site_fract_z
  _atom_site_occupancy
  Zn  Zn1       1.0  0.23448  0.09447  0.60210  1.0000
  Zn  Zn2       1.0  0.76552  0.90553  0.39790  1.0000
  P   P1        1.0  0.78399  0.23563  0.44311  1.0000
  P   P2        1.0  0.21602  0.76438  0.55689  1.0000
  H   H1        1.0  0.73110  0.49814  0.26402  1.0000
  H   H2        1.0  0.26890  0.50187  0.73598  1.0000
  H   H3        1.0  0.66035  0.52540  0.41565  1.0000
  H   H4        1.0  0.33965  0.47460  0.58435  1.0000
  H   H5        1.0  0.42973  0.42591  0.37114  1.0000
  H   H6        1.0  0.57028  0.57408  0.62887  1.0000
  H   H7        1.0  0.41128  0.04299  0.85461  1.0000
  H   H8        1.0  0.58870  0.95701  0.14540  1.0000
  H   H9        1.0  0.30613  0.17244  0.02449  1.0000
  H   H10       1.0  0.69385  0.82755  0.97551  1.0000
  H   H11       1.0  0.96879  0.34058  0.12837  1.0000
  H   H12       1.0  0.03120  0.65943  0.87163  1.0000
  H   H13       1.0  0.71142  0.45415  0.04625  1.0000
  H   H14       1.0  0.28858  0.54584  0.95375  1.0000
  H   H15       1.0  0.64945  0.43442  0.84086  1.0000
  H   H16       1.0  0.35056  0.56559  0.15913  1.0000
  H   H17       1.0  0.77064  0.28477  0.68525  1.0000
  H   H18       1.0  0.22937  0.71522  0.31475  1.0000
  C   C1        1.0  0.63789  0.44186  0.36575  1.0000
  C   C2        1.0  0.36212  0.55814  0.63425  1.0000
  C   C3        1.0  0.24069  0.12765  0.85772  1.0000
  C   C4        1.0  0.75932  0.87235  0.14229  1.0000
  C   C5        1.0  0.18309  0.20173  0.95033  1.0000
  C   C6        1.0  0.81690  0.79828  0.04967  1.0000
  C   C7        1.0  0.97019  0.31765  0.94541  1.0000
  C   C8        1.0  0.02980  0.68235  0.05459  1.0000
  C   C9        1.0  0.92053  0.41824  0.03153  1.0000
  C   C10       1.0  0.07947  0.58176  0.96846  1.0000
  C   C11       1.0  0.81677  0.34523  0.84999  1.0000
  C   C12       1.0  0.18321  0.65477  0.15000  1.0000
  C   C13       1.0  0.88377  0.26455  0.76184  1.0000
  C   C14       1.0  0.11625  0.73544  0.23816  1.0000
  N   N1        1.0  0.09581  0.15958  0.76390  1.0000
  N   N2        1.0  0.90419  0.84040  0.23611  1.0000
  O   O1        1.0  0.60430  0.14512  0.57389  1.0000
  O   O2        1.0  0.39572  0.85488  0.42611  1.0000
  O   O3        1.0  0.05305  0.26160  0.46893  1.0000
  O   O4        1.0  0.94696  0.73840  0.53106  1.0000
  O   O5        1.0  0.80574  0.14554  0.34610  1.0000
  O   O6        1.0  0.19427  0.85446  0.65390  1.0000
