data_image0
_chemical_formula_structural       Zn4P4H28C16N8O12
_chemical_formula_sum              "Zn4 P4 H28 C16 N8 O12"
_cell_length_a       5.14678
_cell_length_b       8.40996
_cell_length_c       17.131
_cell_angle_alpha    90.0005
_cell_angle_beta     93.7377
_cell_angle_gamma    89.9998

_space_group_name_H-M_alt    "P 1"
_space_group_IT_number       1

loop_
  _space_group_symop_operation_xyz
  'x, y, z'

loop_
  _atom_site_type_symbol
  _atom_site_label
  _atom_site_symmetry_multiplicity
  _atom_site_fract_x
  _atom_site_fract_y
  _atom_site_fract_z
  _atom_site_occupancy
  Zn  Zn1       1.0  0.81692  0.64465  0.57079  1.0000
  Zn  Zn2       1.0  0.18308  0.14465  0.92921  1.0000
  Zn  Zn3       1.0  0.18308  0.35535  0.42921  1.0000
  Zn  Zn4       1.0  0.81693  0.85536  0.07079  1.0000
  P   P1        1.0  0.29650  0.71721  0.47432  1.0000
  P   P2        1.0  0.70349  0.21721  0.02568  1.0000
  P   P3        1.0  0.70349  0.28279  0.52568  1.0000
  P   P4        1.0  0.29652  0.78279  0.97432  1.0000
  H   H1        1.0  0.25716  0.00249  0.46890  1.0000
  H   H2        1.0  0.74283  0.50250  0.03110  1.0000
  H   H3        1.0  0.74284  0.99751  0.53110  1.0000
  H   H4        1.0  0.25717  0.49751  0.96890  1.0000
  H   H5        1.0  0.97578  0.90476  0.42506  1.0000
  H   H6        1.0  0.02422  0.40476  0.07494  1.0000
  H   H7        1.0  0.02422  0.09524  0.57494  1.0000
  H   H8        1.0  0.97579  0.59525  0.92506  1.0000
  H   H9        1.0  0.26891  0.91723  0.37412  1.0000
  H   H10       1.0  0.73109  0.41724  0.12588  1.0000
  H   H11       1.0  0.73109  0.08277  0.62588  1.0000
  H   H12       1.0  0.26891  0.58277  0.87412  1.0000
  H   H13       1.0  0.38197  0.85131  0.65543  1.0000
  H   H14       1.0  0.61803  0.35131  0.84457  1.0000
  H   H15       1.0  0.61804  0.14868  0.34457  1.0000
  H   H16       1.0  0.38197  0.64870  0.15543  1.0000
  H   H17       1.0  0.49155  0.96399  0.80868  1.0000
  H   H18       1.0  0.50844  0.46400  0.69133  1.0000
  H   H19       1.0  0.50845  0.03600  0.19132  1.0000
  H   H20       1.0  0.49154  0.53601  0.30867  1.0000
  H   H21       1.0  0.11956  0.68402  0.74001  1.0000
  H   H22       1.0  0.88044  0.18403  0.75999  1.0000
  H   H23       1.0  0.88045  0.31597  0.25999  1.0000
  H   H24       1.0  0.11957  0.81597  0.24001  1.0000
  H   H25       1.0  0.95391  0.85822  0.84745  1.0000
  H   H26       1.0  0.04609  0.35823  0.65255  1.0000
  H   H27       1.0  0.04610  0.14177  0.15255  1.0000
  H   H28       1.0  0.95389  0.64177  0.34745  1.0000
  C   C1        1.0  0.18919  0.90312  0.43150  1.0000
  C   C2        1.0  0.81080  0.40313  0.06850  1.0000
  C   C3        1.0  0.81081  0.09688  0.56850  1.0000
  C   C4        1.0  0.18920  0.59688  0.93150  1.0000
  C   C5        1.0  0.55048  0.83512  0.69598  1.0000
  C   C6        1.0  0.44950  0.33513  0.80402  1.0000
  C   C7        1.0  0.44951  0.16486  0.30402  1.0000
  C   C8        1.0  0.55049  0.66488  0.19597  1.0000
  C   C9        1.0  0.60360  0.89176  0.77071  1.0000
  C   C10       1.0  0.39639  0.39176  0.72931  1.0000
  C   C11       1.0  0.39641  0.10824  0.22930  1.0000
  C   C12       1.0  0.60359  0.60824  0.27070  1.0000
  C   C13       1.0  0.93247  0.74357  0.73693  1.0000
  C   C14       1.0  0.06753  0.24358  0.76307  1.0000
  C   C15       1.0  0.06753  0.25642  0.26307  1.0000
  C   C16       1.0  0.93247  0.75643  0.23693  1.0000
  N   N1        1.0  0.75791  0.74232  0.67551  1.0000
  N   N2        1.0  0.24208  0.24233  0.82449  1.0000
  N   N3        1.0  0.24209  0.25766  0.32449  1.0000
  N   N4        1.0  0.75793  0.75768  0.17552  1.0000
  N   N5        1.0  0.84477  0.83232  0.79519  1.0000
  N   N6        1.0  0.15523  0.33233  0.70482  1.0000
  N   N7        1.0  0.15524  0.16767  0.20481  1.0000
  N   N8        1.0  0.84477  0.66768  0.29519  1.0000
  O   O1        1.0  0.59641  0.72090  0.48241  1.0000
  O   O2        1.0  0.40358  0.22090  0.01759  1.0000
  O   O3        1.0  0.40358  0.27910  0.51759  1.0000
  O   O4        1.0  0.59642  0.77910  0.98241  1.0000
  O   O5        1.0  0.18260  0.69686  0.55480  1.0000
  O   O6        1.0  0.81740  0.19687  0.94520  1.0000
  O   O7        1.0  0.81740  0.30313  0.44520  1.0000
  O   O8        1.0  0.18261  0.80314  0.05480  1.0000
  O   O9        1.0  0.19226  0.58865  0.41464  1.0000
  O   O10       1.0  0.80774  0.08865  0.08536  1.0000
  O   O11       1.0  0.80773  0.41135  0.58536  1.0000
  O   O12       1.0  0.19227  0.91135  0.91464  1.0000
