data_image0
_chemical_formula_structural       Nd2H38C54O16
_chemical_formula_sum              "Nd2 H38 C54 O16"
_cell_length_a       8.55067
_cell_length_b       13.2369
_cell_length_c       15.4544
_cell_angle_alpha    104.143
_cell_angle_beta     92.9688
_cell_angle_gamma    101.303

_space_group_name_H-M_alt    "P 1"
_space_group_IT_number       1

loop_
  _space_group_symop_operation_xyz
  'x, y, z'

loop_
  _atom_site_type_symbol
  _atom_site_label
  _atom_site_symmetry_multiplicity
  _atom_site_fract_x
  _atom_site_fract_y
  _atom_site_fract_z
  _atom_site_occupancy
  Nd  Nd1       1.0  0.08847  0.16462  0.54206  1.0000
  Nd  Nd2       1.0  0.91152  0.83537  0.45793  1.0000
  H   H1        1.0  0.42109  0.31081  0.55437  1.0000
  H   H2        1.0  0.57890  0.68918  0.44564  1.0000
  H   H3        1.0  0.27608  0.35773  0.52904  1.0000
  H   H4        1.0  0.72393  0.64227  0.47096  1.0000
  H   H5        1.0  0.75645  0.15305  0.57851  1.0000
  H   H6        1.0  0.24353  0.84695  0.42150  1.0000
  H   H7        1.0  0.73424  0.05283  0.49372  1.0000
  H   H8        1.0  0.26576  0.94717  0.50629  1.0000
  H   H9        1.0  0.89119  0.38952  0.80095  1.0000
  H   H10       1.0  0.10876  0.61046  0.19903  1.0000
  H   H11       1.0  0.89843  0.69509  0.66588  1.0000
  H   H12       1.0  0.10161  0.30492  0.33412  1.0000
  H   H13       1.0  0.51544  0.04413  0.89761  1.0000
  H   H14       1.0  0.48455  0.95587  0.10240  1.0000
  H   H15       1.0  0.38913  0.14756  0.81242  1.0000
  H   H16       1.0  0.61086  0.85245  0.18759  1.0000
  H   H17       1.0  0.91560  0.15159  0.23141  1.0000
  H   H18       1.0  0.08441  0.84840  0.76860  1.0000
  H   H19       1.0  0.65778  0.86731  0.65144  1.0000
  H   H20       1.0  0.34222  0.13269  0.34856  1.0000
  H   H21       1.0  0.69766  0.99977  0.95878  1.0000
  H   H22       1.0  0.30234  0.00023  0.04124  1.0000
  H   H23       1.0  0.52327  0.96544  0.56764  1.0000
  H   H24       1.0  0.47672  0.03456  0.43236  1.0000
  H   H25       1.0  0.80637  0.55224  0.88649  1.0000
  H   H26       1.0  0.19359  0.44775  0.11349  1.0000
  H   H27       1.0  0.99936  0.84786  0.25310  1.0000
  H   H28       1.0  0.00067  0.15214  0.74689  1.0000
  H   H29       1.0  0.98329  0.53305  0.58214  1.0000
  H   H30       1.0  0.01675  0.46696  0.41786  1.0000
  H   H31       1.0  0.91134  0.77110  0.09369  1.0000
  H   H32       1.0  0.08869  0.22890  0.90631  1.0000
  H   H33       1.0  0.91692  0.73342  0.95802  1.0000
  H   H34       1.0  0.08310  0.26659  0.04197  1.0000
  H   H35       1.0  0.83324  0.07638  0.07016  1.0000
  H   H36       1.0  0.16676  0.92363  0.92984  1.0000
  H   H37       1.0  0.67580  0.75432  0.71517  1.0000
  H   H38       1.0  0.32422  0.24570  0.28483  1.0000
  C   C1        1.0  0.84553  0.63482  0.78199  1.0000
  C   C2        1.0  0.15450  0.36518  0.21801  1.0000
  C   C3        1.0  0.89269  0.45745  0.77263  1.0000
  C   C4        1.0  0.10729  0.54254  0.22735  1.0000
  C   C5        1.0  0.89419  0.62776  0.69538  1.0000
  C   C6        1.0  0.10585  0.37224  0.30462  1.0000
  C   C7        1.0  0.94264  0.45149  0.68676  1.0000
  C   C8        1.0  0.05738  0.54850  0.31323  1.0000
  C   C9        1.0  0.52228  0.02823  0.82549  1.0000
  C   C10       1.0  0.47772  0.97177  0.17452  1.0000
  C   C11       1.0  0.44990  0.08660  0.77815  1.0000
  C   C12       1.0  0.55008  0.91341  0.22186  1.0000
  C   C13       1.0  0.59795  0.94731  0.78165  1.0000
  C   C14       1.0  0.40206  0.05270  0.21835  1.0000
  C   C15       1.0  0.35577  0.11747  0.63241  1.0000
  C   C16       1.0  0.64422  0.88253  0.36759  1.0000
  C   C17       1.0  0.91505  0.06832  0.20037  1.0000
  C   C18       1.0  0.08494  0.93167  0.79963  1.0000
  C   C19       1.0  0.59796  0.92755  0.68792  1.0000
  C   C20       1.0  0.40203  0.07245  0.31209  1.0000
  C   C21       1.0  0.72421  0.92417  0.92373  1.0000
  C   C22       1.0  0.27578  0.07584  0.07628  1.0000
  C   C23       1.0  0.96233  0.00536  0.25346  1.0000
  C   C24       1.0  0.03764  0.99464  0.74654  1.0000
  C   C25       1.0  0.44718  0.06380  0.68453  1.0000
  C   C26       1.0  0.55281  0.93620  0.31548  1.0000
  C   C27       1.0  0.80824  0.87046  0.97158  1.0000
  C   C28       1.0  0.19177  0.12953  0.02843  1.0000
  C   C29       1.0  0.52249  0.98379  0.64012  1.0000
  C   C30       1.0  0.47749  0.01620  0.35988  1.0000
  C   C31       1.0  0.84600  0.54846  0.81997  1.0000
  C   C32       1.0  0.15399  0.45154  0.18001  1.0000
  C   C33       1.0  0.96233  0.89825  0.21341  1.0000
  C   C34       1.0  0.03769  0.10174  0.78658  1.0000
  C   C35       1.0  0.67763  0.88543  0.83128  1.0000
  C   C36       1.0  0.32238  0.11459  0.16873  1.0000
  C   C37       1.0  0.94334  0.53741  0.64858  1.0000
  C   C38       1.0  0.05668  0.46258  0.35142  1.0000
  C   C39       1.0  0.99466  0.35465  0.63733  1.0000
  C   C40       1.0  0.00536  0.64535  0.36267  1.0000
  C   C41       1.0  0.00943  0.05362  0.35042  1.0000
  C   C42       1.0  0.99056  0.94638  0.64957  1.0000
  C   C43       1.0  0.91332  0.85519  0.12240  1.0000
  C   C44       1.0  0.08668  0.14481  0.87760  1.0000
  C   C45       1.0  0.86297  0.91683  0.06831  1.0000
  C   C46       1.0  0.13701  0.08317  0.93170  1.0000
  C   C47       1.0  0.84453  0.77437  0.92417  1.0000
  C   C48       1.0  0.15549  0.22564  0.07584  1.0000
  C   C49       1.0  0.86649  0.02471  0.10964  1.0000
  C   C50       1.0  0.13348  0.97529  0.89036  1.0000
  C   C51       1.0  0.79831  0.73272  0.83193  1.0000
  C   C52       1.0  0.20171  0.26729  0.16807  1.0000
  C   C53       1.0  0.71364  0.78820  0.78650  1.0000
  C   C54       1.0  0.28636  0.21181  0.21350  1.0000
  O   O1        1.0  0.33005  0.29802  0.50962  1.0000
  O   O2        1.0  0.66995  0.70198  0.49037  1.0000
  O   O3        1.0  0.01133  0.99376  0.40544  1.0000
  O   O4        1.0  0.98866  0.00624  0.59456  1.0000
  O   O5        1.0  0.32099  0.07578  0.54643  1.0000
  O   O6        1.0  0.67902  0.92422  0.45358  1.0000
  O   O7        1.0  0.78860  0.13024  0.51847  1.0000
  O   O8        1.0  0.21139  0.86976  0.48154  1.0000
  O   O9        1.0  0.30444  0.19956  0.67007  1.0000
  O   O10       1.0  0.69555  0.80045  0.32992  1.0000
  O   O11       1.0  0.06081  0.35443  0.56435  1.0000
  O   O12       1.0  0.93922  0.64555  0.43565  1.0000
  O   O13       1.0  0.04756  0.15452  0.38082  1.0000
  O   O14       1.0  0.95240  0.84546  0.61916  1.0000
  O   O15       1.0  0.97202  0.27136  0.66751  1.0000
  O   O16       1.0  0.02798  0.72863  0.33249  1.0000
