data_image0
_chemical_formula_structural       Zn4H48C72N8O16
_chemical_formula_sum              "Zn4 H48 C72 N8 O16"
_cell_length_a       11.3805
_cell_length_b       12.5178
_cell_length_c       15.2162
_cell_angle_alpha    67.82
_cell_angle_beta     68.0413
_cell_angle_gamma    62.9576

_space_group_name_H-M_alt    "P 1"
_space_group_IT_number       1

loop_
  _space_group_symop_operation_xyz
  'x, y, z'

loop_
  _atom_site_type_symbol
  _atom_site_label
  _atom_site_symmetry_multiplicity
  _atom_site_fract_x
  _atom_site_fract_y
  _atom_site_fract_z
  _atom_site_occupancy
  Zn  Zn1       1.0  0.95908  0.98340  0.64573  1.0000
  Zn  Zn2       1.0  0.58837  0.51648  0.85432  1.0000
  Zn  Zn3       1.0  0.04092  0.01660  0.35427  1.0000
  Zn  Zn4       1.0  0.41164  0.48352  0.14568  1.0000
  H   H1        1.0  0.85318  0.80343  0.62958  1.0000
  H   H2        1.0  0.28633  0.69606  0.87062  1.0000
  H   H3        1.0  0.14682  0.19657  0.37042  1.0000
  H   H4        1.0  0.71367  0.30394  0.12938  1.0000
  H   H5        1.0  0.44912  0.18400  0.64540  1.0000
  H   H6        1.0  0.27879  0.31525  0.85509  1.0000
  H   H7        1.0  0.55087  0.81600  0.35461  1.0000
  H   H8        1.0  0.72121  0.68475  0.14490  1.0000
  H   H9        1.0  0.73148  0.20258  0.87991  1.0000
  H   H10       1.0  0.81354  0.29713  0.62019  1.0000
  H   H11       1.0  0.26852  0.79741  0.12010  1.0000
  H   H12       1.0  0.18646  0.70287  0.37980  1.0000
  H   H13       1.0  0.29836  0.19384  0.58097  1.0000
  H   H14       1.0  0.07342  0.30544  0.91854  1.0000
  H   H15       1.0  0.70165  0.80616  0.41902  1.0000
  H   H16       1.0  0.92659  0.69456  0.08146  1.0000
  H   H17       1.0  0.63517  0.80022  0.63225  1.0000
  H   H18       1.0  0.06778  0.69911  0.86809  1.0000
  H   H19       1.0  0.36482  0.19979  0.36776  1.0000
  H   H20       1.0  0.93221  0.30089  0.13191  1.0000
  H   H21       1.0  0.67620  0.16896  0.64347  1.0000
  H   H22       1.0  0.48888  0.33034  0.85712  1.0000
  H   H23       1.0  0.32380  0.83104  0.35653  1.0000
  H   H24       1.0  0.51112  0.66966  0.14287  1.0000
  H   H25       1.0  0.08016  0.18277  0.59117  1.0000
  H   H26       1.0  0.85409  0.31724  0.90830  1.0000
  H   H27       1.0  0.91985  0.81723  0.40881  1.0000
  H   H28       1.0  0.14593  0.68276  0.09169  1.0000
  H   H29       1.0  0.43983  0.79635  0.70500  1.0000
  H   H30       1.0  0.94143  0.70327  0.79577  1.0000
  H   H31       1.0  0.56015  0.20365  0.29502  1.0000
  H   H32       1.0  0.05857  0.29673  0.20423  1.0000
  H   H33       1.0  0.21862  0.80362  0.70356  1.0000
  H   H34       1.0  0.72592  0.69658  0.79696  1.0000
  H   H35       1.0  0.78137  0.19638  0.29645  1.0000
  H   H36       1.0  0.27408  0.30342  0.20305  1.0000
  H   H37       1.0  0.49246  0.09475  0.16953  1.0000
  H   H38       1.0  0.75651  0.40540  0.33047  1.0000
  H   H39       1.0  0.50754  0.90525  0.83046  1.0000
  H   H40       1.0  0.24348  0.59460  0.66952  1.0000
  H   H41       1.0  0.56351  0.88584  0.14580  1.0000
  H   H42       1.0  0.59478  0.61432  0.35440  1.0000
  H   H43       1.0  0.43648  0.11417  0.85421  1.0000
  H   H44       1.0  0.40521  0.38568  0.64560  1.0000
  H   H45       1.0  0.72764  0.83393  0.98884  1.0000
  H   H46       1.0  0.55006  0.66597  0.51138  1.0000
  H   H47       1.0  0.27235  0.16607  0.01117  1.0000
  H   H48       1.0  0.44994  0.33404  0.48862  1.0000
  C   C1        1.0  0.56842  0.28638  0.04201  1.0000
  C   C2        1.0  0.89645  0.21366  0.45810  1.0000
  C   C3        1.0  0.43159  0.71361  0.95799  1.0000
  C   C4        1.0  0.10354  0.78635  0.54189  1.0000
  C   C5        1.0  0.38936  0.99523  0.64249  1.0000
  C   C6        1.0  0.02738  0.50421  0.85764  1.0000
  C   C7        1.0  0.61063  0.00477  0.35752  1.0000
  C   C8        1.0  0.97263  0.49579  0.14236  1.0000
  C   C9        1.0  0.76099  0.88601  0.63263  1.0000
  C   C10       1.0  0.27981  0.61346  0.86758  1.0000
  C   C11       1.0  0.23901  0.11399  0.36738  1.0000
  C   C12       1.0  0.72019  0.38654  0.13243  1.0000
  C   C13       1.0  0.53641  0.09795  0.64019  1.0000
  C   C14       1.0  0.27486  0.40133  0.86021  1.0000
  C   C15       1.0  0.46359  0.90205  0.35982  1.0000
  C   C16       1.0  0.72514  0.59867  0.13979  1.0000
  C   C17       1.0  0.69732  0.13245  0.93940  1.0000
  C   C18       1.0  0.76853  0.36734  0.56082  1.0000
  C   C19       1.0  0.30268  0.86754  0.06061  1.0000
  C   C20       1.0  0.23146  0.63266  0.43918  1.0000
  C   C21       1.0  0.52204  0.99348  0.63796  1.0000
  C   C22       1.0  0.15378  0.50581  0.86229  1.0000
  C   C23       1.0  0.47796  0.00653  0.36205  1.0000
  C   C24       1.0  0.84622  0.49418  0.13771  1.0000
  C   C25       1.0  0.28484  0.10501  0.61140  1.0000
  C   C26       1.0  0.00152  0.39449  0.88831  1.0000
  C   C27       1.0  0.71516  0.89499  0.38860  1.0000
  C   C28       1.0  0.99848  0.60551  0.11168  1.0000
  C   C29       1.0  0.83418  0.98449  0.83142  1.0000
  C   C30       1.0  0.64981  0.51515  0.66886  1.0000
  C   C31       1.0  0.16582  0.01550  0.16859  1.0000
  C   C32       1.0  0.35019  0.48485  0.33113  1.0000
  C   C33       1.0  0.63876  0.88517  0.63378  1.0000
  C   C34       1.0  0.15793  0.61419  0.86646  1.0000
  C   C35       1.0  0.36124  0.11484  0.36622  1.0000
  C   C36       1.0  0.84207  0.38581  0.13355  1.0000
  C   C37       1.0  0.66238  0.09040  0.63952  1.0000
  C   C38       1.0  0.39257  0.40897  0.86089  1.0000
  C   C39       1.0  0.33762  0.90961  0.36047  1.0000
  C   C40       1.0  0.60743  0.59104  0.13911  1.0000
  C   C41       1.0  0.16298  0.09999  0.61604  1.0000
  C   C42       1.0  0.87908  0.39991  0.88367  1.0000
  C   C43       1.0  0.83702  0.90001  0.38394  1.0000
  C   C44       1.0  0.12092  0.60009  0.11633  1.0000
  C   C45       1.0  0.74071  0.01437  0.92627  1.0000
  C   C46       1.0  0.68072  0.48534  0.57405  1.0000
  C   C47       1.0  0.25929  0.98562  0.07374  1.0000
  C   C48       1.0  0.31928  0.51466  0.42595  1.0000
  C   C49       1.0  0.36416  0.88469  0.67846  1.0000
  C   C50       1.0  0.92755  0.61499  0.82199  1.0000
  C   C51       1.0  0.63584  0.11531  0.32155  1.0000
  C   C52       1.0  0.07246  0.38501  0.17802  1.0000
  C   C53       1.0  0.24031  0.88788  0.67922  1.0000
  C   C54       1.0  0.80757  0.61216  0.82107  1.0000
  C   C55       1.0  0.75968  0.11213  0.32078  1.0000
  C   C56       1.0  0.19244  0.38784  0.17893  1.0000
  C   C57       1.0  0.56245  0.07098  0.10197  1.0000
  C   C58       1.0  0.73494  0.42905  0.39813  1.0000
  C   C59       1.0  0.43756  0.92902  0.89803  1.0000
  C   C60       1.0  0.26505  0.57095  0.60186  1.0000
  C   C61       1.0  0.60994  0.16067  0.02784  1.0000
  C   C62       1.0  0.79790  0.33932  0.47230  1.0000
  C   C63       1.0  0.39006  0.83932  0.97217  1.0000
  C   C64       1.0  0.20210  0.66068  0.52769  1.0000
  C   C65       1.0  0.60392  0.95373  0.08845  1.0000
  C   C66       1.0  0.64559  0.54627  0.41176  1.0000
  C   C67       1.0  0.39607  0.04627  0.91156  1.0000
  C   C68       1.0  0.35440  0.45373  0.58823  1.0000
  C   C69       1.0  0.69406  0.92477  0.00140  1.0000
  C   C70       1.0  0.61973  0.57507  0.49889  1.0000
  C   C71       1.0  0.30593  0.07523  0.99861  1.0000
  C   C72       1.0  0.38026  0.42493  0.50111  1.0000
  N   N1        1.0  0.14115  0.99308  0.64825  1.0000
  N   N2        1.0  0.78251  0.50705  0.85175  1.0000
  N   N3        1.0  0.85885  0.00693  0.35175  1.0000
  N   N4        1.0  0.21749  0.49295  0.14825  1.0000
  N   N5        1.0  0.77363  0.98595  0.63588  1.0000
  N   N6        1.0  0.39563  0.51351  0.86441  1.0000
  N   N7        1.0  0.22637  0.01406  0.36412  1.0000
  N   N8        1.0  0.60437  0.48649  0.13560  1.0000
  O   O1        1.0  0.61461  0.36368  0.97260  1.0000
  O   O2        1.0  0.95049  0.13638  0.52753  1.0000
  O   O3        1.0  0.38540  0.63631  0.02739  1.0000
  O   O4        1.0  0.04951  0.86363  0.47246  1.0000
  O   O5        1.0  0.49232  0.30715  0.12500  1.0000
  O   O6        1.0  0.92421  0.19291  0.37509  1.0000
  O   O7        1.0  0.50769  0.69284  0.87500  1.0000
  O   O8        1.0  0.07579  0.80709  0.62491  1.0000
  O   O9        1.0  0.84069  0.07617  0.75628  1.0000
  O   O10       1.0  0.67343  0.42349  0.74391  1.0000
  O   O11       1.0  0.15932  0.92382  0.24373  1.0000
  O   O12       1.0  0.32657  0.57652  0.25609  1.0000
  O   O13       1.0  0.90017  0.87253  0.82790  1.0000
  O   O14       1.0  0.60020  0.62714  0.67238  1.0000
  O   O15       1.0  0.09983  0.12746  0.17211  1.0000
  O   O16       1.0  0.39980  0.37287  0.32761  1.0000
