data_image0
_chemical_formula_structural       Mg4H32C16O32
_chemical_formula_sum              "Mg4 H32 C16 O32"
_cell_length_a       5.80055
_cell_length_b       10.1881
_cell_length_c       12.9708
_cell_angle_alpha    89.9999
_cell_angle_beta     90.0002
_cell_angle_gamma    99.4304

_space_group_name_H-M_alt    "P 1"
_space_group_IT_number       1

loop_
  _space_group_symop_operation_xyz
  'x, y, z'

loop_
  _atom_site_type_symbol
  _atom_site_label
  _atom_site_symmetry_multiplicity
  _atom_site_fract_x
  _atom_site_fract_y
  _atom_site_fract_z
  _atom_site_occupancy
  Mg  Mg1       1.0  0.82905  0.78847  0.41747  1.0000
  Mg  Mg2       1.0  0.17095  0.71153  0.91747  1.0000
  Mg  Mg3       1.0  0.17095  0.21153  0.58253  1.0000
  Mg  Mg4       1.0  0.82905  0.28847  0.08253  1.0000
  H   H1        1.0  0.45374  0.87058  0.24916  1.0000
  H   H2        1.0  0.54626  0.62942  0.74916  1.0000
  H   H3        1.0  0.54626  0.12943  0.75084  1.0000
  H   H4        1.0  0.45374  0.37058  0.25084  1.0000
  H   H5        1.0  0.66168  0.92004  0.08318  1.0000
  H   H6        1.0  0.33832  0.57996  0.58318  1.0000
  H   H7        1.0  0.33832  0.07996  0.91682  1.0000
  H   H8        1.0  0.66168  0.42004  0.41682  1.0000
  H   H9        1.0  0.73509  0.75517  0.22045  1.0000
  H   H10       1.0  0.26491  0.74482  0.72045  1.0000
  H   H11       1.0  0.26491  0.24483  0.77955  1.0000
  H   H12       1.0  0.73510  0.25517  0.27955  1.0000
  H   H13       1.0  0.01181  0.05261  0.12923  1.0000
  H   H14       1.0  0.98818  0.44739  0.62923  1.0000
  H   H15       1.0  0.98819  0.94739  0.87076  1.0000
  H   H16       1.0  0.01182  0.55261  0.37077  1.0000
  H   H17       1.0  0.78458  0.68007  0.60412  1.0000
  H   H18       1.0  0.21542  0.81993  0.10412  1.0000
  H   H19       1.0  0.21542  0.31993  0.39588  1.0000
  H   H20       1.0  0.78458  0.18007  0.89588  1.0000
  H   H21       1.0  0.67036  0.81255  0.60758  1.0000
  H   H22       1.0  0.32964  0.68745  0.10758  1.0000
  H   H23       1.0  0.32964  0.18745  0.39242  1.0000
  H   H24       1.0  0.67036  0.31255  0.89242  1.0000
  H   H25       1.0  0.28595  0.78453  0.42141  1.0000
  H   H26       1.0  0.71405  0.71547  0.92141  1.0000
  H   H27       1.0  0.71405  0.21547  0.57859  1.0000
  H   H28       1.0  0.28594  0.28453  0.07859  1.0000
  H   H29       1.0  0.22684  0.91319  0.48150  1.0000
  H   H30       1.0  0.77316  0.58680  0.98150  1.0000
  H   H31       1.0  0.77316  0.08680  0.51850  1.0000
  H   H32       1.0  0.22684  0.41320  0.01850  1.0000
  C   C1        1.0  0.64688  0.01856  0.34086  1.0000
  C   C2        1.0  0.35313  0.48143  0.84086  1.0000
  C   C3        1.0  0.35315  0.98143  0.65914  1.0000
  C   C4        1.0  0.64686  0.51857  0.15914  1.0000
  C   C5        1.0  0.63348  0.92708  0.24659  1.0000
  C   C6        1.0  0.36651  0.57292  0.74659  1.0000
  C   C7        1.0  0.36652  0.07292  0.75341  1.0000
  C   C8        1.0  0.63348  0.42708  0.25341  1.0000
  C   C9        1.0  0.66001  0.99823  0.14204  1.0000
  C   C10       1.0  0.33998  0.50177  0.64204  1.0000
  C   C11       1.0  0.33999  0.00177  0.85796  1.0000
  C   C12       1.0  0.66001  0.49823  0.35796  1.0000
  C   C13       1.0  0.44603  0.06383  0.11951  1.0000
  C   C14       1.0  0.55397  0.43617  0.61952  1.0000
  C   C15       1.0  0.55397  0.93616  0.88049  1.0000
  C   C16       1.0  0.44604  0.56384  0.38049  1.0000
  O   O1        1.0  0.72509  0.97361  0.42323  1.0000
  O   O2        1.0  0.27492  0.52639  0.92324  1.0000
  O   O3        1.0  0.27492  0.02640  0.57676  1.0000
  O   O4        1.0  0.72509  0.47360  0.07676  1.0000
  O   O5        1.0  0.57024  0.12732  0.33329  1.0000
  O   O6        1.0  0.42976  0.37268  0.83329  1.0000
  O   O7        1.0  0.42976  0.87270  0.66671  1.0000
  O   O8        1.0  0.57024  0.62731  0.16671  1.0000
  O   O9        1.0  0.79932  0.83894  0.25845  1.0000
  O   O10       1.0  0.20068  0.66106  0.75845  1.0000
  O   O11       1.0  0.20069  0.16107  0.74155  1.0000
  O   O12       1.0  0.79932  0.33893  0.24155  1.0000
  O   O13       1.0  0.86549  0.09549  0.13284  1.0000
  O   O14       1.0  0.13450  0.40451  0.63284  1.0000
  O   O15       1.0  0.13451  0.90452  0.86716  1.0000
  O   O16       1.0  0.86550  0.59549  0.36716  1.0000
  O   O17       1.0  0.24704  0.99106  0.12347  1.0000
  O   O18       1.0  0.75295  0.50894  0.62347  1.0000
  O   O19       1.0  0.75297  0.00895  0.87653  1.0000
  O   O20       1.0  0.24703  0.49105  0.37652  1.0000
  O   O21       1.0  0.48395  0.18634  0.09482  1.0000
  O   O22       1.0  0.51604  0.31367  0.59482  1.0000
  O   O23       1.0  0.51605  0.81367  0.90518  1.0000
  O   O24       1.0  0.48394  0.68633  0.40517  1.0000
  O   O25       1.0  0.79784  0.77208  0.57645  1.0000
  O   O26       1.0  0.20216  0.72792  0.07645  1.0000
  O   O27       1.0  0.20216  0.22791  0.42355  1.0000
  O   O28       1.0  0.79784  0.27209  0.92355  1.0000
  O   O29       1.0  0.17530  0.84961  0.42412  1.0000
  O   O30       1.0  0.82470  0.65039  0.92412  1.0000
  O   O31       1.0  0.82470  0.15039  0.57588  1.0000
  O   O32       1.0  0.17530  0.34961  0.07588  1.0000
