data_image0
_chemical_formula_structural       Zn4H36C56N24O12
_chemical_formula_sum              "Zn4 H36 C56 N24 O12"
_cell_length_a       8.80875
_cell_length_b       9.31612
_cell_length_c       17.1083
_cell_angle_alpha    90
_cell_angle_beta     90
_cell_angle_gamma    105.701

_space_group_name_H-M_alt    "P 1"
_space_group_IT_number       1

loop_
  _space_group_symop_operation_xyz
  'x, y, z'

loop_
  _atom_site_type_symbol
  _atom_site_label
  _atom_site_symmetry_multiplicity
  _atom_site_fract_x
  _atom_site_fract_y
  _atom_site_fract_z
  _atom_site_occupancy
  Zn  Zn1       1.0  0.00070  0.43830  0.67617  1.0000
  Zn  Zn2       1.0  0.49930  0.06170  0.17617  1.0000
  Zn  Zn3       1.0  0.99930  0.56170  0.32383  1.0000
  Zn  Zn4       1.0  0.50070  0.93830  0.82383  1.0000
  H   H1        1.0  0.38019  0.80545  0.40685  1.0000
  H   H2        1.0  0.11981  0.69455  0.90685  1.0000
  H   H3        1.0  0.61981  0.19455  0.59315  1.0000
  H   H4        1.0  0.88019  0.30545  0.09315  1.0000
  H   H5        1.0  0.35296  0.94245  0.52580  1.0000
  H   H6        1.0  0.14704  0.55755  0.02580  1.0000
  H   H7        1.0  0.64704  0.05755  0.47420  1.0000
  H   H8        1.0  0.85296  0.44245  0.97420  1.0000
  H   H9        1.0  0.06728  0.17596  0.39882  1.0000
  H   H10       1.0  0.43272  0.32404  0.89882  1.0000
  H   H11       1.0  0.93272  0.82404  0.60118  1.0000
  H   H12       1.0  0.56729  0.67596  0.10118  1.0000
  H   H13       1.0  0.09725  0.03832  0.27956  1.0000
  H   H14       1.0  0.40275  0.46169  0.77956  1.0000
  H   H15       1.0  0.90275  0.96168  0.72044  1.0000
  H   H16       1.0  0.59725  0.53832  0.22044  1.0000
  H   H17       1.0  0.04424  0.30914  0.51141  1.0000
  H   H18       1.0  0.45576  0.19086  0.01141  1.0000
  H   H19       1.0  0.95576  0.69086  0.48859  1.0000
  H   H20       1.0  0.54424  0.80914  0.98859  1.0000
  H   H21       1.0  0.23262  0.22491  0.72812  1.0000
  H   H22       1.0  0.26738  0.27509  0.22812  1.0000
  H   H23       1.0  0.76738  0.77509  0.27188  1.0000
  H   H24       1.0  0.73262  0.72491  0.77188  1.0000
  H   H25       1.0  0.28084  0.61095  0.53370  1.0000
  H   H26       1.0  0.21916  0.88905  0.03370  1.0000
  H   H27       1.0  0.71916  0.38905  0.46630  1.0000
  H   H28       1.0  0.78084  0.11095  0.96630  1.0000
  H   H29       1.0  0.29264  0.04474  0.63237  1.0000
  H   H30       1.0  0.20736  0.45525  0.13237  1.0000
  H   H31       1.0  0.70736  0.95525  0.36763  1.0000
  H   H32       1.0  0.79264  0.54475  0.86763  1.0000
  H   H33       1.0  0.58890  0.61727  0.67201  1.0000
  H   H34       1.0  0.91110  0.88273  0.17201  1.0000
  H   H35       1.0  0.41110  0.38273  0.32799  1.0000
  H   H36       1.0  0.08890  0.11727  0.82799  1.0000
  C   C1        1.0  0.31360  0.88837  0.40462  1.0000
  C   C2        1.0  0.18640  0.61164  0.90462  1.0000
  C   C3        1.0  0.68640  0.11163  0.59538  1.0000
  C   C4        1.0  0.81360  0.38837  0.09538  1.0000
  C   C5        1.0  0.29775  0.96642  0.47213  1.0000
  C   C6        1.0  0.20225  0.53359  0.97214  1.0000
  C   C7        1.0  0.70225  0.03358  0.52787  1.0000
  C   C8        1.0  0.79775  0.46642  0.02787  1.0000
  C   C9        1.0  0.20915  0.07123  0.47164  1.0000
  C   C10       1.0  0.29085  0.42877  0.97165  1.0000
  C   C11       1.0  0.79085  0.92877  0.52836  1.0000
  C   C12       1.0  0.70915  0.57123  0.02836  1.0000
  C   C13       1.0  0.13864  0.09700  0.40100  1.0000
  C   C14       1.0  0.36136  0.40301  0.90100  1.0000
  C   C15       1.0  0.86136  0.90300  0.59900  1.0000
  C   C16       1.0  0.63864  0.59700  0.09900  1.0000
  C   C17       1.0  0.15521  0.01980  0.33348  1.0000
  C   C18       1.0  0.34479  0.48021  0.83348  1.0000
  C   C19       1.0  0.84479  0.98020  0.66652  1.0000
  C   C20       1.0  0.65521  0.51980  0.16652  1.0000
  C   C21       1.0  0.24171  0.91344  0.33473  1.0000
  C   C22       1.0  0.25829  0.58656  0.83473  1.0000
  C   C23       1.0  0.75829  0.08656  0.66527  1.0000
  C   C24       1.0  0.74171  0.41344  0.16527  1.0000
  C   C25       1.0  0.25072  0.82450  0.26453  1.0000
  C   C26       1.0  0.24928  0.67550  0.76453  1.0000
  C   C27       1.0  0.74928  0.17550  0.73547  1.0000
  C   C28       1.0  0.75072  0.32450  0.23547  1.0000
  C   C29       1.0  0.18664  0.15104  0.54191  1.0000
  C   C30       1.0  0.31336  0.34896  0.04191  1.0000
  C   C31       1.0  0.81336  0.84896  0.45809  1.0000
  C   C32       1.0  0.68664  0.65104  0.95809  1.0000
  C   C33       1.0  0.10766  0.25931  0.55298  1.0000
  C   C34       1.0  0.39234  0.24069  0.05298  1.0000
  C   C35       1.0  0.89234  0.74069  0.44702  1.0000
  C   C36       1.0  0.60766  0.75931  0.94702  1.0000
  C   C37       1.0  0.20352  0.22209  0.66654  1.0000
  C   C38       1.0  0.29648  0.27790  0.16654  1.0000
  C   C39       1.0  0.79648  0.77790  0.33346  1.0000
  C   C40       1.0  0.70352  0.72209  0.83346  1.0000
  C   C41       1.0  0.37748  0.56331  0.51934  1.0000
  C   C42       1.0  0.12252  0.93669  0.01934  1.0000
  C   C43       1.0  0.62252  0.43668  0.48066  1.0000
  C   C44       1.0  0.87748  0.06331  0.98066  1.0000
  C   C45       1.0  0.49596  0.56701  0.57381  1.0000
  C   C46       1.0  0.00404  0.93299  0.07381  1.0000
  C   C47       1.0  0.50404  0.43299  0.42619  1.0000
  C   C48       1.0  0.99596  0.06701  0.92619  1.0000
  C   C49       1.0  0.62044  0.50372  0.55370  1.0000
  C   C50       1.0  0.87955  0.99628  0.05370  1.0000
  C   C51       1.0  0.37956  0.49628  0.44630  1.0000
  C   C52       1.0  0.12045  0.00372  0.94630  1.0000
  C   C53       1.0  0.75055  0.51234  0.60973  1.0000
  C   C54       1.0  0.74945  0.98766  0.10973  1.0000
  C   C55       1.0  0.24945  0.48766  0.39027  1.0000
  C   C56       1.0  0.25055  0.01234  0.89027  1.0000
  N   N1        1.0  0.15919  0.68662  0.24941  1.0000
  N   N2        1.0  0.34080  0.81338  0.74941  1.0000
  N   N3        1.0  0.84081  0.31338  0.75059  1.0000
  N   N4        1.0  0.65919  0.18662  0.25059  1.0000
  N   N5        1.0  0.20754  0.64502  0.18011  1.0000
  N   N6        1.0  0.29246  0.85498  0.68011  1.0000
  N   N7        1.0  0.79246  0.35498  0.81989  1.0000
  N   N8        1.0  0.70754  0.14502  0.31989  1.0000
  N   N9        1.0  0.32325  0.75218  0.15329  1.0000
  N   N10       1.0  0.17675  0.74782  0.65329  1.0000
  N   N11       1.0  0.67675  0.24781  0.84671  1.0000
  N   N12       1.0  0.82325  0.25218  0.34671  1.0000
  N   N13       1.0  0.35306  0.86617  0.20524  1.0000
  N   N14       1.0  0.14694  0.63383  0.70524  1.0000
  N   N15       1.0  0.64694  0.13383  0.79476  1.0000
  N   N16       1.0  0.85306  0.36617  0.29476  1.0000
  N   N17       1.0  0.11961  0.30229  0.63031  1.0000
  N   N18       1.0  0.38039  0.19771  0.13031  1.0000
  N   N19       1.0  0.88039  0.69771  0.36969  1.0000
  N   N20       1.0  0.61961  0.80229  0.86969  1.0000
  N   N21       1.0  0.24640  0.13068  0.61503  1.0000
  N   N22       1.0  0.25360  0.36932  0.11503  1.0000
  N   N23       1.0  0.75360  0.86932  0.38497  1.0000
  N   N24       1.0  0.74640  0.63068  0.88497  1.0000
  O   O1        1.0  0.86684  0.46325  0.58718  1.0000
  O   O2        1.0  0.63316  0.03675  0.08718  1.0000
  O   O3        1.0  0.13316  0.53675  0.41282  1.0000
  O   O4        1.0  0.36684  0.96325  0.91282  1.0000
  O   O5        1.0  0.74393  0.56681  0.67767  1.0000
  O   O6        1.0  0.75607  0.93319  0.17767  1.0000
  O   O7        1.0  0.25607  0.43319  0.32233  1.0000
  O   O8        1.0  0.24394  0.06681  0.82233  1.0000
  O   O9        1.0  0.49030  0.62971  0.64487  1.0000
  O   O10       1.0  0.00970  0.87029  0.14487  1.0000
  O   O11       1.0  0.50970  0.37029  0.35513  1.0000
  O   O12       1.0  0.99030  0.12971  0.85513  1.0000
