data_image0
_chemical_formula_structural       Ag2As2H38C38N2Cl2
_chemical_formula_sum              "Ag2 As2 H38 C38 N2 Cl2"
_cell_length_a       9.20524
_cell_length_b       10.2572
_cell_length_c       11.1655
_cell_angle_alpha    73.3873
_cell_angle_beta     66.8797
_cell_angle_gamma    71.8848

_space_group_name_H-M_alt    "P 1"
_space_group_IT_number       1

loop_
  _space_group_symop_operation_xyz
  'x, y, z'

loop_
  _atom_site_type_symbol
  _atom_site_label
  _atom_site_symmetry_multiplicity
  _atom_site_fract_x
  _atom_site_fract_y
  _atom_site_fract_z
  _atom_site_occupancy
  Ag  Ag1       1.0  0.54279  0.62914  0.99749  1.0000
  Ag  Ag2       1.0  0.45721  0.37086  0.00251  1.0000
  As  As1       1.0  0.36318  0.82014  0.11912  1.0000
  As  As2       1.0  0.63682  0.17986  0.88089  1.0000
  H   H1        1.0  0.81242  0.75242  0.00806  1.0000
  H   H2        1.0  0.18758  0.24758  0.99194  1.0000
  H   H3        1.0  0.01776  0.65796  0.97398  1.0000
  H   H4        1.0  0.98223  0.34204  0.02601  1.0000
  H   H5        1.0  0.85418  0.56955  0.03967  1.0000
  H   H6        1.0  0.14582  0.43045  0.96033  1.0000
  H   H7        1.0  0.15823  0.67773  0.73987  1.0000
  H   H8        1.0  0.84177  0.32227  0.26013  1.0000
  H   H9        1.0  0.15993  0.68819  0.51228  1.0000
  H   H10       1.0  0.84007  0.31182  0.48772  1.0000
  H   H11       1.0  0.90538  0.67409  0.48659  1.0000
  H   H12       1.0  0.09462  0.32593  0.51341  1.0000
  H   H13       1.0  0.66113  0.64960  0.69207  1.0000
  H   H14       1.0  0.33887  0.35040  0.30792  1.0000
  H   H15       1.0  0.36243  0.03574  0.94084  1.0000
  H   H16       1.0  0.63757  0.96426  0.05916  1.0000
  H   H17       1.0  0.34339  0.08150  0.08993  1.0000
  H   H18       1.0  0.65661  0.91850  0.91008  1.0000
  H   H19       1.0  0.53386  0.60696  0.29363  1.0000
  H   H20       1.0  0.46614  0.39304  0.70638  1.0000
  H   H21       1.0  0.56709  0.59753  0.50794  1.0000
  H   H22       1.0  0.43291  0.40246  0.49206  1.0000
  H   H23       1.0  0.43909  0.80157  0.62020  1.0000
  H   H24       1.0  0.56092  0.19843  0.37980  1.0000
  H   H25       1.0  0.27469  0.01625  0.52065  1.0000
  H   H26       1.0  0.72532  0.98374  0.47935  1.0000
  H   H27       1.0  0.23583  0.02529  0.31123  1.0000
  H   H28       1.0  0.76419  0.97472  0.68877  1.0000
  H   H29       1.0  0.14009  0.63294  0.20470  1.0000
  H   H30       1.0  0.85992  0.36706  0.79530  1.0000
  H   H31       1.0  0.84143  0.66328  0.27441  1.0000
  H   H32       1.0  0.15857  0.33671  0.72559  1.0000
  H   H33       1.0  0.66193  0.90131  0.27075  1.0000
  H   H34       1.0  0.33807  0.09869  0.72925  1.0000
  H   H35       1.0  0.78267  0.11089  0.19088  1.0000
  H   H36       1.0  0.21733  0.88910  0.80912  1.0000
  H   H37       1.0  0.07750  0.08036  0.12976  1.0000
  H   H38       1.0  0.92250  0.91964  0.87025  1.0000
  C   C1        1.0  0.90855  0.66204  0.83362  1.0000
  C   C2        1.0  0.09144  0.33796  0.16638  1.0000
  C   C3        1.0  0.89958  0.65995  0.97088  1.0000
  C   C4        1.0  0.10041  0.34005  0.02911  1.0000
  C   C5        1.0  0.05007  0.67348  0.72430  1.0000
  C   C6        1.0  0.94993  0.32652  0.27570  1.0000
  C   C7        1.0  0.05094  0.67795  0.59809  1.0000
  C   C8        1.0  0.94906  0.32205  0.40191  1.0000
  C   C9        1.0  0.91029  0.67012  0.58346  1.0000
  C   C10       1.0  0.08971  0.32988  0.41653  1.0000
  C   C11       1.0  0.77453  0.65766  0.69632  1.0000
  C   C12       1.0  0.22547  0.34235  0.30368  1.0000
  C   C13       1.0  0.40935  0.00546  0.02380  1.0000
  C   C14       1.0  0.59065  0.99454  0.97621  1.0000
  C   C15       1.0  0.38415  0.81684  0.28840  1.0000
  C   C16       1.0  0.61585  0.18316  0.71160  1.0000
  C   C17       1.0  0.47704  0.69645  0.34398  1.0000
  C   C18       1.0  0.52296  0.30354  0.65602  1.0000
  C   C19       1.0  0.49619  0.69162  0.46362  1.0000
  C   C20       1.0  0.50381  0.30838  0.53638  1.0000
  C   C21       1.0  0.42469  0.80686  0.52648  1.0000
  C   C22       1.0  0.57533  0.19314  0.47353  1.0000
  C   C23       1.0  0.33194  0.92687  0.47085  1.0000
  C   C24       1.0  0.66807  0.07312  0.52916  1.0000
  C   C25       1.0  0.31076  0.93175  0.35240  1.0000
  C   C26       1.0  0.68926  0.06825  0.64760  1.0000
  C   C27       1.0  0.12777  0.85447  0.16659  1.0000
  C   C28       1.0  0.87223  0.14553  0.83342  1.0000
  C   C29       1.0  0.06106  0.73732  0.20530  1.0000
  C   C30       1.0  0.93895  0.26268  0.79469  1.0000
  C   C31       1.0  0.89347  0.75459  0.24337  1.0000
  C   C32       1.0  0.10653  0.24541  0.75663  1.0000
  C   C33       1.0  0.79280  0.88860  0.23992  1.0000
  C   C34       1.0  0.20720  0.11140  0.76008  1.0000
  C   C35       1.0  0.85980  0.00566  0.19725  1.0000
  C   C36       1.0  0.14020  0.99434  0.80275  1.0000
  C   C37       1.0  0.02708  0.98839  0.16180  1.0000
  C   C38       1.0  0.97292  0.01161  0.83820  1.0000
  N   N1        1.0  0.77302  0.65388  0.81829  1.0000
  N   N2        1.0  0.22698  0.34613  0.18171  1.0000
  Cl  Cl1       1.0  0.37098  0.60996  0.85755  1.0000
  Cl  Cl2       1.0  0.62902  0.39004  0.14246  1.0000
