data_image0
_chemical_formula_structural       Cd2H48C36N8Cl4
_chemical_formula_sum              "Cd2 H48 C36 N8 Cl4"
_cell_length_a       8.83485
_cell_length_b       8.83493
_cell_length_c       12.444
_cell_angle_alpha    74.3754
_cell_angle_beta     74.3758
_cell_angle_gamma    85.8612

_space_group_name_H-M_alt    "P 1"
_space_group_IT_number       1

loop_
  _space_group_symop_operation_xyz
  'x, y, z'

loop_
  _atom_site_type_symbol
  _atom_site_label
  _atom_site_symmetry_multiplicity
  _atom_site_fract_x
  _atom_site_fract_y
  _atom_site_fract_z
  _atom_site_occupancy
  Cd  Cd1       1.0  0.87856  0.12144  0.75000  1.0000
  Cd  Cd2       1.0  0.12143  0.87856  0.25000  1.0000
  H   H1        1.0  0.03489  0.76324  0.71475  1.0000
  H   H2        1.0  0.23676  0.96512  0.78525  1.0000
  H   H3        1.0  0.96512  0.23676  0.28525  1.0000
  H   H4        1.0  0.76324  0.03488  0.21474  1.0000
  H   H5        1.0  0.17791  0.68722  0.92214  1.0000
  H   H6        1.0  0.31278  0.82209  0.57787  1.0000
  H   H7        1.0  0.82209  0.31279  0.07786  1.0000
  H   H8        1.0  0.68722  0.17791  0.42214  1.0000
  H   H9        1.0  0.05716  0.55896  0.89457  1.0000
  H   H10       1.0  0.44104  0.94283  0.60544  1.0000
  H   H11       1.0  0.94284  0.44104  0.10543  1.0000
  H   H12       1.0  0.55896  0.05717  0.39456  1.0000
  H   H13       1.0  0.33531  0.48187  0.83619  1.0000
  H   H14       1.0  0.51813  0.66470  0.66382  1.0000
  H   H15       1.0  0.66470  0.51813  0.16381  1.0000
  H   H16       1.0  0.48187  0.33530  0.33618  1.0000
  H   H17       1.0  0.25360  0.53884  0.71735  1.0000
  H   H18       1.0  0.46116  0.74640  0.78266  1.0000
  H   H19       1.0  0.74640  0.46116  0.28266  1.0000
  H   H20       1.0  0.53884  0.25361  0.21734  1.0000
  H   H21       1.0  0.83891  0.62445  0.92193  1.0000
  H   H22       1.0  0.37555  0.16109  0.57807  1.0000
  H   H23       1.0  0.16109  0.37556  0.07807  1.0000
  H   H24       1.0  0.62444  0.83891  0.42194  1.0000
  H   H25       1.0  0.76711  0.75180  0.80972  1.0000
  H   H26       1.0  0.24820  0.23289  0.69028  1.0000
  H   H27       1.0  0.23289  0.24821  0.19028  1.0000
  H   H28       1.0  0.75178  0.76712  0.30973  1.0000
  H   H29       1.0  0.51034  0.97356  0.18667  1.0000
  H   H30       1.0  0.02644  0.48966  0.31333  1.0000
  H   H31       1.0  0.48966  0.02644  0.81334  1.0000
  H   H32       1.0  0.97357  0.51034  0.68666  1.0000
  H   H33       1.0  0.76340  0.94022  0.04460  1.0000
  H   H34       1.0  0.05979  0.23659  0.45539  1.0000
  H   H35       1.0  0.23660  0.05978  0.95540  1.0000
  H   H36       1.0  0.94022  0.76341  0.54461  1.0000
  H   H37       1.0  0.51797  0.62286  0.94000  1.0000
  H   H38       1.0  0.37712  0.48203  0.56000  1.0000
  H   H39       1.0  0.48203  0.37714  0.05999  1.0000
  H   H40       1.0  0.62287  0.51797  0.44001  1.0000
  H   H41       1.0  0.27641  0.66831  0.08794  1.0000
  H   H42       1.0  0.33167  0.72359  0.41207  1.0000
  H   H43       1.0  0.72359  0.33169  0.91206  1.0000
  H   H44       1.0  0.66833  0.27641  0.58793  1.0000
  H   H45       1.0  0.96508  0.86149  0.92938  1.0000
  H   H46       1.0  0.13851  0.03492  0.57063  1.0000
  H   H47       1.0  0.03492  0.13851  0.07062  1.0000
  H   H48       1.0  0.86149  0.96509  0.42937  1.0000
  C   C1        1.0  0.07666  0.79615  0.78137  1.0000
  C   C2        1.0  0.20384  0.92333  0.71864  1.0000
  C   C3        1.0  0.92334  0.20384  0.21863  1.0000
  C   C4        1.0  0.79615  0.07666  0.28137  1.0000
  C   C5        1.0  0.14666  0.65143  0.85250  1.0000
  C   C6        1.0  0.34859  0.85334  0.64751  1.0000
  C   C7        1.0  0.85334  0.34858  0.14750  1.0000
  C   C8        1.0  0.65142  0.14666  0.35249  1.0000
  C   C9        1.0  0.29011  0.58404  0.78088  1.0000
  C   C10       1.0  0.41597  0.70990  0.71913  1.0000
  C   C11       1.0  0.70990  0.41597  0.21913  1.0000
  C   C12       1.0  0.58403  0.29011  0.28087  1.0000
  C   C13       1.0  0.80333  0.74719  0.88871  1.0000
  C   C14       1.0  0.25281  0.19667  0.61129  1.0000
  C   C15       1.0  0.19667  0.25281  0.11129  1.0000
  C   C16       1.0  0.74719  0.80333  0.38871  1.0000
  C   C17       1.0  0.51853  0.89604  0.13017  1.0000
  C   C18       1.0  0.10397  0.48146  0.36983  1.0000
  C   C19       1.0  0.48147  0.10396  0.86984  1.0000
  C   C20       1.0  0.89604  0.51853  0.63016  1.0000
  C   C21       1.0  0.65888  0.87741  0.05035  1.0000
  C   C22       1.0  0.12259  0.34111  0.44964  1.0000
  C   C23       1.0  0.34112  0.12259  0.94964  1.0000
  C   C24       1.0  0.87741  0.65888  0.55036  1.0000
  C   C25       1.0  0.66191  0.77928  0.97841  1.0000
  C   C26       1.0  0.22072  0.33808  0.52159  1.0000
  C   C27       1.0  0.33808  0.22072  0.02159  1.0000
  C   C28       1.0  0.77928  0.66192  0.47842  1.0000
  C   C29       1.0  0.52236  0.70084  0.99366  1.0000
  C   C30       1.0  0.29915  0.47763  0.50634  1.0000
  C   C31       1.0  0.47764  0.29916  0.00634  1.0000
  C   C32       1.0  0.70085  0.52236  0.49366  1.0000
  C   C33       1.0  0.38797  0.72495  0.07544  1.0000
  C   C34       1.0  0.27504  0.61203  0.42456  1.0000
  C   C35       1.0  0.61203  0.27505  0.92456  1.0000
  C   C36       1.0  0.72496  0.38797  0.57544  1.0000
  N   N1        1.0  0.93627  0.85582  0.85553  1.0000
  N   N2        1.0  0.14418  0.06374  0.64447  1.0000
  N   N3        1.0  0.06374  0.14418  0.14446  1.0000
  N   N4        1.0  0.85582  0.93626  0.35553  1.0000
  N   N5        1.0  0.38450  0.82378  0.14148  1.0000
  N   N6        1.0  0.17621  0.61550  0.35852  1.0000
  N   N7        1.0  0.61550  0.17622  0.85852  1.0000
  N   N8        1.0  0.82380  0.38450  0.64148  1.0000
  Cl  Cl1       1.0  0.75802  0.99456  0.62547  1.0000
  Cl  Cl2       1.0  0.00544  0.24198  0.87453  1.0000
  Cl  Cl3       1.0  0.24197  0.00544  0.37453  1.0000
  Cl  Cl4       1.0  0.99455  0.75802  0.12547  1.0000
