data_image0
_chemical_formula_structural       Zn4H44C52N24O12
_chemical_formula_sum              "Zn4 H44 C52 N24 O12"
_cell_length_a       6.87588
_cell_length_b       13.4142
_cell_length_c       15.3079
_cell_angle_alpha    90
_cell_angle_beta     90
_cell_angle_gamma    91.3842

_space_group_name_H-M_alt    "P 1"
_space_group_IT_number       1

loop_
  _space_group_symop_operation_xyz
  'x, y, z'

loop_
  _atom_site_type_symbol
  _atom_site_label
  _atom_site_symmetry_multiplicity
  _atom_site_fract_x
  _atom_site_fract_y
  _atom_site_fract_z
  _atom_site_occupancy
  Zn  Zn1       1.0  0.58390  0.75363  0.02419  1.0000
  Zn  Zn2       1.0  0.91609  0.74637  0.52419  1.0000
  Zn  Zn3       1.0  0.41610  0.24637  0.97581  1.0000
  Zn  Zn4       1.0  0.08390  0.25363  0.47581  1.0000
  H   H1        1.0  0.25632  0.83726  0.97342  1.0000
  H   H2        1.0  0.24368  0.66274  0.47342  1.0000
  H   H3        1.0  0.74368  0.16274  0.02658  1.0000
  H   H4        1.0  0.75632  0.33726  0.52658  1.0000
  H   H5        1.0  0.18302  0.73238  0.01612  1.0000
  H   H6        1.0  0.31698  0.76763  0.51612  1.0000
  H   H7        1.0  0.81698  0.26762  0.98388  1.0000
  H   H8        1.0  0.68302  0.23238  0.48388  1.0000
  H   H9        1.0  0.47561  0.54538  0.06934  1.0000
  H   H10       1.0  0.02438  0.95462  0.56934  1.0000
  H   H11       1.0  0.52438  0.45461  0.93066  1.0000
  H   H12       1.0  0.97561  0.04538  0.43066  1.0000
  H   H13       1.0  0.35870  0.44416  0.19491  1.0000
  H   H14       1.0  0.14130  0.05584  0.69491  1.0000
  H   H15       1.0  0.64129  0.55584  0.80509  1.0000
  H   H16       1.0  0.85870  0.94416  0.30509  1.0000
  H   H17       1.0  0.40144  0.71131  0.35306  1.0000
  H   H18       1.0  0.09857  0.78869  0.85306  1.0000
  H   H19       1.0  0.59856  0.28869  0.64694  1.0000
  H   H20       1.0  0.90144  0.21131  0.14694  1.0000
  H   H21       1.0  0.52075  0.80177  0.22056  1.0000
  H   H22       1.0  0.97925  0.69823  0.72057  1.0000
  H   H23       1.0  0.47925  0.19823  0.77943  1.0000
  H   H24       1.0  0.02075  0.30177  0.27944  1.0000
  H   H25       1.0  0.25566  0.59593  0.62696  1.0000
  H   H26       1.0  0.24434  0.90407  0.12696  1.0000
  H   H27       1.0  0.74434  0.40407  0.37304  1.0000
  H   H28       1.0  0.75566  0.09593  0.87304  1.0000
  H   H29       1.0  0.07619  0.39062  0.81658  1.0000
  H   H30       1.0  0.42381  0.10938  0.31657  1.0000
  H   H31       1.0  0.92380  0.60938  0.18343  1.0000
  H   H32       1.0  0.57619  0.89062  0.68343  1.0000
  H   H33       1.0  0.04799  0.25676  0.70146  1.0000
  H   H34       1.0  0.45201  0.24324  0.20146  1.0000
  H   H35       1.0  0.95201  0.74324  0.29853  1.0000
  H   H36       1.0  0.54799  0.75676  0.79853  1.0000
  H   H37       1.0  0.13696  0.56081  0.93889  1.0000
  H   H38       1.0  0.36305  0.93919  0.43889  1.0000
  H   H39       1.0  0.86304  0.43918  0.06110  1.0000
  H   H40       1.0  0.63695  0.06081  0.56111  1.0000
  H   H41       1.0  0.91418  0.50081  0.90703  1.0000
  H   H42       1.0  0.58582  0.99919  0.40703  1.0000
  H   H43       1.0  0.08582  0.49919  0.09297  1.0000
  H   H44       1.0  0.41418  0.00081  0.59297  1.0000
  C   C1        1.0  0.45664  0.57958  0.13323  1.0000
  C   C2        1.0  0.04335  0.92042  0.63324  1.0000
  C   C3        1.0  0.54335  0.42042  0.86677  1.0000
  C   C4        1.0  0.95665  0.07958  0.36677  1.0000
  C   C5        1.0  0.39145  0.52326  0.20351  1.0000
  C   C6        1.0  0.10854  0.97674  0.70351  1.0000
  C   C7        1.0  0.60854  0.47674  0.79649  1.0000
  C   C8        1.0  0.89147  0.02326  0.29649  1.0000
  C   C9        1.0  0.37048  0.56916  0.28532  1.0000
  C   C10       1.0  0.12952  0.93084  0.78533  1.0000
  C   C11       1.0  0.62951  0.43084  0.71468  1.0000
  C   C12       1.0  0.87048  0.06916  0.21468  1.0000
  C   C13       1.0  0.41567  0.67153  0.29147  1.0000
  C   C14       1.0  0.08433  0.82847  0.79148  1.0000
  C   C15       1.0  0.58432  0.32847  0.70853  1.0000
  C   C16       1.0  0.91567  0.17153  0.20853  1.0000
  C   C17       1.0  0.48044  0.72266  0.21762  1.0000
  C   C18       1.0  0.01957  0.77734  0.71762  1.0000
  C   C19       1.0  0.51956  0.27734  0.78238  1.0000
  C   C20       1.0  0.98044  0.22266  0.28238  1.0000
  C   C21       1.0  0.30581  0.50975  0.35987  1.0000
  C   C22       1.0  0.19420  0.99025  0.85987  1.0000
  C   C23       1.0  0.69419  0.49025  0.64013  1.0000
  C   C24       1.0  0.80581  0.00975  0.14013  1.0000
  C   C25       1.0  0.22837  0.46067  0.48678  1.0000
  C   C26       1.0  0.27163  0.03933  0.98678  1.0000
  C   C27       1.0  0.77163  0.53933  0.51322  1.0000
  C   C28       1.0  0.72838  0.96067  0.01322  1.0000
  C   C29       1.0  0.19003  0.44622  0.57959  1.0000
  C   C30       1.0  0.30997  0.05378  0.07959  1.0000
  C   C31       1.0  0.80997  0.55378  0.42041  1.0000
  C   C32       1.0  0.69003  0.94622  0.92041  1.0000
  C   C33       1.0  0.20767  0.52020  0.64403  1.0000
  C   C34       1.0  0.29233  0.97980  0.14403  1.0000
  C   C35       1.0  0.79233  0.47980  0.35597  1.0000
  C   C36       1.0  0.70768  0.02020  0.85597  1.0000
  C   C37       1.0  0.10946  0.40774  0.74839  1.0000
  C   C38       1.0  0.39054  0.09226  0.24839  1.0000
  C   C39       1.0  0.89055  0.59226  0.25161  1.0000
  C   C40       1.0  0.60946  0.90774  0.75161  1.0000
  C   C41       1.0  0.09346  0.33299  0.68493  1.0000
  C   C42       1.0  0.40653  0.16701  0.18493  1.0000
  C   C43       1.0  0.90654  0.66701  0.31507  1.0000
  C   C44       1.0  0.59347  0.83299  0.81507  1.0000
  C   C45       1.0  0.88260  0.62765  0.99148  1.0000
  C   C46       1.0  0.61739  0.87235  0.49149  1.0000
  C   C47       1.0  0.11740  0.37235  0.00851  1.0000
  C   C48       1.0  0.38261  0.12765  0.50851  1.0000
  C   C49       1.0  0.99127  0.53683  0.96154  1.0000
  C   C50       1.0  0.50873  0.96317  0.46154  1.0000
  C   C51       1.0  0.00873  0.46317  0.03846  1.0000
  C   C52       1.0  0.49127  0.03684  0.53846  1.0000
  N   N1        1.0  0.50174  0.67774  0.13948  1.0000
  N   N2        1.0  0.99826  0.82226  0.63949  1.0000
  N   N3        1.0  0.49826  0.32226  0.86052  1.0000
  N   N4        1.0  0.00174  0.17774  0.36052  1.0000
  N   N5        1.0  0.29174  0.54301  0.44397  1.0000
  N   N6        1.0  0.20826  0.95699  0.94397  1.0000
  N   N7        1.0  0.70826  0.45699  0.55603  1.0000
  N   N8        1.0  0.79174  0.04301  0.05603  1.0000
  N   N9        1.0  0.20276  0.38256  0.43169  1.0000
  N   N10       1.0  0.29724  0.11744  0.93169  1.0000
  N   N11       1.0  0.79723  0.61744  0.56831  1.0000
  N   N12       1.0  0.70277  0.88256  0.06831  1.0000
  N   N13       1.0  0.25287  0.41265  0.35087  1.0000
  N   N14       1.0  0.24713  0.08735  0.85087  1.0000
  N   N15       1.0  0.74712  0.58735  0.64913  1.0000
  N   N16       1.0  0.75288  0.91265  0.14913  1.0000
  N   N17       1.0  0.13219  0.35235  0.60127  1.0000
  N   N18       1.0  0.36781  0.14765  0.10127  1.0000
  N   N19       1.0  0.86782  0.64765  0.39873  1.0000
  N   N20       1.0  0.63218  0.85235  0.89873  1.0000
  N   N21       1.0  0.16593  0.50127  0.72798  1.0000
  N   N22       1.0  0.33407  0.99873  0.22798  1.0000
  N   N23       1.0  0.83407  0.49873  0.27202  1.0000
  N   N24       1.0  0.66594  0.00127  0.77202  1.0000
  O   O1        1.0  0.96580  0.68997  0.04186  1.0000
  O   O2        1.0  0.53420  0.81003  0.54187  1.0000
  O   O3        1.0  0.03420  0.31003  0.95813  1.0000
  O   O4        1.0  0.46580  0.18997  0.45813  1.0000
  O   O5        1.0  0.70411  0.63482  0.96675  1.0000
  O   O6        1.0  0.79589  0.86518  0.46676  1.0000
  O   O7        1.0  0.29590  0.36518  0.03325  1.0000
  O   O8        1.0  0.20411  0.13482  0.53325  1.0000
  O   O9        1.0  0.29786  0.76732  0.98775  1.0000
  O   O10       1.0  0.20213  0.73268  0.48775  1.0000
  O   O11       1.0  0.70213  0.23267  0.01225  1.0000
  O   O12       1.0  0.79787  0.26732  0.51225  1.0000
