data_image0
_chemical_formula_structural       CoH24C24N4O8
_chemical_formula_sum              "Co1 H24 C24 N4 O8"
_cell_length_a       8.58232
_cell_length_b       7.2444
_cell_length_c       11.0112
_cell_angle_alpha    74.9863
_cell_angle_beta     68.0074
_cell_angle_gamma    72.6012

_space_group_name_H-M_alt    "P 1"
_space_group_IT_number       1

loop_
  _space_group_symop_operation_xyz
  'x, y, z'

loop_
  _atom_site_type_symbol
  _atom_site_label
  _atom_site_symmetry_multiplicity
  _atom_site_fract_x
  _atom_site_fract_y
  _atom_site_fract_z
  _atom_site_occupancy
  Co  Co1       1.0  0.50000  0.50000  1.00000  1.0000
  H   H1        1.0  0.32897  0.90602  0.03102  1.0000
  H   H2        1.0  0.67106  0.09397  0.96896  1.0000
  H   H3        1.0  0.50533  0.86678  0.91650  1.0000
  H   H4        1.0  0.49472  0.13322  0.08350  1.0000
  H   H5        1.0  0.95212  0.51624  0.16517  1.0000
  H   H6        1.0  0.04788  0.48374  0.83487  1.0000
  H   H7        1.0  0.97062  0.34448  0.06699  1.0000
  H   H8        1.0  0.02933  0.65559  0.93301  1.0000
  H   H9        1.0  0.84655  0.15275  0.59930  1.0000
  H   H10       1.0  0.15347  0.84725  0.40070  1.0000
  H   H11       1.0  0.66301  0.95254  0.59075  1.0000
  H   H12       1.0  0.33700  0.04746  0.40926  1.0000
  H   H13       1.0  0.63444  0.95269  0.36993  1.0000
  H   H14       1.0  0.36552  0.04732  0.63010  1.0000
  H   H15       1.0  0.80379  0.13945  0.16562  1.0000
  H   H16       1.0  0.19616  0.86053  0.83438  1.0000
  H   H17       1.0  0.28959  0.36675  0.27473  1.0000
  H   H18       1.0  0.71044  0.63319  0.72527  1.0000
  H   H19       1.0  0.28528  0.35489  0.49507  1.0000
  H   H20       1.0  0.71471  0.64511  0.50494  1.0000
  H   H21       1.0  0.68304  0.68738  0.32450  1.0000
  H   H22       1.0  0.31696  0.31266  0.67550  1.0000
  H   H23       1.0  0.65482  0.70860  0.10936  1.0000
  H   H24       1.0  0.34522  0.29138  0.89061  1.0000
  C   C1        1.0  0.19916  0.31839  0.11488  1.0000
  C   C2        1.0  0.80080  0.68161  0.88512  1.0000
  C   C3        1.0  0.00266  0.36291  0.15015  1.0000
  C   C4        1.0  0.99734  0.63710  0.84985  1.0000
  C   C5        1.0  0.93225  0.25525  0.38825  1.0000
  C   C6        1.0  0.06773  0.74472  0.61175  1.0000
  C   C7        1.0  0.83719  0.14274  0.50546  1.0000
  C   C8        1.0  0.16282  0.85725  0.49453  1.0000
  C   C9        1.0  0.73489  0.03417  0.49949  1.0000
  C   C10       1.0  0.26509  0.96580  0.50052  1.0000
  C   C11       1.0  0.72125  0.02943  0.37634  1.0000
  C   C12       1.0  0.27874  0.97059  0.62367  1.0000
  C   C13       1.0  0.81402  0.13180  0.26268  1.0000
  C   C14       1.0  0.18595  0.86821  0.73732  1.0000
  C   C15       1.0  0.37925  0.43321  0.28679  1.0000
  C   C16       1.0  0.62078  0.56679  0.71321  1.0000
  C   C17       1.0  0.37949  0.42501  0.41372  1.0000
  C   C18       1.0  0.62053  0.57503  0.58628  1.0000
  C   C19       1.0  0.49400  0.50809  0.43396  1.0000
  C   C20       1.0  0.50597  0.49195  0.56602  1.0000
  C   C21       1.0  0.59375  0.61223  0.31953  1.0000
  C   C22       1.0  0.40622  0.38777  0.68047  1.0000
  C   C23       1.0  0.58216  0.62142  0.19611  1.0000
  C   C24       1.0  0.41784  0.37856  0.80389  1.0000
  N   N1        1.0  0.91761  0.23814  0.26800  1.0000
  N   N2        1.0  0.08238  0.76182  0.73200  1.0000
  N   N3        1.0  0.48253  0.52490  0.17636  1.0000
  N   N4        1.0  0.51748  0.47507  0.82365  1.0000
  O   O1        1.0  0.38665  0.83997  0.95319  1.0000
  O   O2        1.0  0.61340  0.16003  0.04678  1.0000
  O   O3        1.0  0.26133  0.47289  0.06521  1.0000
  O   O4        1.0  0.73866  0.52714  0.93478  1.0000
  O   O5        1.0  0.28274  0.14273  0.13000  1.0000
  O   O6        1.0  0.71727  0.85726  0.87000  1.0000
  O   O7        1.0  0.02239  0.36503  0.38415  1.0000
  O   O8        1.0  0.97761  0.63497  0.61583  1.0000
