data_image0
_chemical_formula_structural       Sm4H56C44N4O32
_chemical_formula_sum              "Sm4 H56 C44 N4 O32"
_cell_length_a       8.44558
_cell_length_b       11.8139
_cell_length_c       13.4136
_cell_angle_alpha    90
_cell_angle_beta     90
_cell_angle_gamma    95.7631

_space_group_name_H-M_alt    "P 1"
_space_group_IT_number       1

loop_
  _space_group_symop_operation_xyz
  'x, y, z'

loop_
  _atom_site_type_symbol
  _atom_site_label
  _atom_site_symmetry_multiplicity
  _atom_site_fract_x
  _atom_site_fract_y
  _atom_site_fract_z
  _atom_site_occupancy
  Sm  Sm1       1.0  0.00684  0.83488  0.40438  1.0000
  Sm  Sm2       1.0  0.49316  0.16512  0.90438  1.0000
  Sm  Sm3       1.0  0.99316  0.16512  0.59562  1.0000
  Sm  Sm4       1.0  0.50684  0.83488  0.09562  1.0000
  H   H1        1.0  0.79960  0.02625  0.38625  1.0000
  H   H2        1.0  0.70040  0.97375  0.88625  1.0000
  H   H3        1.0  0.20040  0.97375  0.61375  1.0000
  H   H4        1.0  0.29960  0.02625  0.11375  1.0000
  H   H5        1.0  0.77926  0.97279  0.27557  1.0000
  H   H6        1.0  0.72074  0.02721  0.77557  1.0000
  H   H7        1.0  0.22074  0.02722  0.72443  1.0000
  H   H8        1.0  0.27926  0.97279  0.22443  1.0000
  H   H9        1.0  0.93950  0.76228  0.18987  1.0000
  H   H10       1.0  0.56050  0.23772  0.68987  1.0000
  H   H11       1.0  0.06050  0.23772  0.81013  1.0000
  H   H12       1.0  0.43950  0.76228  0.31013  1.0000
  H   H13       1.0  0.12665  0.75030  0.20038  1.0000
  H   H14       1.0  0.37335  0.24970  0.70038  1.0000
  H   H15       1.0  0.87335  0.24970  0.79962  1.0000
  H   H16       1.0  0.62665  0.75030  0.29962  1.0000
  H   H17       1.0  0.64913  0.45809  0.55750  1.0000
  H   H18       1.0  0.85087  0.54191  0.05750  1.0000
  H   H19       1.0  0.35087  0.54191  0.44250  1.0000
  H   H20       1.0  0.14913  0.45809  0.94250  1.0000
  H   H21       1.0  0.80122  0.42722  0.71639  1.0000
  H   H22       1.0  0.69878  0.57278  0.21639  1.0000
  H   H23       1.0  0.19877  0.57278  0.28361  1.0000
  H   H24       1.0  0.30122  0.42722  0.78361  1.0000
  H   H25       1.0  0.05387  0.54938  0.74769  1.0000
  H   H26       1.0  0.44613  0.45062  0.24769  1.0000
  H   H27       1.0  0.94613  0.45062  0.25231  1.0000
  H   H28       1.0  0.55387  0.54938  0.75231  1.0000
  H   H29       1.0  0.15066  0.69515  0.61935  1.0000
  H   H30       1.0  0.34934  0.30486  0.11935  1.0000
  H   H31       1.0  0.84934  0.30485  0.38065  1.0000
  H   H32       1.0  0.65066  0.69515  0.88065  1.0000
  H   H33       1.0  0.27852  0.26348  0.35943  1.0000
  H   H34       1.0  0.22147  0.73652  0.85943  1.0000
  H   H35       1.0  0.72148  0.73652  0.64057  1.0000
  H   H36       1.0  0.77853  0.26348  0.14057  1.0000
  H   H37       1.0  0.31207  0.17827  0.25323  1.0000
  H   H38       1.0  0.18793  0.82173  0.75323  1.0000
  H   H39       1.0  0.68793  0.82173  0.74677  1.0000
  H   H40       1.0  0.81207  0.17827  0.24677  1.0000
  H   H41       1.0  0.52246  0.08699  0.34711  1.0000
  H   H42       1.0  0.97754  0.91301  0.84711  1.0000
  H   H43       1.0  0.47754  0.91301  0.65289  1.0000
  H   H44       1.0  0.02246  0.08699  0.15289  1.0000
  H   H45       1.0  0.56668  0.23506  0.32922  1.0000
  H   H46       1.0  0.93332  0.76494  0.82922  1.0000
  H   H47       1.0  0.43332  0.76494  0.67078  1.0000
  H   H48       1.0  0.06668  0.23506  0.17078  1.0000
  H   H49       1.0  0.47302  0.27261  0.50297  1.0000
  H   H50       1.0  0.02698  0.72739  0.00297  1.0000
  H   H51       1.0  0.52698  0.72739  0.49703  1.0000
  H   H52       1.0  0.97302  0.27261  0.99703  1.0000
  H   H53       1.0  0.43013  0.12651  0.52442  1.0000
  H   H54       1.0  0.06987  0.87349  0.02442  1.0000
  H   H55       1.0  0.56987  0.87349  0.47558  1.0000
  H   H56       1.0  0.93013  0.12651  0.97558  1.0000
  C   C1        1.0  0.72966  0.61377  0.41508  1.0000
  C   C2        1.0  0.77034  0.38623  0.91508  1.0000
  C   C3        1.0  0.27034  0.38623  0.58492  1.0000
  C   C4        1.0  0.22966  0.61377  0.08492  1.0000
  C   C5        1.0  0.82253  0.59105  0.50780  1.0000
  C   C6        1.0  0.67747  0.40895  0.00780  1.0000
  C   C7        1.0  0.17747  0.40895  0.49220  1.0000
  C   C8        1.0  0.32253  0.59105  0.99220  1.0000
  C   C9        1.0  0.76194  0.50698  0.57444  1.0000
  C   C10       1.0  0.73806  0.49302  0.07444  1.0000
  C   C11       1.0  0.23806  0.49302  0.42556  1.0000
  C   C12       1.0  0.26194  0.50698  0.92556  1.0000
  C   C13       1.0  0.84501  0.49129  0.66213  1.0000
  C   C14       1.0  0.65499  0.50871  0.16213  1.0000
  C   C15       1.0  0.15498  0.50871  0.33787  1.0000
  C   C16       1.0  0.34501  0.49129  0.83787  1.0000
  C   C17       1.0  0.98679  0.55950  0.67956  1.0000
  C   C18       1.0  0.51321  0.44050  0.17956  1.0000
  C   C19       1.0  0.01321  0.44050  0.32044  1.0000
  C   C20       1.0  0.48679  0.55950  0.82044  1.0000
  C   C21       1.0  0.04020  0.64058  0.60852  1.0000
  C   C22       1.0  0.45980  0.35942  0.10852  1.0000
  C   C23       1.0  0.95979  0.35942  0.39148  1.0000
  C   C24       1.0  0.54020  0.64058  0.89148  1.0000
  C   C25       1.0  0.20187  0.08569  0.37568  1.0000
  C   C26       1.0  0.29813  0.91431  0.87568  1.0000
  C   C27       1.0  0.79813  0.91431  0.62432  1.0000
  C   C28       1.0  0.70187  0.08569  0.12432  1.0000
  C   C29       1.0  0.31609  0.18163  0.33498  1.0000
  C   C30       1.0  0.18391  0.81837  0.83498  1.0000
  C   C31       1.0  0.68391  0.81837  0.66502  1.0000
  C   C32       1.0  0.81609  0.18163  0.16502  1.0000
  C   C33       1.0  0.48782  0.17066  0.36939  1.0000
  C   C34       1.0  0.01218  0.82934  0.86939  1.0000
  C   C35       1.0  0.51218  0.82934  0.63060  1.0000
  C   C36       1.0  0.98782  0.17066  0.13061  1.0000
  C   C37       1.0  0.50866  0.18909  0.48147  1.0000
  C   C38       1.0  0.99134  0.81091  0.98147  1.0000
  C   C39       1.0  0.49135  0.81091  0.51853  1.0000
  C   C40       1.0  0.00865  0.18909  0.01853  1.0000
  C   C41       1.0  0.67538  0.18371  0.52002  1.0000
  C   C42       1.0  0.82462  0.81628  0.02002  1.0000
  C   C43       1.0  0.32462  0.81629  0.47998  1.0000
  C   C44       1.0  0.17538  0.18371  0.97998  1.0000
  N   N1        1.0  0.95979  0.65767  0.52413  1.0000
  N   N2        1.0  0.54021  0.34233  0.02413  1.0000
  N   N3        1.0  0.04021  0.34233  0.47587  1.0000
  N   N4        1.0  0.45979  0.65767  0.97587  1.0000
  O   O1        1.0  0.82849  0.96355  0.34292  1.0000
  O   O2        1.0  0.67151  0.03645  0.84292  1.0000
  O   O3        1.0  0.17151  0.03645  0.65708  1.0000
  O   O4        1.0  0.32849  0.96355  0.15708  1.0000
  O   O5        1.0  0.03155  0.77492  0.23615  1.0000
  O   O6        1.0  0.46845  0.22508  0.73615  1.0000
  O   O7        1.0  0.96845  0.22508  0.76385  1.0000
  O   O8        1.0  0.53155  0.77492  0.26385  1.0000
  O   O9        1.0  0.77740  0.70772  0.36806  1.0000
  O   O10       1.0  0.72260  0.29228  0.86806  1.0000
  O   O11       1.0  0.22260  0.29228  0.63194  1.0000
  O   O12       1.0  0.27740  0.70772  0.13194  1.0000
  O   O13       1.0  0.61387  0.54639  0.39058  1.0000
  O   O14       1.0  0.88613  0.45361  0.89058  1.0000
  O   O15       1.0  0.38613  0.45361  0.60942  1.0000
  O   O16       1.0  0.11387  0.54639  0.10942  1.0000
  O   O17       1.0  0.19270  0.98952  0.33102  1.0000
  O   O18       1.0  0.30730  0.01049  0.83102  1.0000
  O   O19       1.0  0.80730  0.01049  0.66898  1.0000
  O   O20       1.0  0.69270  0.98952  0.16898  1.0000
  O   O21       1.0  0.12200  0.09985  0.45392  1.0000
  O   O22       1.0  0.37800  0.90015  0.95392  1.0000
  O   O23       1.0  0.87801  0.90015  0.54608  1.0000
  O   O24       1.0  0.62199  0.09985  0.04608  1.0000
  O   O25       1.0  0.71611  0.23008  0.60355  1.0000
  O   O26       1.0  0.78388  0.76992  0.10355  1.0000
  O   O27       1.0  0.28389  0.76992  0.39645  1.0000
  O   O28       1.0  0.21611  0.23008  0.89645  1.0000
  O   O29       1.0  0.77759  0.13383  0.46997  1.0000
  O   O30       1.0  0.72241  0.86617  0.96997  1.0000
  O   O31       1.0  0.22241  0.86617  0.53003  1.0000
  O   O32       1.0  0.27759  0.13383  0.03003  1.0000
