data_image0
_chemical_formula_structural       Cu4H16C26N4O10
_chemical_formula_sum              "Cu4 H16 C26 N4 O10"
_cell_length_a       8.02599
_cell_length_b       8.02604
_cell_length_c       12.2917
_cell_angle_alpha    83.8274
_cell_angle_beta     83.827
_cell_angle_gamma    61.6523

_space_group_name_H-M_alt    "P 1"
_space_group_IT_number       1

loop_
  _space_group_symop_operation_xyz
  'x, y, z'

loop_
  _atom_site_type_symbol
  _atom_site_label
  _atom_site_symmetry_multiplicity
  _atom_site_fract_x
  _atom_site_fract_y
  _atom_site_fract_z
  _atom_site_occupancy
  Cu  Cu1       1.0  0.11549  0.00824  0.67341  1.0000
  Cu  Cu2       1.0  0.99177  0.88450  0.82660  1.0000
  Cu  Cu3       1.0  0.88449  0.99176  0.32659  1.0000
  Cu  Cu4       1.0  0.00824  0.11549  0.17341  1.0000
  H   H1        1.0  0.05709  0.38148  0.70323  1.0000
  H   H2        1.0  0.61853  0.94291  0.79677  1.0000
  H   H3        1.0  0.94291  0.61852  0.29677  1.0000
  H   H4        1.0  0.38147  0.05710  0.20322  1.0000
  H   H5        1.0  0.35519  0.53330  0.43286  1.0000
  H   H6        1.0  0.46669  0.64481  0.06714  1.0000
  H   H7        1.0  0.64483  0.46668  0.56714  1.0000
  H   H8        1.0  0.53330  0.35520  0.93285  1.0000
  H   H9        1.0  0.41756  0.23554  0.34683  1.0000
  H   H10       1.0  0.76445  0.58245  0.15317  1.0000
  H   H11       1.0  0.58245  0.76445  0.65317  1.0000
  H   H12       1.0  0.23553  0.41757  0.84683  1.0000
  H   H13       1.0  0.28792  0.02735  0.44567  1.0000
  H   H14       1.0  0.97265  0.71208  0.05434  1.0000
  H   H15       1.0  0.71206  0.97265  0.55433  1.0000
  H   H16       1.0  0.02734  0.28793  0.94567  1.0000
  C   C1        1.0  0.15920  0.64914  0.63424  1.0000
  C   C2        1.0  0.35086  0.84080  0.86576  1.0000
  C   C3        1.0  0.84082  0.35085  0.36576  1.0000
  C   C4        1.0  0.64914  0.15922  0.13423  1.0000
  C   C5        1.0  0.13756  0.35237  0.62428  1.0000
  C   C6        1.0  0.64763  0.86244  0.87573  1.0000
  C   C7        1.0  0.86244  0.64762  0.37572  1.0000
  C   C8        1.0  0.35237  0.13757  0.12427  1.0000
  C   C9        1.0  0.20294  0.47748  0.57535  1.0000
  C   C10       1.0  0.52253  0.79706  0.92466  1.0000
  C   C11       1.0  0.79707  0.52252  0.42466  1.0000
  C   C12       1.0  0.47747  0.20295  0.07534  1.0000
  C   C13       1.0  0.30401  0.43726  0.47335  1.0000
  C   C14       1.0  0.56274  0.69599  0.02665  1.0000
  C   C15       1.0  0.69600  0.56273  0.52665  1.0000
  C   C16       1.0  0.43725  0.30402  0.97335  1.0000
  C   C17       1.0  0.33580  0.27429  0.42513  1.0000
  C   C18       1.0  0.72571  0.66421  0.07488  1.0000
  C   C19       1.0  0.66420  0.72570  0.57488  1.0000
  C   C20       1.0  0.27428  0.33580  0.92512  1.0000
  C   C21       1.0  0.26589  0.15686  0.47964  1.0000
  C   C22       1.0  0.84314  0.73412  0.02037  1.0000
  C   C23       1.0  0.73411  0.84314  0.52036  1.0000
  C   C24       1.0  0.15685  0.26589  0.97963  1.0000
  C   C25       1.0  0.87542  0.12458  0.75000  1.0000
  C   C26       1.0  0.12458  0.87540  0.24999  1.0000
  N   N1        1.0  0.16821  0.19489  0.57830  1.0000
  N   N2        1.0  0.80511  0.83179  0.92171  1.0000
  N   N3        1.0  0.83178  0.80511  0.42170  1.0000
  N   N4        1.0  0.19489  0.16821  0.07829  1.0000
  O   O1        1.0  0.08589  0.65335  0.73196  1.0000
  O   O2        1.0  0.34666  0.91411  0.76804  1.0000
  O   O3        1.0  0.91416  0.34663  0.26805  1.0000
  O   O4        1.0  0.65334  0.08591  0.23195  1.0000
  O   O5        1.0  0.19508  0.77653  0.58370  1.0000
  O   O6        1.0  0.22347  0.80490  0.91630  1.0000
  O   O7        1.0  0.80491  0.22347  0.41629  1.0000
  O   O8        1.0  0.77653  0.19511  0.08370  1.0000
  O   O9        1.0  0.73192  0.26807  0.75000  1.0000
  O   O10       1.0  0.26806  0.73191  0.24999  1.0000
