data_image0
_chemical_formula_structural       Er4H40C24O26
_chemical_formula_sum              "Er4 H40 C24 O26"
_cell_length_a       8.33821
_cell_length_b       11.3152
_cell_length_c       11.3151
_cell_angle_alpha    91.8253
_cell_angle_beta     107.69
_cell_angle_gamma    107.689

_space_group_name_H-M_alt    "P 1"
_space_group_IT_number       1

loop_
  _space_group_symop_operation_xyz
  'x, y, z'

loop_
  _atom_site_type_symbol
  _atom_site_label
  _atom_site_symmetry_multiplicity
  _atom_site_fract_x
  _atom_site_fract_y
  _atom_site_fract_z
  _atom_site_occupancy
  Er  Er1       1.0  0.74683  0.86941  0.15433  1.0000
  Er  Er2       1.0  0.24682  0.15433  0.86941  1.0000
  Er  Er3       1.0  0.50579  0.50568  0.01912  1.0000
  Er  Er4       1.0  0.00579  0.01912  0.50568  1.0000
  H   H1        1.0  0.11336  0.73901  0.08671  1.0000
  H   H2        1.0  0.61339  0.08674  0.73903  1.0000
  H   H3        1.0  0.16123  0.59947  0.13673  1.0000
  H   H4        1.0  0.66123  0.13676  0.59949  1.0000
  H   H5        1.0  0.11425  0.62237  0.97742  1.0000
  H   H6        1.0  0.61423  0.97744  0.62237  1.0000
  H   H7        1.0  0.90351  0.83292  0.87502  1.0000
  H   H8        1.0  0.40353  0.87503  0.83291  1.0000
  H   H9        1.0  0.73563  0.74383  0.73631  1.0000
  H   H10       1.0  0.23567  0.73632  0.74383  1.0000
  H   H11       1.0  0.91810  0.69320  0.80672  1.0000
  H   H12       1.0  0.41812  0.80674  0.69319  1.0000
  H   H13       1.0  0.98714  0.49022  0.36540  1.0000
  H   H14       1.0  0.48715  0.36539  0.49022  1.0000
  H   H15       1.0  0.99500  0.62642  0.45693  1.0000
  H   H16       1.0  0.49500  0.45693  0.62642  1.0000
  H   H17       1.0  0.14049  0.64297  0.37067  1.0000
  H   H18       1.0  0.64048  0.37066  0.64298  1.0000
  H   H19       1.0  0.38694  0.97835  0.24752  1.0000
  H   H20       1.0  0.88692  0.24750  0.97834  1.0000
  H   H21       1.0  0.38073  0.07941  0.37193  1.0000
  H   H22       1.0  0.88073  0.37192  0.07941  1.0000
  H   H23       1.0  0.32518  0.91743  0.37820  1.0000
  H   H24       1.0  0.82517  0.37819  0.91742  1.0000
  H   H25       1.0  0.53411  0.64917  0.50787  1.0000
  H   H26       1.0  0.03405  0.50786  0.64918  1.0000
  H   H27       1.0  0.53923  0.62339  0.35105  1.0000
  H   H28       1.0  0.03919  0.35104  0.62339  1.0000
  H   H29       1.0  0.41169  0.71150  0.38120  1.0000
  H   H30       1.0  0.91167  0.38119  0.71152  1.0000
  H   H31       1.0  0.65553  0.27663  0.37047  1.0000
  H   H32       1.0  0.15555  0.37047  0.27664  1.0000
  H   H33       1.0  0.52989  0.20520  0.21076  1.0000
  H   H34       1.0  0.02990  0.21076  0.20522  1.0000
  H   H35       1.0  0.74210  0.31935  0.24755  1.0000
  H   H36       1.0  0.24212  0.24754  0.31935  1.0000
  H   H37       1.0  0.66004  0.03468  0.97094  1.0000
  H   H38       1.0  0.16007  0.97093  0.03467  1.0000
  H   H39       1.0  0.81297  0.00477  0.93580  1.0000
  H   H40       1.0  0.31300  0.93580  0.00477  1.0000
  C   C1        1.0  0.37212  0.73323  0.09356  1.0000
  C   C2        1.0  0.87211  0.09356  0.73323  1.0000
  C   C3        1.0  0.17790  0.67071  0.07402  1.0000
  C   C4        1.0  0.67790  0.07404  0.67072  1.0000
  C   C5        1.0  0.72496  0.65935  0.90106  1.0000
  C   C6        1.0  0.22497  0.90107  0.65933  1.0000
  C   C7        1.0  0.82792  0.73779  0.82720  1.0000
  C   C8        1.0  0.32795  0.82721  0.73778  1.0000
  C   C9        1.0  0.87074  0.61854  0.25999  1.0000
  C   C10       1.0  0.37074  0.25999  0.61854  1.0000
  C   C11       1.0  0.00544  0.59041  0.36926  1.0000
  C   C12       1.0  0.50544  0.36925  0.59041  1.0000
  C   C13       1.0  0.12441  0.96733  0.24931  1.0000
  C   C14       1.0  0.62439  0.24930  0.96732  1.0000
  C   C15       1.0  0.31782  0.98774  0.31353  1.0000
  C   C16       1.0  0.81781  0.31352  0.98774  1.0000
  C   C17       1.0  0.69081  0.80935  0.44769  1.0000
  C   C18       1.0  0.19079  0.44768  0.80934  1.0000
  C   C19       1.0  0.53579  0.69036  0.42188  1.0000
  C   C20       1.0  0.03577  0.42187  0.69036  1.0000
  C   C21       1.0  0.74874  0.13973  0.30069  1.0000
  C   C22       1.0  0.24874  0.30068  0.13973  1.0000
  C   C23       1.0  0.66238  0.24031  0.28182  1.0000
  C   C24       1.0  0.16240  0.28182  0.24032  1.0000
  O   O1        1.0  0.48254  0.67302  0.13077  1.0000
  O   O2        1.0  0.98254  0.13077  0.67302  1.0000
  O   O3        1.0  0.43338  0.84628  0.07558  1.0000
  O   O4        1.0  0.93337  0.07557  0.84627  1.0000
  O   O5        1.0  0.66454  0.54053  0.87439  1.0000
  O   O6        1.0  0.16454  0.87439  0.54052  1.0000
  O   O7        1.0  0.69218  0.71038  0.99074  1.0000
  O   O8        1.0  0.19218  0.99074  0.71036  1.0000
  O   O9        1.0  0.87899  0.73154  0.25547  1.0000
  O   O10       1.0  0.37896  0.25546  0.73153  1.0000
  O   O11       1.0  0.75578  0.52674  0.17892  1.0000
  O   O12       1.0  0.25578  0.17891  0.52673  1.0000
  O   O13       1.0  0.02963  0.98926  0.31256  1.0000
  O   O14       1.0  0.52963  0.31255  0.98926  1.0000
  O   O15       1.0  0.04559  0.92357  0.13398  1.0000
  O   O16       1.0  0.54557  0.13398  0.92356  1.0000
  O   O17       1.0  0.71904  0.86864  0.35696  1.0000
  O   O18       1.0  0.21902  0.35696  0.86864  1.0000
  O   O19       1.0  0.79392  0.85391  0.55918  1.0000
  O   O20       1.0  0.29392  0.55917  0.85389  1.0000
  O   O21       1.0  0.85344  0.14193  0.41076  1.0000
  O   O22       1.0  0.35346  0.41076  0.14193  1.0000
  O   O23       1.0  0.71507  0.06072  0.20690  1.0000
  O   O24       1.0  0.21506  0.20689  0.06072  1.0000
  O   O25       1.0  0.72928  0.97554  0.98356  1.0000
  O   O26       1.0  0.22925  0.98357  0.97553  1.0000
