data_image0
_chemical_formula_structural       Pr2H34C20O20
_chemical_formula_sum              "Pr2 H34 C20 O20"
_cell_length_a       8.7929
_cell_length_b       9.43889
_cell_length_c       11.5656
_cell_angle_alpha    103.273
_cell_angle_beta     97.1912
_cell_angle_gamma    111.274

_space_group_name_H-M_alt    "P 1"
_space_group_IT_number       1

loop_
  _space_group_symop_operation_xyz
  'x, y, z'

loop_
  _atom_site_type_symbol
  _atom_site_label
  _atom_site_symmetry_multiplicity
  _atom_site_fract_x
  _atom_site_fract_y
  _atom_site_fract_z
  _atom_site_occupancy
  Pr  Pr1       1.0  0.25532  0.51196  0.01637  1.0000
  Pr  Pr2       1.0  0.74468  0.48803  0.98362  1.0000
  H   H1        1.0  0.20704  0.52785  0.45206  1.0000
  H   H2        1.0  0.79299  0.47217  0.54796  1.0000
  H   H3        1.0  0.42829  0.58243  0.46695  1.0000
  H   H4        1.0  0.57174  0.41761  0.53304  1.0000
  H   H5        1.0  0.28519  0.37987  0.41084  1.0000
  H   H6        1.0  0.71485  0.62016  0.58918  1.0000
  H   H7        1.0  0.41520  0.37596  0.68398  1.0000
  H   H8        1.0  0.58479  0.62403  0.31600  1.0000
  H   H9        1.0  0.01161  0.88960  0.20507  1.0000
  H   H10       1.0  0.98840  0.11040  0.79496  1.0000
  H   H11       1.0  0.23207  0.01856  0.25054  1.0000
  H   H12       1.0  0.76794  0.98143  0.74949  1.0000
  H   H13       1.0  0.11020  0.97860  0.10179  1.0000
  H   H14       1.0  0.88981  0.02143  0.89825  1.0000
  H   H15       1.0  0.44259  0.07608  0.90749  1.0000
  H   H16       1.0  0.55742  0.92391  0.09252  1.0000
  H   H17       1.0  0.34865  0.01563  0.02568  1.0000
  H   H18       1.0  0.65134  0.98437  0.97433  1.0000
  H   H19       1.0  0.21736  0.97965  0.88457  1.0000
  H   H20       1.0  0.78263  0.02035  0.11544  1.0000
  H   H21       1.0  0.37093  0.75751  0.62468  1.0000
  H   H22       1.0  0.62905  0.24247  0.37533  1.0000
  H   H23       1.0  0.49828  0.72792  0.74393  1.0000
  H   H24       1.0  0.50173  0.27207  0.25609  1.0000
  H   H25       1.0  0.46541  0.90588  0.76859  1.0000
  H   H26       1.0  0.53458  0.09411  0.23142  1.0000
  H   H27       1.0  0.01136  0.60443  0.73781  1.0000
  H   H28       1.0  0.98864  0.39560  0.26220  1.0000
  H   H29       1.0  0.00590  0.28552  0.51407  1.0000
  H   H30       1.0  0.99412  0.71448  0.48589  1.0000
  H   H31       1.0  0.91872  0.28203  0.64685  1.0000
  H   H32       1.0  0.08127  0.71798  0.35310  1.0000
  H   H33       1.0  0.95692  0.11691  0.56839  1.0000
  H   H34       1.0  0.04305  0.88309  0.43156  1.0000
  C   C1        1.0  0.17621  0.31683  0.67885  1.0000
  C   C2        1.0  0.82379  0.68316  0.32112  1.0000
  C   C3        1.0  0.30321  0.50148  0.41103  1.0000
  C   C4        1.0  0.69681  0.49854  0.58898  1.0000
  C   C5        1.0  0.28573  0.50943  0.28211  1.0000
  C   C6        1.0  0.71427  0.49058  0.71790  1.0000
  C   C7        1.0  0.25672  0.70227  0.77250  1.0000
  C   C8        1.0  0.74328  0.29773  0.22753  1.0000
  C   C9        1.0  0.12977  0.92747  0.17577  1.0000
  C   C10       1.0  0.87023  0.07254  0.82424  1.0000
  C   C11       1.0  0.33560  0.06398  0.94923  1.0000
  C   C12       1.0  0.66439  0.93603  0.05078  1.0000
  C   C13       1.0  0.40604  0.77685  0.72289  1.0000
  C   C14       1.0  0.59396  0.22315  0.27712  1.0000
  C   C15       1.0  0.00372  0.24760  0.59683  1.0000
  C   C16       1.0  0.99628  0.75238  0.40312  1.0000
  C   C17       1.0  0.32695  0.22266  0.99285  1.0000
  C   C18       1.0  0.67304  0.77733  0.00715  1.0000
  C   C19       1.0  0.16976  0.78589  0.12804  1.0000
  C   C20       1.0  0.83023  0.21410  0.87197  1.0000
  O   O1        1.0  0.27074  0.68648  0.87616  1.0000
  O   O2        1.0  0.72926  0.31352  0.12385  1.0000
  O   O3        1.0  0.20184  0.36183  0.79167  1.0000
  O   O4        1.0  0.79813  0.63816  0.20831  1.0000
  O   O5        1.0  0.29806  0.32408  0.62119  1.0000
  O   O6        1.0  0.70194  0.67591  0.37879  1.0000
  O   O7        1.0  0.14172  0.47292  0.21606  1.0000
  O   O8        1.0  0.85828  0.52709  0.78395  1.0000
  O   O9        1.0  0.41470  0.54981  0.23638  1.0000
  O   O10       1.0  0.58530  0.45018  0.76361  1.0000
  O   O11       1.0  0.20145  0.23290  0.03177  1.0000
  O   O12       1.0  0.79854  0.76710  0.96824  1.0000
  O   O13       1.0  0.31912  0.79609  0.15313  1.0000
  O   O14       1.0  0.68088  0.20389  0.84689  1.0000
  O   O15       1.0  0.10937  0.65509  0.69710  1.0000
  O   O16       1.0  0.89065  0.34493  0.30292  1.0000
  O   O17       1.0  0.44493  0.34873  0.98705  1.0000
  O   O18       1.0  0.55505  0.65124  0.01293  1.0000
  O   O19       1.0  0.05265  0.65373  0.05946  1.0000
  O   O20       1.0  0.94734  0.34627  0.94055  1.0000
