data_image0
_chemical_formula_structural       Nd2H26C16O16
_chemical_formula_sum              "Nd2 H26 C16 O16"
_cell_length_a       7.54907
_cell_length_b       9.20089
_cell_length_c       11.651
_cell_angle_alpha    104.523
_cell_angle_beta     107.277
_cell_angle_gamma    99.1806

_space_group_name_H-M_alt    "P 1"
_space_group_IT_number       1

loop_
  _space_group_symop_operation_xyz
  'x, y, z'

loop_
  _atom_site_type_symbol
  _atom_site_label
  _atom_site_symmetry_multiplicity
  _atom_site_fract_x
  _atom_site_fract_y
  _atom_site_fract_z
  _atom_site_occupancy
  Nd  Nd1       1.0  0.78186  0.08430  0.01696  1.0000
  Nd  Nd2       1.0  0.21814  0.91571  0.98304  1.0000
  H   H1        1.0  0.17102  0.14685  0.74767  1.0000
  H   H2        1.0  0.82900  0.85317  0.25234  1.0000
  H   H3        1.0  0.26462  0.03233  0.64519  1.0000
  H   H4        1.0  0.73539  0.96768  0.35481  1.0000
  H   H5        1.0  0.34046  0.23882  0.68931  1.0000
  H   H6        1.0  0.65955  0.76119  0.31070  1.0000
  H   H7        1.0  0.18612  0.16662  0.46432  1.0000
  H   H8        1.0  0.81389  0.83337  0.53569  1.0000
  H   H9        1.0  0.35291  0.05807  0.43189  1.0000
  H   H10       1.0  0.64709  0.94192  0.56811  1.0000
  H   H11       1.0  0.40530  0.25930  0.45447  1.0000
  H   H12       1.0  0.59469  0.74067  0.54553  1.0000
  H   H13       1.0  0.92953  0.21778  0.31680  1.0000
  H   H14       1.0  0.07046  0.78223  0.68321  1.0000
  H   H15       1.0  0.64710  0.43768  0.44079  1.0000
  H   H16       1.0  0.35287  0.56230  0.55921  1.0000
  H   H17       1.0  0.49922  0.43602  0.28614  1.0000
  H   H18       1.0  0.50074  0.56393  0.71385  1.0000
  H   H19       1.0  0.73437  0.56180  0.36507  1.0000
  H   H20       1.0  0.26559  0.43819  0.63492  1.0000
  H   H21       1.0  0.41444  0.35957  0.04164  1.0000
  H   H22       1.0  0.58556  0.64044  0.95835  1.0000
  H   H23       1.0  0.30499  0.51877  0.07707  1.0000
  H   H24       1.0  0.69503  0.48122  0.92293  1.0000
  H   H25       1.0  0.24810  0.40221  0.91862  1.0000
  H   H26       1.0  0.75191  0.59781  0.08139  1.0000
  C   C1        1.0  0.29898  0.14176  0.72211  1.0000
  C   C2        1.0  0.70104  0.85826  0.27789  1.0000
  C   C3        1.0  0.19418  0.12046  0.27407  1.0000
  C   C4        1.0  0.80584  0.87954  0.72595  1.0000
  C   C5        1.0  0.46265  0.14011  0.83248  1.0000
  C   C6        1.0  0.53734  0.85990  0.16752  1.0000
  C   C7        1.0  0.28834  0.15305  0.41514  1.0000
  C   C8        1.0  0.71167  0.84694  0.58487  1.0000
  C   C9        1.0  0.73190  0.32862  0.28634  1.0000
  C   C10       1.0  0.26810  0.67137  0.71367  1.0000
  C   C11       1.0  0.64465  0.44658  0.34837  1.0000
  C   C12       1.0  0.35532  0.55339  0.65162  1.0000
  C   C13       1.0  0.12006  0.29200  0.02467  1.0000
  C   C14       1.0  0.87996  0.70801  0.97533  1.0000
  C   C15       1.0  0.28342  0.40037  0.01679  1.0000
  C   C16       1.0  0.71660  0.59964  0.98320  1.0000
  O   O1        1.0  0.00933  0.34201  0.07836  1.0000
  O   O2        1.0  0.99069  0.65799  0.92164  1.0000
  O   O3        1.0  0.08930  0.14267  0.97200  1.0000
  O   O4        1.0  0.91071  0.85735  0.02801  1.0000
  O   O5        1.0  0.42855  0.05460  0.90050  1.0000
  O   O6        1.0  0.57144  0.94539  0.09949  1.0000
  O   O7        1.0  0.63136  0.21572  0.85724  1.0000
  O   O8        1.0  0.36864  0.78428  0.14275  1.0000
  O   O9        1.0  0.02034  0.13262  0.23343  1.0000
  O   O10       1.0  0.97968  0.86738  0.76657  1.0000
  O   O11       1.0  0.69006  0.28103  0.16953  1.0000
  O   O12       1.0  0.30992  0.71897  0.83046  1.0000
  O   O13       1.0  0.28880  0.08336  0.20380  1.0000
  O   O14       1.0  0.71121  0.91665  0.79621  1.0000
  O   O15       1.0  0.86069  0.28529  0.36665  1.0000
  O   O16       1.0  0.13930  0.71470  0.63336  1.0000
