data_image0
_chemical_formula_structural       Tm2H18C12O12
_chemical_formula_sum              "Tm2 H18 C12 O12"
_cell_length_a       7.99579
_cell_length_b       7.99552
_cell_length_c       8.31901
_cell_angle_alpha    90.0001
_cell_angle_beta     89.9998
_cell_angle_gamma    117.967

_space_group_name_H-M_alt    "P 1"
_space_group_IT_number       1

loop_
  _space_group_symop_operation_xyz
  'x, y, z'

loop_
  _atom_site_type_symbol
  _atom_site_label
  _atom_site_symmetry_multiplicity
  _atom_site_fract_x
  _atom_site_fract_y
  _atom_site_fract_z
  _atom_site_occupancy
  Tm  Tm1       1.0  0.94533  0.94534  0.13845  1.0000
  Tm  Tm2       1.0  0.05462  0.05461  0.63848  1.0000
  H   H1        1.0  0.65451  0.65443  0.63546  1.0000
  H   H2        1.0  0.34558  0.34563  0.13548  1.0000
  H   H3        1.0  0.45669  0.58438  0.76734  1.0000
  H   H4        1.0  0.54336  0.41563  0.26741  1.0000
  H   H5        1.0  0.41548  0.54337  0.26740  1.0000
  H   H6        1.0  0.58455  0.45668  0.76737  1.0000
  H   H7        1.0  0.54033  0.97395  0.05047  1.0000
  H   H8        1.0  0.45965  0.02606  0.55047  1.0000
  H   H9        1.0  0.02604  0.45961  0.55045  1.0000
  H   H10       1.0  0.97392  0.54034  0.05045  1.0000
  H   H11       1.0  0.62338  0.20899  0.98389  1.0000
  H   H12       1.0  0.37660  0.79103  0.48390  1.0000
  H   H13       1.0  0.79101  0.37659  0.48388  1.0000
  H   H14       1.0  0.20897  0.62340  0.98392  1.0000
  H   H15       1.0  0.58878  0.03241  0.83913  1.0000
  H   H16       1.0  0.41122  0.96761  0.33914  1.0000
  H   H17       1.0  0.96758  0.41118  0.33912  1.0000
  H   H18       1.0  0.03243  0.58881  0.83913  1.0000
  C   C1        1.0  0.72393  0.72393  0.88552  1.0000
  C   C2        1.0  0.27604  0.27606  0.38549  1.0000
  C   C3        1.0  0.33493  0.03211  0.92850  1.0000
  C   C4        1.0  0.66506  0.96789  0.42851  1.0000
  C   C5        1.0  0.96790  0.66504  0.42850  1.0000
  C   C6        1.0  0.03210  0.33495  0.92852  1.0000
  C   C7        1.0  0.59988  0.59983  0.75481  1.0000
  C   C8        1.0  0.40018  0.40022  0.25483  1.0000
  C   C9        1.0  0.53303  0.05979  0.95075  1.0000
  C   C10       1.0  0.46696  0.94023  0.45077  1.0000
  C   C11       1.0  0.94021  0.46694  0.45074  1.0000
  C   C12       1.0  0.05979  0.53304  0.95075  1.0000
  O   O1        1.0  0.22898  0.99321  0.05230  1.0000
  O   O2        1.0  0.77102  0.00681  0.55231  1.0000
  O   O3        1.0  0.00686  0.77102  0.55229  1.0000
  O   O4        1.0  0.99319  0.22899  0.05231  1.0000
  O   O5        1.0  0.87846  0.87844  0.85393  1.0000
  O   O6        1.0  0.12151  0.12153  0.35391  1.0000
  O   O7        1.0  0.28498  0.05446  0.78825  1.0000
  O   O8        1.0  0.71499  0.94550  0.28826  1.0000
  O   O9        1.0  0.94548  0.71498  0.28826  1.0000
  O   O10       1.0  0.05448  0.28498  0.78826  1.0000
  O   O11       1.0  0.68135  0.68137  0.03182  1.0000
  O   O12       1.0  0.31864  0.31864  0.53180  1.0000
