data_image0
_chemical_formula_structural       Sm2H26C16O16
_chemical_formula_sum              "Sm2 H26 C16 O16"
_cell_length_a       7.5179
_cell_length_b       9.04824
_cell_length_c       10.0416
_cell_angle_alpha    86.5473
_cell_angle_beta     75.6713
_cell_angle_gamma    88.3152

_space_group_name_H-M_alt    "P 1"
_space_group_IT_number       1

loop_
  _space_group_symop_operation_xyz
  'x, y, z'

loop_
  _atom_site_type_symbol
  _atom_site_label
  _atom_site_symmetry_multiplicity
  _atom_site_fract_x
  _atom_site_fract_y
  _atom_site_fract_z
  _atom_site_occupancy
  Sm  Sm1       1.0  0.74039  0.92015  0.01594  1.0000
  Sm  Sm2       1.0  0.25962  0.07985  0.98406  1.0000
  H   H1        1.0  0.85902  0.76597  0.73311  1.0000
  H   H2        1.0  0.14101  0.23402  0.26687  1.0000
  H   H3        1.0  0.23940  0.52318  0.69532  1.0000
  H   H4        1.0  0.76064  0.47685  0.30468  1.0000
  H   H5        1.0  0.15042  0.46123  0.87015  1.0000
  H   H6        1.0  0.84960  0.53876  0.12984  1.0000
  H   H7        1.0  0.30886  0.60506  0.83305  1.0000
  H   H8        1.0  0.69116  0.39497  0.16696  1.0000
  H   H9        1.0  0.33756  0.29882  0.41170  1.0000
  H   H10       1.0  0.66242  0.70119  0.58830  1.0000
  H   H11       1.0  0.56986  0.24155  0.40735  1.0000
  H   H12       1.0  0.43012  0.75846  0.59266  1.0000
  H   H13       1.0  0.38551  0.12027  0.47761  1.0000
  H   H14       1.0  0.61448  0.87973  0.52240  1.0000
  H   H15       1.0  0.15224  0.89117  0.32698  1.0000
  H   H16       1.0  0.84776  0.10881  0.67302  1.0000
  H   H17       1.0  0.96710  0.77876  0.42918  1.0000
  H   H18       1.0  0.03289  0.22122  0.57081  1.0000
  H   H19       1.0  0.94569  0.97547  0.41781  1.0000
  H   H20       1.0  0.05430  0.02451  0.58220  1.0000
  H   H21       1.0  0.14959  0.66845  0.09329  1.0000
  H   H22       1.0  0.85042  0.33155  0.90670  1.0000
  H   H23       1.0  0.30712  0.51548  0.09657  1.0000
  H   H24       1.0  0.69289  0.48452  0.90341  1.0000
  H   H25       1.0  0.22388  0.62047  0.24533  1.0000
  H   H26       1.0  0.77612  0.37953  0.75466  1.0000
  C   C1        1.0  0.42603  0.72860  0.08597  1.0000
  C   C2        1.0  0.57398  0.27141  0.91402  1.0000
  C   C3        1.0  0.03958  0.66882  0.81713  1.0000
  C   C4        1.0  0.96044  0.33118  0.18288  1.0000
  C   C5        1.0  0.19422  0.55880  0.80061  1.0000
  C   C6        1.0  0.80579  0.44123  0.19939  1.0000
  C   C7        1.0  0.43667  0.20622  0.39593  1.0000
  C   C8        1.0  0.56332  0.79378  0.60408  1.0000
  C   C9        1.0  0.45627  0.14189  0.25753  1.0000
  C   C10       1.0  0.54374  0.85812  0.74248  1.0000
  C   C11       1.0  0.92124  0.87714  0.23927  1.0000
  C   C12       1.0  0.07874  0.12285  0.76073  1.0000
  C   C13       1.0  0.26649  0.62635  0.13219  1.0000
  C   C14       1.0  0.73352  0.37365  0.86780  1.0000
  C   C15       1.0  0.00319  0.87790  0.36091  1.0000
  C   C16       1.0  0.99680  0.12209  0.63909  1.0000
  O   O1        1.0  0.60927  0.08682  0.19810  1.0000
  O   O2        1.0  0.39074  0.91318  0.80190  1.0000
  O   O3        1.0  0.77966  0.80450  0.24222  1.0000
  O   O4        1.0  0.22033  0.19550  0.75779  1.0000
  O   O5        1.0  0.31295  0.14461  0.20808  1.0000
  O   O6        1.0  0.68703  0.85538  0.79192  1.0000
  O   O7        1.0  0.97264  0.72601  0.92894  1.0000
  O   O8        1.0  0.02736  0.27398  0.07104  1.0000
  O   O9        1.0  0.39858  0.87110  0.08429  1.0000
  O   O10       1.0  0.60142  0.12890  0.91571  1.0000
  O   O11       1.0  0.58827  0.67802  0.05133  1.0000
  O   O12       1.0  0.41174  0.32198  0.94866  1.0000
  O   O13       1.0  0.97606  0.69889  0.70652  1.0000
  O   O14       1.0  0.02390  0.30114  0.29350  1.0000
  O   O15       1.0  0.99529  0.95899  0.13019  1.0000
  O   O16       1.0  0.00471  0.04101  0.86982  1.0000
