data_image0
_chemical_formula_structural       KH20C14N20O12
_chemical_formula_sum              "K1 H20 C14 N20 O12"
_cell_length_a       8.15708
_cell_length_b       10.5777
_cell_length_c       12.5129
_cell_angle_alpha    97.4858
_cell_angle_beta     127.517
_cell_angle_gamma    92.3636

_space_group_name_H-M_alt    "P 1"
_space_group_IT_number       1

loop_
  _space_group_symop_operation_xyz
  'x, y, z'

loop_
  _atom_site_type_symbol
  _atom_site_label
  _atom_site_symmetry_multiplicity
  _atom_site_fract_x
  _atom_site_fract_y
  _atom_site_fract_z
  _atom_site_occupancy
  K   K1        1.0  0.50055  0.00008  0.50031  1.0000
  H   H1        1.0  0.13443  0.15503  0.43630  1.0000
  H   H2        1.0  0.86571  0.84481  0.56322  1.0000
  H   H3        1.0  0.89685  0.04188  0.32003  1.0000
  H   H4        1.0  0.10334  0.95797  0.67953  1.0000
  H   H5        1.0  0.90198  0.82755  0.38202  1.0000
  H   H6        1.0  0.09823  0.17227  0.61751  1.0000
  H   H7        1.0  0.14312  0.80153  0.53400  1.0000
  H   H8        1.0  0.85707  0.19836  0.46556  1.0000
  H   H9        1.0  0.43460  0.72445  0.33788  1.0000
  H   H10       1.0  0.56547  0.27564  0.66227  1.0000
  H   H11       1.0  0.40625  0.68424  0.44440  1.0000
  H   H12       1.0  0.59395  0.31595  0.55582  1.0000
  H   H13       1.0  0.48313  0.99160  0.25945  1.0000
  H   H14       1.0  0.51687  0.00842  0.74072  1.0000
  H   H15       1.0  0.30251  0.05874  0.15877  1.0000
  H   H16       1.0  0.69678  0.94102  0.84161  1.0000
  H   H17       1.0  0.48552  0.21814  0.27303  1.0000
  H   H18       1.0  0.51451  0.78179  0.72710  1.0000
  H   H19       1.0  0.71617  0.46065  0.95895  1.0000
  H   H20       1.0  0.28384  0.53933  0.04120  1.0000
  C   C1        1.0  0.03229  0.07777  0.42900  1.0000
  C   C2        1.0  0.96774  0.92211  0.57049  1.0000
  C   C3        1.0  0.03880  0.87308  0.48750  1.0000
  C   C4        1.0  0.96129  0.12678  0.51201  1.0000
  C   C5        1.0  0.79865  0.53494  0.53879  1.0000
  C   C6        1.0  0.20144  0.46513  0.46131  1.0000
  C   C7        1.0  0.64080  0.40421  0.35414  1.0000
  C   C8        1.0  0.35924  0.59573  0.64601  1.0000
  C   C9        1.0  0.50247  0.27494  0.12952  1.0000
  C   C10       1.0  0.49743  0.72505  0.87060  1.0000
  C   C11       1.0  0.46992  0.18578  0.91353  1.0000
  C   C12       1.0  0.52971  0.81430  0.08647  1.0000
  C   C13       1.0  0.63465  0.36320  0.92588  1.0000
  C   C14       1.0  0.36521  0.63684  0.07422  1.0000
  N   N1        1.0  0.59008  0.27451  0.82221  1.0000
  N   N2        1.0  0.40963  0.72553  0.17783  1.0000
  N   N3        1.0  0.48712  0.16350  0.81321  1.0000
  N   N4        1.0  0.51242  0.83658  0.18674  1.0000
  N   N5        1.0  0.56294  0.31159  0.98631  1.0000
  N   N6        1.0  0.43685  0.68844  0.01373  1.0000
  N   N7        1.0  0.52846  0.30059  0.25096  1.0000
  N   N8        1.0  0.47156  0.69932  0.74919  1.0000
  N   N9        1.0  0.58616  0.36190  0.10114  1.0000
  N   N10       1.0  0.41374  0.63810  0.89896  1.0000
  N   N11       1.0  0.38615  0.15584  0.05193  1.0000
  N   N12       1.0  0.61376  0.84419  0.94817  1.0000
  N   N13       1.0  0.37233  0.10857  0.94313  1.0000
  N   N14       1.0  0.62736  0.89149  0.05689  1.0000
  N   N15       1.0  0.67706  0.41776  0.47379  1.0000
  N   N16       1.0  0.32307  0.58231  0.52639  1.0000
  N   N17       1.0  0.84170  0.59591  0.47146  1.0000
  N   N18       1.0  0.15825  0.40409  0.52855  1.0000
  N   N19       1.0  0.88068  0.59247  0.67791  1.0000
  N   N20       1.0  0.11946  0.40767  0.32214  1.0000
  O   O1        1.0  0.48104  0.74862  0.43240  1.0000
  O   O2        1.0  0.51920  0.25151  0.56777  1.0000
  O   O3        1.0  0.39973  0.05916  0.25760  1.0000
  O   O4        1.0  0.60041  0.94087  0.74280  1.0000
  O   O5        1.0  0.15461  0.97581  0.48359  1.0000
  O   O6        1.0  0.84547  0.02406  0.51593  1.0000
  O   O7        1.0  0.99999  0.69682  0.73139  1.0000
  O   O8        1.0  0.00010  0.30333  0.26857  1.0000
  O   O9        1.0  0.82633  0.53169  0.73309  1.0000
  O   O10       1.0  0.17383  0.46855  0.26705  1.0000
  O   O11       1.0  0.73259  0.50810  0.34425  1.0000
  O   O12       1.0  0.26737  0.49185  0.65577  1.0000
