data_image0
_chemical_formula_structural       Sn4P2H64C30N2O8
_chemical_formula_sum              "Sn4 P2 H64 C30 N2 O8"
_cell_length_a       9.07877
_cell_length_b       10.6006
_cell_length_c       11.6134
_cell_angle_alpha    90.0002
_cell_angle_beta     92.0477
_cell_angle_gamma    89.9995

_space_group_name_H-M_alt    "P 1"
_space_group_IT_number       1

loop_
  _space_group_symop_operation_xyz
  'x, y, z'

loop_
  _atom_site_type_symbol
  _atom_site_label
  _atom_site_symmetry_multiplicity
  _atom_site_fract_x
  _atom_site_fract_y
  _atom_site_fract_z
  _atom_site_occupancy
  Sn  Sn1       1.0  0.07237  0.59200  0.02566  1.0000
  Sn  Sn2       1.0  0.92764  0.09201  0.97434  1.0000
  Sn  Sn3       1.0  0.59252  0.71937  0.80657  1.0000
  Sn  Sn4       1.0  0.40748  0.21937  0.19343  1.0000
  P   P1        1.0  0.94189  0.80963  0.82190  1.0000
  P   P2        1.0  0.05812  0.30963  0.17811  1.0000
  H   H1        1.0  0.23154  0.73697  0.84420  1.0000
  H   H2        1.0  0.76846  0.23697  0.15580  1.0000
  H   H3        1.0  0.29155  0.60750  0.80193  1.0000
  H   H4        1.0  0.70846  0.10750  0.19806  1.0000
  H   H5        1.0  0.18015  0.71996  0.65734  1.0000
  H   H6        1.0  0.81985  0.21996  0.34266  1.0000
  H   H7        1.0  0.90564  0.84484  0.33205  1.0000
  H   H8        1.0  0.09435  0.34486  0.66794  1.0000
  H   H9        1.0  0.64890  0.80132  0.26073  1.0000
  H   H10       1.0  0.35110  0.30133  0.73927  1.0000
  H   H11       1.0  0.50632  0.62654  0.34571  1.0000
  H   H12       1.0  0.49367  0.12655  0.65430  1.0000
  H   H13       1.0  0.61944  0.49799  0.50539  1.0000
  H   H14       1.0  0.38054  0.99798  0.49463  1.0000
  H   H15       1.0  0.87479  0.54586  0.57966  1.0000
  H   H16       1.0  0.12520  0.04585  0.42035  1.0000
  H   H17       1.0  0.09915  0.81276  0.46292  1.0000
  H   H18       1.0  0.90084  0.31276  0.53708  1.0000
  H   H19       1.0  0.28698  0.64606  0.48422  1.0000
  H   H20       1.0  0.71302  0.14606  0.51578  1.0000
  H   H21       1.0  0.16262  0.60626  0.36754  1.0000
  H   H22       1.0  0.83737  0.10626  0.63246  1.0000
  H   H23       1.0  0.14871  0.52917  0.50280  1.0000
  H   H24       1.0  0.85129  0.02918  0.49720  1.0000
  H   H25       1.0  0.89935  0.85462  0.62575  1.0000
  H   H26       1.0  0.10065  0.35462  0.37426  1.0000
  H   H27       1.0  0.06802  0.92300  0.67371  1.0000
  H   H28       1.0  0.93198  0.42301  0.32629  1.0000
  H   H29       1.0  0.01444  0.39473  0.88617  1.0000
  H   H30       1.0  0.98557  0.89475  0.11382  1.0000
  H   H31       1.0  0.20063  0.43730  0.86598  1.0000
  H   H32       1.0  0.79937  0.93730  0.13401  1.0000
  H   H33       1.0  0.05309  0.52849  0.79788  1.0000
  H   H34       1.0  0.94691  0.02849  0.20212  1.0000
  H   H35       1.0  0.81098  0.70647  0.06995  1.0000
  H   H36       1.0  0.18904  0.20646  0.93005  1.0000
  H   H37       1.0  0.85330  0.59032  0.17772  1.0000
  H   H38       1.0  0.14671  0.09032  0.82229  1.0000
  H   H39       1.0  0.78285  0.54290  0.03827  1.0000
  H   H40       1.0  0.21714  0.04289  0.96175  1.0000
  H   H41       1.0  0.35545  0.63543  0.09601  1.0000
  H   H42       1.0  0.64456  0.13545  0.90398  1.0000
  H   H43       1.0  0.23500  0.68427  0.20527  1.0000
  H   H44       1.0  0.76501  0.18427  0.79473  1.0000
  H   H45       1.0  0.26214  0.78432  0.08307  1.0000
  H   H46       1.0  0.73786  0.28434  0.91691  1.0000
  H   H47       1.0  0.62930  0.92667  0.67629  1.0000
  H   H48       1.0  0.37071  0.42667  0.32371  1.0000
  H   H49       1.0  0.45274  0.85889  0.64147  1.0000
  H   H50       1.0  0.54727  0.35890  0.35853  1.0000
  H   H51       1.0  0.61522  0.79254  0.58235  1.0000
  H   H52       1.0  0.38478  0.29254  0.41765  1.0000
  H   H53       1.0  0.54997  0.75242  0.03755  1.0000
  H   H54       1.0  0.45005  0.25242  0.96245  1.0000
  H   H55       1.0  0.46197  0.87542  0.95522  1.0000
  H   H56       1.0  0.53803  0.37543  0.04479  1.0000
  H   H57       1.0  0.65848  0.87791  0.98000  1.0000
  H   H58       1.0  0.34152  0.37792  0.02000  1.0000
  H   H59       1.0  0.68120  0.48018  0.77103  1.0000
  H   H60       1.0  0.31881  0.98018  0.22896  1.0000
  H   H61       1.0  0.49978  0.49811  0.70832  1.0000
  H   H62       1.0  0.50022  0.99810  0.29167  1.0000
  H   H63       1.0  0.52526  0.47451  0.86037  1.0000
  H   H64       1.0  0.47474  0.97450  0.13962  1.0000
  C   C1        1.0  0.90830  0.69587  0.45856  1.0000
  C   C2        1.0  0.09169  0.19588  0.54144  1.0000
  C   C3        1.0  0.84286  0.76857  0.37020  1.0000
  C   C4        1.0  0.15713  0.26858  0.62980  1.0000
  C   C5        1.0  0.69866  0.74421  0.32991  1.0000
  C   C6        1.0  0.30133  0.24422  0.67009  1.0000
  C   C7        1.0  0.61837  0.64620  0.37764  1.0000
  C   C8        1.0  0.38161  0.14621  0.62236  1.0000
  C   C9        1.0  0.68245  0.57382  0.46695  1.0000
  C   C10       1.0  0.31753  0.07382  0.53306  1.0000
  C   C11       1.0  0.82590  0.59903  0.50754  1.0000
  C   C12       1.0  0.17409  0.09903  0.49246  1.0000
  C   C13       1.0  0.06578  0.72135  0.50103  1.0000
  C   C14       1.0  0.93422  0.22135  0.49897  1.0000
  C   C15       1.0  0.17240  0.61974  0.46121  1.0000
  C   C16       1.0  0.82759  0.11974  0.53879  1.0000
  C   C17       1.0  0.00205  0.83516  0.67583  1.0000
  C   C18       1.0  0.99796  0.33516  0.32417  1.0000
  C   C19       1.0  0.08888  0.47490  0.87471  1.0000
  C   C20       1.0  0.91112  0.97490  0.12529  1.0000
  C   C21       1.0  0.85289  0.61115  0.08538  1.0000
  C   C22       1.0  0.14712  0.11115  0.91463  1.0000
  C   C23       1.0  0.25356  0.68679  0.11260  1.0000
  C   C24       1.0  0.74646  0.18680  0.88740  1.0000
  C   C25       1.0  0.56989  0.83855  0.65774  1.0000
  C   C26       1.0  0.43011  0.33855  0.34227  1.0000
  C   C27       1.0  0.56177  0.81768  0.96552  1.0000
  C   C28       1.0  0.43824  0.31768  0.03448  1.0000
  C   C29       1.0  0.57114  0.51875  0.78423  1.0000
  C   C30       1.0  0.42886  0.01876  0.21576  1.0000
  N   N1        1.0  0.07335  0.72543  0.62696  1.0000
  N   N2        1.0  0.92665  0.22543  0.37304  1.0000
  O   O1        1.0  0.07557  0.77082  0.90093  1.0000
  O   O2        1.0  0.92444  0.27082  0.09907  1.0000
  O   O3        1.0  0.87105  0.93450  0.85764  1.0000
  O   O4        1.0  0.12896  0.43450  0.14237  1.0000
  O   O5        1.0  0.82730  0.70126  0.81781  1.0000
  O   O6        1.0  0.17270  0.20126  0.18220  1.0000
  O   O7        1.0  0.31669  0.69677  0.80339  1.0000
  O   O8        1.0  0.68331  0.19677  0.19660  1.0000
