data_image0
_chemical_formula_structural       Sn4P2H64C30N2O8
_chemical_formula_sum              "Sn4 P2 H64 C30 N2 O8"
_cell_length_a       9.14371
_cell_length_b       10.6013
_cell_length_c       11.5297
_cell_angle_alpha    89.9992
_cell_angle_beta     91.5203
_cell_angle_gamma    89.9995

_space_group_name_H-M_alt    "P 1"
_space_group_IT_number       1

loop_
  _space_group_symop_operation_xyz
  'x, y, z'

loop_
  _atom_site_type_symbol
  _atom_site_label
  _atom_site_symmetry_multiplicity
  _atom_site_fract_x
  _atom_site_fract_y
  _atom_site_fract_z
  _atom_site_occupancy
  Sn  Sn1       1.0  0.42721  0.23067  0.97697  1.0000
  Sn  Sn2       1.0  0.57278  0.73068  0.02303  1.0000
  Sn  Sn3       1.0  0.91664  0.07096  0.18910  1.0000
  Sn  Sn4       1.0  0.08337  0.57097  0.81090  1.0000
  P   P1        1.0  0.57041  0.01331  0.17649  1.0000
  P   P2        1.0  0.42959  0.51331  0.82351  1.0000
  H   H1        1.0  0.27810  0.02557  0.15309  1.0000
  H   H2        1.0  0.72190  0.52557  0.84692  1.0000
  H   H3        1.0  0.19456  0.91418  0.21183  1.0000
  H   H4        1.0  0.80544  0.41418  0.78817  1.0000
  H   H5        1.0  0.32541  0.09990  0.33490  1.0000
  H   H6        1.0  0.67460  0.59989  0.66509  1.0000
  H   H7        1.0  0.62443  0.27536  0.42273  1.0000
  H   H8        1.0  0.37557  0.77537  0.57727  1.0000
  H   H9        1.0  0.87830  0.31471  0.49828  1.0000
  H   H10       1.0  0.12171  0.81472  0.50173  1.0000
  H   H11       1.0  0.98286  0.18164  0.65866  1.0000
  H   H12       1.0  0.01714  0.68166  0.34135  1.0000
  H   H13       1.0  0.83222  0.01017  0.74218  1.0000
  H   H14       1.0  0.16777  0.51018  0.25783  1.0000
  H   H15       1.0  0.57877  0.97319  0.66746  1.0000
  H   H16       1.0  0.42122  0.47320  0.33254  1.0000
  H   H17       1.0  0.39218  0.00990  0.53171  1.0000
  H   H18       1.0  0.60782  0.50990  0.46829  1.0000
  H   H19       1.0  0.34994  0.29463  0.49382  1.0000
  H   H20       1.0  0.65007  0.79463  0.50617  1.0000
  H   H21       1.0  0.32414  0.21463  0.62734  1.0000
  H   H22       1.0  0.67585  0.71463  0.37265  1.0000
  H   H23       1.0  0.20929  0.17938  0.50444  1.0000
  H   H24       1.0  0.79071  0.67938  0.49554  1.0000
  H   H25       1.0  0.44304  0.90033  0.32539  1.0000
  H   H26       1.0  0.55695  0.40033  0.67461  1.0000
  H   H27       1.0  0.60610  0.97293  0.37567  1.0000
  H   H28       1.0  0.39390  0.47293  0.62433  1.0000
  H   H29       1.0  0.48045  0.29987  0.19769  1.0000
  H   H30       1.0  0.51954  0.79987  0.80231  1.0000
  H   H31       1.0  0.29505  0.34030  0.16249  1.0000
  H   H32       1.0  0.70494  0.84030  0.83751  1.0000
  H   H33       1.0  0.44010  0.43856  0.11242  1.0000
  H   H34       1.0  0.55990  0.93856  0.88757  1.0000
  H   H35       1.0  0.71175  0.29242  0.96136  1.0000
  H   H36       1.0  0.28826  0.79243  0.03863  1.0000
  H   H37       1.0  0.64287  0.24359  0.82038  1.0000
  H   H38       1.0  0.35712  0.74359  0.17962  1.0000
  H   H39       1.0  0.69449  0.12887  0.92697  1.0000
  H   H40       1.0  0.30550  0.62887  0.07303  1.0000
  H   H41       1.0  0.15062  0.17843  0.90226  1.0000
  H   H42       1.0  0.84938  0.67842  0.09773  1.0000
  H   H43       1.0  0.24845  0.03196  0.91787  1.0000
  H   H44       1.0  0.75156  0.53196  0.08212  1.0000
  H   H45       1.0  0.27556  0.13186  0.79460  1.0000
  H   H46       1.0  0.72445  0.63185  0.20540  1.0000
  H   H47       1.0  0.82072  0.96250  0.98903  1.0000
  H   H48       1.0  0.17928  0.46250  0.01097  1.0000
  H   H49       1.0  0.98874  0.89068  0.03598  1.0000
  H   H50       1.0  0.01126  0.39069  0.96401  1.0000
  H   H51       1.0  0.99254  0.03870  0.96323  1.0000
  H   H52       1.0  0.00746  0.53870  0.03677  1.0000
  H   H53       1.0  0.84829  0.01157  0.40937  1.0000
  H   H54       1.0  0.15171  0.51156  0.59064  1.0000
  H   H55       1.0  0.02539  0.95096  0.37970  1.0000
  H   H56       1.0  0.97462  0.45095  0.62032  1.0000
  H   H57       1.0  0.86499  0.86870  0.32753  1.0000
  H   H58       1.0  0.13502  0.36870  0.67249  1.0000
  H   H59       1.0  0.89293  0.32297  0.21823  1.0000
  H   H60       1.0  0.10706  0.82297  0.78177  1.0000
  H   H61       1.0  0.05599  0.29216  0.14075  1.0000
  H   H62       1.0  0.94401  0.79217  0.85925  1.0000
  H   H63       1.0  0.05448  0.26851  0.29422  1.0000
  H   H64       1.0  0.94552  0.76851  0.70577  1.0000
  C   C1        1.0  0.58335  0.12460  0.54245  1.0000
  C   C2        1.0  0.41666  0.62461  0.45756  1.0000
  C   C3        1.0  0.66938  0.22027  0.49517  1.0000
  C   C4        1.0  0.33062  0.72028  0.50483  1.0000
  C   C5        1.0  0.81195  0.24106  0.53687  1.0000
  C   C6        1.0  0.18805  0.74107  0.46313  1.0000
  C   C7        1.0  0.87098  0.16611  0.62650  1.0000
  C   C8        1.0  0.12901  0.66612  0.37350  1.0000
  C   C9        1.0  0.78665  0.06975  0.67309  1.0000
  C   C10       1.0  0.21333  0.56976  0.32691  1.0000
  C   C11       1.0  0.64377  0.04929  0.63109  1.0000
  C   C12       1.0  0.35623  0.54930  0.36891  1.0000
  C   C13       1.0  0.42874  0.10151  0.49537  1.0000
  C   C14       1.0  0.57126  0.60152  0.50463  1.0000
  C   C15       1.0  0.32170  0.20359  0.53273  1.0000
  C   C16       1.0  0.67830  0.70359  0.46726  1.0000
  C   C17       1.0  0.50613  0.98957  0.32281  1.0000
  C   C18       1.0  0.49387  0.48957  0.67719  1.0000
  C   C19       1.0  0.40714  0.34153  0.13137  1.0000
  C   C20       1.0  0.59285  0.84153  0.86863  1.0000
  C   C21       1.0  0.64616  0.22211  0.91340  1.0000
  C   C22       1.0  0.35383  0.72211  0.08660  1.0000
  C   C23       1.0  0.25424  0.12959  0.88764  1.0000
  C   C24       1.0  0.74576  0.62958  0.11235  1.0000
  C   C25       1.0  0.93120  0.98054  0.02340  1.0000
  C   C26       1.0  0.06880  0.48054  0.97660  1.0000
  C   C27       1.0  0.91327  0.96142  0.34548  1.0000
  C   C28       1.0  0.08674  0.46141  0.65453  1.0000
  C   C29       1.0  0.98936  0.26190  0.21318  1.0000
  C   C30       1.0  0.01063  0.76190  0.78681  1.0000
  N   N1        1.0  0.42993  0.09857  0.36841  1.0000
  N   N2        1.0  0.57007  0.59857  0.63159  1.0000
  O   O1        1.0  0.43911  0.05393  0.09730  1.0000
  O   O2        1.0  0.56089  0.55393  0.90270  1.0000
  O   O3        1.0  0.63753  0.88662  0.14150  1.0000
  O   O4        1.0  0.36247  0.38662  0.85851  1.0000
  O   O5        1.0  0.68857  0.11860  0.17986  1.0000
  O   O6        1.0  0.31143  0.61860  0.82014  1.0000
  O   O7        1.0  0.18969  0.00513  0.20039  1.0000
  O   O8        1.0  0.81031  0.50513  0.79962  1.0000
