data_image0
_chemical_formula_structural       Ag4H16C24N4O12
_chemical_formula_sum              "Ag4 H16 C24 N4 O12"
_cell_length_a       5.73239
_cell_length_b       8.95108
_cell_length_c       12.5
_cell_angle_alpha    104.908
_cell_angle_beta     89.9996
_cell_angle_gamma    90.0005

_space_group_name_H-M_alt    "P 1"
_space_group_IT_number       1

loop_
  _space_group_symop_operation_xyz
  'x, y, z'

loop_
  _atom_site_type_symbol
  _atom_site_label
  _atom_site_symmetry_multiplicity
  _atom_site_fract_x
  _atom_site_fract_y
  _atom_site_fract_z
  _atom_site_occupancy
  Ag  Ag1       1.0  0.48126  0.04045  0.66438  1.0000
  Ag  Ag2       1.0  0.98126  0.95954  0.83562  1.0000
  Ag  Ag3       1.0  0.51874  0.95955  0.33562  1.0000
  Ag  Ag4       1.0  0.01874  0.04045  0.16438  1.0000
  H   H1        1.0  0.85045  0.39815  0.48208  1.0000
  H   H2        1.0  0.35045  0.60184  0.01792  1.0000
  H   H3        1.0  0.14955  0.60185  0.51792  1.0000
  H   H4        1.0  0.64957  0.39816  0.98208  1.0000
  H   H5        1.0  0.51664  0.49267  0.60775  1.0000
  H   H6        1.0  0.01664  0.50732  0.89225  1.0000
  H   H7        1.0  0.48336  0.50733  0.39225  1.0000
  H   H8        1.0  0.98337  0.49267  0.10775  1.0000
  H   H9        1.0  0.46730  0.39462  0.77803  1.0000
  H   H10       1.0  0.96729  0.60537  0.72197  1.0000
  H   H11       1.0  0.53270  0.60537  0.22197  1.0000
  H   H12       1.0  0.03271  0.39463  0.27804  1.0000
  H   H13       1.0  0.75484  0.21016  0.81968  1.0000
  H   H14       1.0  0.25485  0.78983  0.68032  1.0000
  H   H15       1.0  0.24515  0.78983  0.18032  1.0000
  H   H16       1.0  0.74515  0.21017  0.31968  1.0000
  C   C1        1.0  0.95475  0.18016  0.66904  1.0000
  C   C2        1.0  0.45474  0.81984  0.83096  1.0000
  C   C3        1.0  0.04525  0.81984  0.33096  1.0000
  C   C4        1.0  0.54525  0.18017  0.16905  1.0000
  C   C5        1.0  0.97932  0.24325  0.57400  1.0000
  C   C6        1.0  0.47931  0.75675  0.92600  1.0000
  C   C7        1.0  0.02069  0.75675  0.42600  1.0000
  C   C8        1.0  0.52069  0.24326  0.07400  1.0000
  C   C9        1.0  0.82171  0.35486  0.55469  1.0000
  C   C10       1.0  0.32170  0.64513  0.94532  1.0000
  C   C11       1.0  0.17829  0.64514  0.44531  1.0000
  C   C12       1.0  0.67830  0.35486  0.05468  1.0000
  C   C13       1.0  0.63633  0.40718  0.62456  1.0000
  C   C14       1.0  0.13632  0.59282  0.87543  1.0000
  C   C15       1.0  0.36367  0.59283  0.37544  1.0000
  C   C16       1.0  0.86369  0.40719  0.12457  1.0000
  C   C17       1.0  0.60774  0.35116  0.71947  1.0000
  C   C18       1.0  0.10773  0.64883  0.78053  1.0000
  C   C19       1.0  0.39226  0.64884  0.28053  1.0000
  C   C20       1.0  0.89226  0.35117  0.21947  1.0000
  C   C21       1.0  0.76268  0.24282  0.74119  1.0000
  C   C22       1.0  0.26269  0.75718  0.75881  1.0000
  C   C23       1.0  0.23731  0.75718  0.25881  1.0000
  C   C24       1.0  0.73732  0.24283  0.24119  1.0000
  N   N1        1.0  0.16015  0.19593  0.49487  1.0000
  N   N2        1.0  0.66014  0.80406  0.00513  1.0000
  N   N3        1.0  0.83985  0.80407  0.50513  1.0000
  N   N4        1.0  0.33986  0.19594  0.99487  1.0000
  O   O1        1.0  0.08497  0.07540  0.69252  1.0000
  O   O2        1.0  0.58497  0.92459  0.80748  1.0000
  O   O3        1.0  0.91503  0.92459  0.30748  1.0000
  O   O4        1.0  0.41503  0.07541  0.19252  1.0000
  O   O5        1.0  0.28329  0.07847  0.49800  1.0000
  O   O6        1.0  0.78328  0.92153  0.00200  1.0000
  O   O7        1.0  0.71671  0.92152  0.50199  1.0000
  O   O8        1.0  0.21672  0.07848  0.99800  1.0000
  O   O9        1.0  0.19723  0.26855  0.42340  1.0000
  O   O10       1.0  0.69722  0.73146  0.07659  1.0000
  O   O11       1.0  0.80277  0.73145  0.57659  1.0000
  O   O12       1.0  0.30278  0.26855  0.92341  1.0000
