data_image0
_chemical_formula_structural       Ag4H24C24N4O16
_chemical_formula_sum              "Ag4 H24 C24 N4 O16"
_cell_length_a       5.5749
_cell_length_b       9.81127
_cell_length_c       13.095
_cell_angle_alpha    89.9989
_cell_angle_beta     89.9996
_cell_angle_gamma    96.384

_space_group_name_H-M_alt    "P 1"
_space_group_IT_number       1

loop_
  _space_group_symop_operation_xyz
  'x, y, z'

loop_
  _atom_site_type_symbol
  _atom_site_label
  _atom_site_symmetry_multiplicity
  _atom_site_fract_x
  _atom_site_fract_y
  _atom_site_fract_z
  _atom_site_occupancy
  Ag  Ag1       1.0  0.60939  0.24414  0.37787  1.0000
  Ag  Ag2       1.0  0.89062  0.75585  0.87787  1.0000
  Ag  Ag3       1.0  0.39059  0.75586  0.62213  1.0000
  Ag  Ag4       1.0  0.10942  0.24415  0.12214  1.0000
  H   H1        1.0  0.67023  0.99189  0.31559  1.0000
  H   H2        1.0  0.82976  0.00812  0.81561  1.0000
  H   H3        1.0  0.32974  0.00810  0.68442  1.0000
  H   H4        1.0  0.17029  0.99189  0.18440  1.0000
  H   H5        1.0  0.75097  0.74832  0.30262  1.0000
  H   H6        1.0  0.74904  0.25168  0.80264  1.0000
  H   H7        1.0  0.24902  0.25167  0.69737  1.0000
  H   H8        1.0  0.25099  0.74832  0.19737  1.0000
  H   H9        1.0  0.07854  0.62008  0.45743  1.0000
  H   H10       1.0  0.42147  0.37993  0.95743  1.0000
  H   H11       1.0  0.92147  0.37994  0.54257  1.0000
  H   H12       1.0  0.57853  0.62008  0.04256  1.0000
  H   H13       1.0  0.99872  0.86512  0.47254  1.0000
  H   H14       1.0  0.50129  0.13488  0.97254  1.0000
  H   H15       1.0  0.00128  0.13488  0.52745  1.0000
  H   H16       1.0  0.49874  0.86513  0.02744  1.0000
  H   H17       1.0  0.10469  0.32582  0.33843  1.0000
  H   H18       1.0  0.39532  0.67418  0.83843  1.0000
  H   H19       1.0  0.89529  0.67417  0.66158  1.0000
  H   H20       1.0  0.60472  0.32583  0.16159  1.0000
  H   H21       1.0  0.09358  0.16738  0.34836  1.0000
  H   H22       1.0  0.40643  0.83262  0.84835  1.0000
  H   H23       1.0  0.90640  0.83262  0.65165  1.0000
  H   H24       1.0  0.59362  0.16738  0.15165  1.0000
  C   C1        1.0  0.32966  0.94699  0.39583  1.0000
  C   C2        1.0  0.17033  0.05301  0.89583  1.0000
  C   C3        1.0  0.67030  0.05301  0.60418  1.0000
  C   C4        1.0  0.82969  0.94699  0.10418  1.0000
  C   C5        1.0  0.54260  0.90978  0.34682  1.0000
  C   C6        1.0  0.95739  0.09023  0.84683  1.0000
  C   C7        1.0  0.45737  0.09022  0.65317  1.0000
  C   C8        1.0  0.04263  0.90978  0.15318  1.0000
  C   C9        1.0  0.58796  0.77539  0.33931  1.0000
  C   C10       1.0  0.91203  0.22460  0.83932  1.0000
  C   C11       1.0  0.41200  0.22459  0.66069  1.0000
  C   C12       1.0  0.08800  0.77541  0.16068  1.0000
  C   C13       1.0  0.42219  0.67049  0.38043  1.0000
  C   C14       1.0  0.07778  0.32950  0.88044  1.0000
  C   C15       1.0  0.57775  0.32950  0.61956  1.0000
  C   C16       1.0  0.92223  0.67050  0.11955  1.0000
  C   C17       1.0  0.20891  0.70261  0.42950  1.0000
  C   C18       1.0  0.29108  0.29739  0.92951  1.0000
  C   C19       1.0  0.79106  0.29740  0.57050  1.0000
  C   C20       1.0  0.70893  0.70260  0.07049  1.0000
  C   C21       1.0  0.16346  0.83813  0.43653  1.0000
  C   C22       1.0  0.33654  0.16186  0.93654  1.0000
  C   C23       1.0  0.83655  0.16187  0.56347  1.0000
  C   C24       1.0  0.66345  0.83814  0.06346  1.0000
  N   N1        1.0  0.47206  0.53385  0.37385  1.0000
  N   N2        1.0  0.02794  0.46615  0.87385  1.0000
  N   N3        1.0  0.52789  0.46614  0.62615  1.0000
  N   N4        1.0  0.97210  0.53386  0.12615  1.0000
  O   O1        1.0  0.28792  0.07381  0.40447  1.0000
  O   O2        1.0  0.21209  0.92619  0.90447  1.0000
  O   O3        1.0  0.71205  0.92619  0.59553  1.0000
  O   O4        1.0  0.78795  0.07381  0.09553  1.0000
  O   O5        1.0  0.66442  0.50490  0.33266  1.0000
  O   O6        1.0  0.83557  0.49511  0.83266  1.0000
  O   O7        1.0  0.33554  0.49512  0.66735  1.0000
  O   O8        1.0  0.16445  0.50489  0.16734  1.0000
  O   O9        1.0  0.32356  0.43943  0.41231  1.0000
  O   O10       1.0  0.17643  0.56057  0.91231  1.0000
  O   O11       1.0  0.67641  0.56056  0.58770  1.0000
  O   O12       1.0  0.82358  0.43945  0.08769  1.0000
  O   O13       1.0  0.00800  0.24086  0.31613  1.0000
  O   O14       1.0  0.49201  0.75914  0.81613  1.0000
  O   O15       1.0  0.99199  0.75914  0.68387  1.0000
  O   O16       1.0  0.50802  0.24085  0.18387  1.0000
