data_image0
_chemical_formula_structural       Tl4H16C24N4O12
_chemical_formula_sum              "Tl4 H16 C24 N4 O12"
_cell_length_a       3.902
_cell_length_b       13.7611
_cell_length_c       15.3357
_cell_angle_alpha    116.585
_cell_angle_beta     90.1562
_cell_angle_gamma    97.8828

_space_group_name_H-M_alt    "P 1"
_space_group_IT_number       1

loop_
  _space_group_symop_operation_xyz
  'x, y, z'

loop_
  _atom_site_type_symbol
  _atom_site_label
  _atom_site_symmetry_multiplicity
  _atom_site_fract_x
  _atom_site_fract_y
  _atom_site_fract_z
  _atom_site_occupancy
  Tl  Tl1       1.0  0.63671  0.95681  0.36062  1.0000
  Tl  Tl2       1.0  0.68079  0.04287  0.13931  1.0000
  Tl  Tl3       1.0  0.36328  0.04319  0.63937  1.0000
  Tl  Tl4       1.0  0.31921  0.95714  0.86070  1.0000
  H   H1        1.0  0.28579  0.42544  0.45927  1.0000
  H   H2        1.0  0.85898  0.57514  0.04148  1.0000
  H   H3        1.0  0.71422  0.57456  0.54074  1.0000
  H   H4        1.0  0.14101  0.42485  0.95852  1.0000
  H   H5        1.0  0.13028  0.53239  0.63032  1.0000
  H   H6        1.0  0.59676  0.46825  0.87038  1.0000
  H   H7        1.0  0.86971  0.46761  0.36968  1.0000
  H   H8        1.0  0.40325  0.53175  0.12961  1.0000
  H   H9        1.0  0.98265  0.43330  0.73231  1.0000
  H   H10       1.0  0.55109  0.56693  0.76767  1.0000
  H   H11       1.0  0.01734  0.56669  0.26769  1.0000
  H   H12       1.0  0.44891  0.43307  0.23233  1.0000
  H   H13       1.0  0.00499  0.23695  0.66677  1.0000
  H   H14       1.0  0.77391  0.76256  0.83236  1.0000
  H   H15       1.0  0.99501  0.76305  0.33323  1.0000
  H   H16       1.0  0.22608  0.23744  0.16764  1.0000
  C   C1        1.0  0.16175  0.21239  0.52394  1.0000
  C   C2        1.0  0.95241  0.78744  0.97570  1.0000
  C   C3        1.0  0.83825  0.78761  0.47606  1.0000
  C   C4        1.0  0.04760  0.21256  0.02430  1.0000
  C   C5        1.0  0.23190  0.27189  0.46657  1.0000
  C   C6        1.0  0.96122  0.72823  0.03351  1.0000
  C   C7        1.0  0.76810  0.72811  0.53343  1.0000
  C   C8        1.0  0.03878  0.27176  0.96648  1.0000
  C   C9        1.0  0.22786  0.38619  0.50648  1.0000
  C   C10       1.0  0.84148  0.61420  0.99398  1.0000
  C   C11       1.0  0.77215  0.61381  0.49352  1.0000
  C   C12       1.0  0.15851  0.38580  0.00602  1.0000
  C   C13       1.0  0.13932  0.44468  0.60082  1.0000
  C   C14       1.0  0.69454  0.55574  0.89962  1.0000
  C   C15       1.0  0.86068  0.55532  0.39918  1.0000
  C   C16       1.0  0.30547  0.44426  0.10037  1.0000
  C   C17       1.0  0.05705  0.38870  0.65781  1.0000
  C   C18       1.0  0.67018  0.61145  0.84218  1.0000
  C   C19       1.0  0.94295  0.61130  0.34219  1.0000
  C   C20       1.0  0.32983  0.38855  0.15781  1.0000
  C   C21       1.0  0.06934  0.27795  0.62099  1.0000
  C   C22       1.0  0.79547  0.72185  0.87855  1.0000
  C   C23       1.0  0.93066  0.72205  0.37901  1.0000
  C   C24       1.0  0.20453  0.27815  0.12145  1.0000
  N   N1        1.0  0.31232  0.21818  0.36771  1.0000
  N   N2        1.0  0.09568  0.78186  0.13234  1.0000
  N   N3        1.0  0.68768  0.78182  0.63229  1.0000
  N   N4        1.0  0.90432  0.21814  0.86766  1.0000
  O   O1        1.0  0.18621  0.10969  0.49463  1.0000
  O   O2        1.0  0.08027  0.88985  0.00479  1.0000
  O   O3        1.0  0.81379  0.89031  0.50537  1.0000
  O   O4        1.0  0.91974  0.11015  0.99521  1.0000
  O   O5        1.0  0.21369  0.11522  0.31846  1.0000
  O   O6        1.0  0.10096  0.88501  0.18138  1.0000
  O   O7        1.0  0.78632  0.88479  0.68154  1.0000
  O   O8        1.0  0.89904  0.11499  0.81862  1.0000
  O   O9        1.0  0.47482  0.27224  0.32892  1.0000
  O   O10       1.0  0.20363  0.72757  0.17136  1.0000
  O   O11       1.0  0.52517  0.72776  0.67109  1.0000
  O   O12       1.0  0.79639  0.27243  0.82864  1.0000
