data_image0
_chemical_formula_structural       Zn2H44C50N8O10
_chemical_formula_sum              "Zn2 H44 C50 N8 O10"
_cell_length_a       8.38672
_cell_length_b       10.8871
_cell_length_c       14.1256
_cell_angle_alpha    83.6229
_cell_angle_beta     72.7052
_cell_angle_gamma    68.0065

_space_group_name_H-M_alt    "P 1"
_space_group_IT_number       1

loop_
  _space_group_symop_operation_xyz
  'x, y, z'

loop_
  _atom_site_type_symbol
  _atom_site_label
  _atom_site_symmetry_multiplicity
  _atom_site_fract_x
  _atom_site_fract_y
  _atom_site_fract_z
  _atom_site_occupancy
  Zn  Zn1       1.0  0.93679  0.74994  0.12687  1.0000
  Zn  Zn2       1.0  0.06321  0.25005  0.87313  1.0000
  H   H1        1.0  0.80474  0.48464  0.96415  1.0000
  H   H2        1.0  0.23133  0.01520  0.96380  1.0000
  H   H3        1.0  0.19526  0.51536  0.03585  1.0000
  H   H4        1.0  0.76867  0.98480  0.03620  1.0000
  H   H5        1.0  0.66346  0.64262  0.93949  1.0000
  H   H6        1.0  0.39757  0.85727  0.93909  1.0000
  H   H7        1.0  0.33654  0.35738  0.06051  1.0000
  H   H8        1.0  0.60243  0.14273  0.06091  1.0000
  H   H9        1.0  0.40849  0.60824  0.07980  1.0000
  H   H10       1.0  0.51116  0.89184  0.07982  1.0000
  H   H11       1.0  0.59151  0.39176  0.92020  1.0000
  H   H12       1.0  0.48884  0.10816  0.92018  1.0000
  H   H13       1.0  0.55433  0.44599  0.09530  1.0000
  H   H14       1.0  0.34972  0.05405  0.09513  1.0000
  H   H15       1.0  0.44568  0.55401  0.90470  1.0000
  H   H16       1.0  0.65029  0.94595  0.90486  1.0000
  H   H17       1.0  0.24820  0.67026  0.24937  1.0000
  H   H18       1.0  0.50313  0.82948  0.24949  1.0000
  H   H19       1.0  0.75179  0.32973  0.75063  1.0000
  H   H20       1.0  0.49688  0.17052  0.75051  1.0000
  H   H21       1.0  0.88622  0.49524  0.23207  1.0000
  H   H22       1.0  0.88188  0.00506  0.23205  1.0000
  H   H23       1.0  0.11378  0.50475  0.76793  1.0000
  H   H24       1.0  0.11813  0.99493  0.76795  1.0000
  H   H25       1.0  0.09127  0.34043  0.35777  1.0000
  H   H26       1.0  0.55076  0.15984  0.35770  1.0000
  H   H27       1.0  0.90873  0.65957  0.64223  1.0000
  H   H28       1.0  0.44924  0.84016  0.64230  1.0000
  H   H29       1.0  0.54868  0.48350  0.25596  1.0000
  H   H30       1.0  0.19580  0.01645  0.25589  1.0000
  H   H31       1.0  0.45133  0.51650  0.74404  1.0000
  H   H32       1.0  0.80420  0.98355  0.74411  1.0000
  H   H33       1.0  0.77992  0.36791  0.34247  1.0000
  H   H34       1.0  0.87786  0.13185  0.34244  1.0000
  H   H35       1.0  0.22008  0.63209  0.65753  1.0000
  H   H36       1.0  0.12214  0.86814  0.65756  1.0000
  H   H37       1.0  0.38555  0.29782  0.59497  1.0000
  H   H38       1.0  0.01905  0.20200  0.59506  1.0000
  H   H39       1.0  0.61445  0.70218  0.40503  1.0000
  H   H40       1.0  0.98094  0.79801  0.40494  1.0000
  H   H41       1.0  0.15283  0.40240  0.50476  1.0000
  H   H42       1.0  0.34215  0.09762  0.50481  1.0000
  H   H43       1.0  0.84716  0.59761  0.49524  1.0000
  H   H44       1.0  0.65784  0.90239  0.49519  1.0000
  C   C1        1.0  0.73589  0.62539  0.07418  1.0000
  C   C2        1.0  0.19010  0.87443  0.07377  1.0000
  C   C3        1.0  0.26411  0.37461  0.92582  1.0000
  C   C4        1.0  0.80989  0.12557  0.92623  1.0000
  C   C5        1.0  0.68453  0.56880  0.99893  1.0000
  C   C6        1.0  0.31677  0.93108  0.99857  1.0000
  C   C7        1.0  0.31547  0.43119  0.00107  1.0000
  C   C8        1.0  0.68323  0.06892  0.00143  1.0000
  C   C9        1.0  0.52440  0.52502  0.04022  1.0000
  C   C10       1.0  0.43520  0.97499  0.04010  1.0000
  C   C11       1.0  0.47560  0.47498  0.95978  1.0000
  C   C12       1.0  0.56480  0.02501  0.95990  1.0000
  C   C13       1.0  0.17830  0.60144  0.26020  1.0000
  C   C14       1.0  0.56196  0.89850  0.26026  1.0000
  C   C15       1.0  0.82170  0.39856  0.73980  1.0000
  C   C16       1.0  0.43804  0.10151  0.73974  1.0000
  C   C17       1.0  0.99169  0.50637  0.25589  1.0000
  C   C18       1.0  0.75265  0.99381  0.25590  1.0000
  C   C19       1.0  0.00831  0.49363  0.74411  1.0000
  C   C20       1.0  0.24735  0.00619  0.74410  1.0000
  C   C21       1.0  0.08915  0.43172  0.31808  1.0000
  C   C22       1.0  0.59283  0.06845  0.31806  1.0000
  C   C23       1.0  0.91085  0.56828  0.68192  1.0000
  C   C24       1.0  0.40717  0.93155  0.68194  1.0000
  C   C25       1.0  0.33862  0.44246  0.37328  1.0000
  C   C26       1.0  0.28818  0.05748  0.37330  1.0000
  C   C27       1.0  0.66137  0.55755  0.62672  1.0000
  C   C28       1.0  0.71182  0.94252  0.62670  1.0000
  C   C29       1.0  0.51335  0.43800  0.32838  1.0000
  C   C30       1.0  0.15852  0.06188  0.32835  1.0000
  C   C31       1.0  0.48664  0.56201  0.67162  1.0000
  C   C32       1.0  0.84148  0.93812  0.67165  1.0000
  C   C33       1.0  0.64301  0.37424  0.37801  1.0000
  C   C34       1.0  0.97911  0.12556  0.37801  1.0000
  C   C35       1.0  0.35699  0.62576  0.62199  1.0000
  C   C36       1.0  0.02088  0.87444  0.62199  1.0000
  C   C37       1.0  0.60031  0.31876  0.47257  1.0000
  C   C38       1.0  0.92699  0.18103  0.47260  1.0000
  C   C39       1.0  0.39968  0.68124  0.52743  1.0000
  C   C40       1.0  0.07301  0.81897  0.52740  1.0000
  C   C41       1.0  0.42098  0.33391  0.51935  1.0000
  C   C42       1.0  0.05942  0.16593  0.51942  1.0000
  C   C43       1.0  0.57902  0.66609  0.48065  1.0000
  C   C44       1.0  0.94057  0.83408  0.48058  1.0000
  C   C45       1.0  0.29113  0.39357  0.46944  1.0000
  C   C46       1.0  0.23929  0.10636  0.46949  1.0000
  C   C47       1.0  0.70887  0.60643  0.53056  1.0000
  C   C48       1.0  0.76071  0.89365  0.53051  1.0000
  C   C49       1.0  0.73599  0.24988  0.52773  1.0000
  C   C50       1.0  0.26401  0.75012  0.47227  1.0000
  N   N1        1.0  0.04750  0.61170  0.22133  1.0000
  N   N2        1.0  0.73165  0.88833  0.22139  1.0000
  N   N3        1.0  0.95250  0.38830  0.77867  1.0000
  N   N4        1.0  0.26835  0.11167  0.77861  1.0000
  N   N5        1.0  0.20725  0.49264  0.32033  1.0000
  N   N6        1.0  0.47262  0.00736  0.32035  1.0000
  N   N7        1.0  0.79275  0.50736  0.67967  1.0000
  N   N8        1.0  0.52738  0.99264  0.67965  1.0000
  O   O1        1.0  0.85754  0.67724  0.03571  1.0000
  O   O2        1.0  0.10740  0.82219  0.03529  1.0000
  O   O3        1.0  0.14246  0.32276  0.96429  1.0000
  O   O4        1.0  0.89261  0.17780  0.96471  1.0000
  O   O5        1.0  0.66573  0.61957  0.16571  1.0000
  O   O6        1.0  0.16823  0.88059  0.16530  1.0000
  O   O7        1.0  0.33427  0.38043  0.83429  1.0000
  O   O8        1.0  0.83176  0.11941  0.83470  1.0000
  O   O9        1.0  0.69000  0.24985  0.61952  1.0000
  O   O10       1.0  0.31000  0.75014  0.38048  1.0000
