data_image0
_chemical_formula_structural       Ag2H8C12N6O16
_chemical_formula_sum              "Ag2 H8 C12 N6 O16"
_cell_length_a       3.77648
_cell_length_b       11.9315
_cell_length_c       11.9316
_cell_angle_alpha    117.097
_cell_angle_beta     92.2509
_cell_angle_gamma    92.2509

_space_group_name_H-M_alt    "P 1"
_space_group_IT_number       1

loop_
  _space_group_symop_operation_xyz
  'x, y, z'

loop_
  _atom_site_type_symbol
  _atom_site_label
  _atom_site_symmetry_multiplicity
  _atom_site_fract_x
  _atom_site_fract_y
  _atom_site_fract_z
  _atom_site_occupancy
  Ag  Ag1       1.0  0.50000  0.50000  0.50000  1.0000
  Ag  Ag2       1.0  0.00001  1.00000  0.00000  1.0000
  H   H1        1.0  0.56624  0.77505  0.85091  1.0000
  H   H2        1.0  0.43377  0.14909  0.22496  1.0000
  H   H3        1.0  0.43378  0.22496  0.14909  1.0000
  H   H4        1.0  0.56624  0.85091  0.77505  1.0000
  H   H5        1.0  0.76208  0.38488  0.91850  1.0000
  H   H6        1.0  0.23791  0.08150  0.61511  1.0000
  H   H7        1.0  0.23790  0.61511  0.08150  1.0000
  H   H8        1.0  0.76211  0.91851  0.38489  1.0000
  C   C1        1.0  0.99999  0.36801  0.63199  1.0000
  C   C2        1.0  0.00000  0.63199  0.36801  1.0000
  C   C3        1.0  0.86593  0.41471  0.75797  1.0000
  C   C4        1.0  0.13406  0.24203  0.58529  1.0000
  C   C5        1.0  0.13407  0.58529  0.24203  1.0000
  C   C6        1.0  0.86593  0.75797  0.41470  1.0000
  C   C7        1.0  0.86663  0.34622  0.82551  1.0000
  C   C8        1.0  0.13335  0.17449  0.65378  1.0000
  C   C9        1.0  0.13335  0.65378  0.17449  1.0000
  C   C10       1.0  0.86665  0.82551  0.34622  1.0000
  C   C11       1.0  0.99998  0.22697  0.77303  1.0000
  C   C12       1.0  1.00000  0.77303  0.22697  1.0000
  N   N1        1.0  0.72060  0.53781  0.82024  1.0000
  N   N2        1.0  0.27940  0.17976  0.46219  1.0000
  N   N3        1.0  0.27940  0.46219  0.17976  1.0000
  N   N4        1.0  0.72061  0.82024  0.53781  1.0000
  N   N5        1.0  0.99999  0.15568  0.84432  1.0000
  N   N6        1.0  1.00000  0.84432  0.15569  1.0000
  O   O1        1.0  0.00000  0.43013  0.56987  1.0000
  O   O2        1.0  0.00000  0.56987  0.43013  1.0000
  O   O3        1.0  0.33157  0.24020  0.40113  1.0000
  O   O4        1.0  0.66844  0.59887  0.75980  1.0000
  O   O5        1.0  0.66845  0.75980  0.59887  1.0000
  O   O6        1.0  0.33156  0.40113  0.24020  1.0000
  O   O7        1.0  0.64792  0.57766  0.93225  1.0000
  O   O8        1.0  0.35208  0.06775  0.42234  1.0000
  O   O9        1.0  0.35207  0.42234  0.06775  1.0000
  O   O10       1.0  0.64793  0.93225  0.57766  1.0000
  O   O11       1.0  0.84525  0.19815  0.94426  1.0000
  O   O12       1.0  0.15474  0.05574  0.80185  1.0000
  O   O13       1.0  0.15475  0.80185  0.05574  1.0000
  O   O14       1.0  0.84527  0.94426  0.19815  1.0000
  O   O15       1.0  0.54240  0.86080  0.86080  1.0000
  O   O16       1.0  0.45761  0.13920  0.13921  1.0000
