data_image0
_chemical_formula_structural       K4H20C12N32O12
_chemical_formula_sum              "K4 H20 C12 N32 O12"
_cell_length_a       6.96202
_cell_length_b       7.6225
_cell_length_c       18.2704
_cell_angle_alpha    90.0001
_cell_angle_beta     90
_cell_angle_gamma    112.028

_space_group_name_H-M_alt    "P 1"
_space_group_IT_number       1

loop_
  _space_group_symop_operation_xyz
  'x, y, z'

loop_
  _atom_site_type_symbol
  _atom_site_label
  _atom_site_symmetry_multiplicity
  _atom_site_fract_x
  _atom_site_fract_y
  _atom_site_fract_z
  _atom_site_occupancy
  K   K1        1.0  0.92450  0.84756  0.75000  1.0000
  K   K2        1.0  0.07550  0.15244  0.25000  1.0000
  K   K3        1.0  0.34518  0.62992  0.75000  1.0000
  K   K4        1.0  0.65482  0.37007  0.25000  1.0000
  H   H1        1.0  0.67323  0.59375  0.61439  1.0000
  H   H2        1.0  0.32677  0.40625  0.11439  1.0000
  H   H3        1.0  0.32677  0.40625  0.38561  1.0000
  H   H4        1.0  0.67323  0.59375  0.88561  1.0000
  H   H5        1.0  0.67314  0.79794  0.59885  1.0000
  H   H6        1.0  0.32686  0.20206  0.09885  1.0000
  H   H7        1.0  0.32686  0.20206  0.40115  1.0000
  H   H8        1.0  0.67314  0.79794  0.90115  1.0000
  H   H9        1.0  0.86453  0.39125  0.70760  1.0000
  H   H10       1.0  0.13547  0.60875  0.20760  1.0000
  H   H11       1.0  0.13547  0.60875  0.29240  1.0000
  H   H12       1.0  0.86453  0.39125  0.79240  1.0000
  H   H13       1.0  0.62359  0.08493  0.70677  1.0000
  H   H14       1.0  0.37641  0.91507  0.20677  1.0000
  H   H15       1.0  0.37640  0.91506  0.29323  1.0000
  H   H16       1.0  0.62359  0.08493  0.79323  1.0000
  H   H17       1.0  0.23944  0.47473  0.95602  1.0000
  H   H18       1.0  0.76056  0.52527  0.45602  1.0000
  H   H19       1.0  0.76056  0.52526  0.04398  1.0000
  H   H20       1.0  0.23944  0.47474  0.54398  1.0000
  C   C1        1.0  0.24758  0.81546  0.00040  1.0000
  C   C2        1.0  0.75242  0.18454  0.50040  1.0000
  C   C3        1.0  0.75242  0.18453  0.99960  1.0000
  C   C4        1.0  0.24758  0.81547  0.49960  1.0000
  C   C5        1.0  0.20846  0.87584  0.92712  1.0000
  C   C6        1.0  0.79155  0.12416  0.42712  1.0000
  C   C7        1.0  0.79156  0.12417  0.07289  1.0000
  C   C8        1.0  0.20843  0.87583  0.57289  1.0000
  C   C9        1.0  0.20748  0.06726  0.91623  1.0000
  C   C10       1.0  0.79252  0.93274  0.41623  1.0000
  C   C11       1.0  0.79252  0.93273  0.08377  1.0000
  C   C12       1.0  0.20749  0.06728  0.58377  1.0000
  N   N1        1.0  0.25461  0.64248  0.01081  1.0000
  N   N2        1.0  0.74539  0.35752  0.51081  1.0000
  N   N3        1.0  0.74539  0.35752  0.98919  1.0000
  N   N4        1.0  0.25461  0.64248  0.48919  1.0000
  N   N5        1.0  0.28929  0.63066  0.08158  1.0000
  N   N6        1.0  0.71070  0.36934  0.58158  1.0000
  N   N7        1.0  0.71071  0.36934  0.91842  1.0000
  N   N8        1.0  0.28929  0.63066  0.41842  1.0000
  N   N9        1.0  0.30251  0.79219  0.11402  1.0000
  N   N10       1.0  0.69749  0.20781  0.61402  1.0000
  N   N11       1.0  0.69749  0.20781  0.88598  1.0000
  N   N12       1.0  0.30251  0.79218  0.38598  1.0000
  N   N13       1.0  0.27730  0.91054  0.06442  1.0000
  N   N14       1.0  0.72271  0.08946  0.56442  1.0000
  N   N15       1.0  0.72270  0.08946  0.93558  1.0000
  N   N16       1.0  0.27730  0.91054  0.43558  1.0000
  N   N17       1.0  0.23333  0.19944  0.96791  1.0000
  N   N18       1.0  0.76667  0.80056  0.46791  1.0000
  N   N19       1.0  0.76666  0.80055  0.03209  1.0000
  N   N20       1.0  0.23334  0.19945  0.53209  1.0000
  N   N21       1.0  0.22536  0.34248  0.92933  1.0000
  N   N22       1.0  0.77464  0.65752  0.42933  1.0000
  N   N23       1.0  0.77464  0.65751  0.07067  1.0000
  N   N24       1.0  0.22536  0.34249  0.57067  1.0000
  N   N25       1.0  0.19582  0.30616  0.85785  1.0000
  N   N26       1.0  0.80418  0.69383  0.35785  1.0000
  N   N27       1.0  0.80418  0.69383  0.14215  1.0000
  N   N28       1.0  0.19582  0.30617  0.64215  1.0000
  N   N29       1.0  0.18350  0.13141  0.84863  1.0000
  N   N30       1.0  0.81650  0.86858  0.34864  1.0000
  N   N31       1.0  0.81650  0.86858  0.15136  1.0000
  N   N32       1.0  0.18350  0.13142  0.65136  1.0000
  O   O1        1.0  0.64577  0.70003  0.63665  1.0000
  O   O2        1.0  0.35423  0.29997  0.13665  1.0000
  O   O3        1.0  0.35423  0.29997  0.36335  1.0000
  O   O4        1.0  0.64577  0.70003  0.86335  1.0000
  O   O5        1.0  0.90375  0.47529  0.75000  1.0000
  O   O6        1.0  0.09625  0.52471  0.25000  1.0000
  O   O7        1.0  0.17769  0.76671  0.87446  1.0000
  O   O8        1.0  0.82232  0.23329  0.37446  1.0000
  O   O9        1.0  0.82232  0.23327  0.12553  1.0000
  O   O10       1.0  0.17767  0.76672  0.62553  1.0000
  O   O11       1.0  0.61026  0.00380  0.75000  1.0000
  O   O12       1.0  0.38973  0.99620  0.25000  1.0000
