data_image0
_chemical_formula_structural       Cd4H44C56N20O24
_chemical_formula_sum              "Cd4 H44 C56 N20 O24"
_cell_length_a       9.73748
_cell_length_b       11.9897
_cell_length_c       14.7639
_cell_angle_alpha    97.7682
_cell_angle_beta     90
_cell_angle_gamma    90

_space_group_name_H-M_alt    "P 1"
_space_group_IT_number       1

loop_
  _space_group_symop_operation_xyz
  'x, y, z'

loop_
  _atom_site_type_symbol
  _atom_site_label
  _atom_site_symmetry_multiplicity
  _atom_site_fract_x
  _atom_site_fract_y
  _atom_site_fract_z
  _atom_site_occupancy
  Cd  Cd1       1.0  0.40003  0.44201  0.88888  1.0000
  Cd  Cd2       1.0  0.90003  0.55799  0.61112  1.0000
  Cd  Cd3       1.0  0.59997  0.55799  0.11112  1.0000
  Cd  Cd4       1.0  0.09997  0.44201  0.38888  1.0000
  H   H1        1.0  0.05420  0.18347  0.46303  1.0000
  H   H2        1.0  0.55420  0.81653  0.03697  1.0000
  H   H3        1.0  0.94580  0.81653  0.53697  1.0000
  H   H4        1.0  0.44580  0.18347  0.96303  1.0000
  H   H5        1.0  0.31508  0.94360  0.57154  1.0000
  H   H6        1.0  0.81509  0.05640  0.92847  1.0000
  H   H7        1.0  0.68492  0.05640  0.42846  1.0000
  H   H8        1.0  0.18492  0.94360  0.07154  1.0000
  H   H9        1.0  0.35538  0.08341  0.71203  1.0000
  H   H10       1.0  0.85538  0.91659  0.78797  1.0000
  H   H11       1.0  0.64462  0.91660  0.28797  1.0000
  H   H12       1.0  0.14462  0.08340  0.21203  1.0000
  H   H13       1.0  0.27455  0.68024  0.02638  1.0000
  H   H14       1.0  0.77455  0.31976  0.47362  1.0000
  H   H15       1.0  0.72545  0.31976  0.97362  1.0000
  H   H16       1.0  0.22545  0.68025  0.52638  1.0000
  H   H17       1.0  0.00854  0.75622  0.00120  1.0000
  H   H18       1.0  0.50854  0.24378  0.49880  1.0000
  H   H19       1.0  0.99146  0.24378  0.99880  1.0000
  H   H20       1.0  0.49146  0.75622  0.50120  1.0000
  H   H21       1.0  0.90904  0.60863  0.87324  1.0000
  H   H22       1.0  0.40904  0.39137  0.62676  1.0000
  H   H23       1.0  0.09096  0.39137  0.12676  1.0000
  H   H24       1.0  0.59096  0.60863  0.37324  1.0000
  H   H25       1.0  0.07000  0.44522  0.83347  1.0000
  H   H26       1.0  0.57000  0.55478  0.66653  1.0000
  H   H27       1.0  0.93000  0.55478  0.16653  1.0000
  H   H28       1.0  0.43000  0.44522  0.33347  1.0000
  H   H29       1.0  0.71824  0.46804  0.80042  1.0000
  H   H30       1.0  0.21824  0.53196  0.69958  1.0000
  H   H31       1.0  0.28176  0.53196  0.19958  1.0000
  H   H32       1.0  0.78176  0.46804  0.30042  1.0000
  H   H33       1.0  0.87304  0.30870  0.73560  1.0000
  H   H34       1.0  0.37304  0.69130  0.76440  1.0000
  H   H35       1.0  0.12696  0.69130  0.26440  1.0000
  H   H36       1.0  0.62696  0.30870  0.23560  1.0000
  H   H37       1.0  0.76804  0.11494  0.75286  1.0000
  H   H38       1.0  0.26804  0.88506  0.74714  1.0000
  H   H39       1.0  0.23196  0.88506  0.24714  1.0000
  H   H40       1.0  0.73196  0.11494  0.25286  1.0000
  H   H41       1.0  0.51396  0.16517  0.83460  1.0000
  H   H42       1.0  0.01396  0.83483  0.66540  1.0000
  H   H43       1.0  0.48604  0.83483  0.16540  1.0000
  H   H44       1.0  0.98604  0.16517  0.33460  1.0000
  C   C1        1.0  0.26335  0.29437  0.74720  1.0000
  C   C2        1.0  0.76335  0.70563  0.75280  1.0000
  C   C3        1.0  0.73665  0.70563  0.25280  1.0000
  C   C4        1.0  0.23665  0.29437  0.24720  1.0000
  C   C5        1.0  0.22487  0.20967  0.66654  1.0000
  C   C6        1.0  0.72487  0.79033  0.83346  1.0000
  C   C7        1.0  0.77513  0.79033  0.33346  1.0000
  C   C8        1.0  0.27513  0.20967  0.16654  1.0000
  C   C9        1.0  0.13814  0.23830  0.59669  1.0000
  C   C10       1.0  0.63815  0.76170  0.90331  1.0000
  C   C11       1.0  0.86186  0.76170  0.40331  1.0000
  C   C12       1.0  0.36186  0.23830  0.09669  1.0000
  C   C13       1.0  0.05882  0.34702  0.60801  1.0000
  C   C14       1.0  0.55882  0.65298  0.89199  1.0000
  C   C15       1.0  0.94118  0.65298  0.39199  1.0000
  C   C16       1.0  0.44118  0.34702  0.10801  1.0000
  C   C17       1.0  0.11981  0.16212  0.51756  1.0000
  C   C18       1.0  0.61981  0.83788  0.98244  1.0000
  C   C19       1.0  0.88019  0.83788  0.48244  1.0000
  C   C20       1.0  0.38019  0.16212  0.01756  1.0000
  C   C21       1.0  0.18405  0.05738  0.51036  1.0000
  C   C22       1.0  0.68405  0.94262  0.98964  1.0000
  C   C23       1.0  0.81595  0.94262  0.48964  1.0000
  C   C24       1.0  0.31595  0.05738  0.01036  1.0000
  C   C25       1.0  0.26828  0.02671  0.57950  1.0000
  C   C26       1.0  0.76829  0.97328  0.92050  1.0000
  C   C27       1.0  0.73172  0.97329  0.42050  1.0000
  C   C28       1.0  0.23172  0.02671  0.07950  1.0000
  C   C29       1.0  0.28893  0.10403  0.65726  1.0000
  C   C30       1.0  0.78893  0.89597  0.84274  1.0000
  C   C31       1.0  0.71107  0.89597  0.34274  1.0000
  C   C32       1.0  0.21107  0.10403  0.15726  1.0000
  C   C33       1.0  0.19228  0.64176  0.98377  1.0000
  C   C34       1.0  0.69228  0.35824  0.51623  1.0000
  C   C35       1.0  0.80772  0.35824  0.01623  1.0000
  C   C36       1.0  0.30772  0.64176  0.48377  1.0000
  C   C37       1.0  0.06180  0.68073  0.97138  1.0000
  C   C38       1.0  0.56180  0.31927  0.52862  1.0000
  C   C39       1.0  0.93820  0.31927  0.02862  1.0000
  C   C40       1.0  0.43820  0.68073  0.47138  1.0000
  C   C41       1.0  0.09079  0.51742  0.88416  1.0000
  C   C42       1.0  0.59079  0.48258  0.61584  1.0000
  C   C43       1.0  0.90921  0.48258  0.11584  1.0000
  C   C44       1.0  0.40921  0.51742  0.38416  1.0000
  C   C45       1.0  0.69497  0.37963  0.80079  1.0000
  C   C46       1.0  0.19497  0.62037  0.69920  1.0000
  C   C47       1.0  0.30503  0.62037  0.19921  1.0000
  C   C48       1.0  0.80503  0.37963  0.30079  1.0000
  C   C49       1.0  0.71934  0.19460  0.77691  1.0000
  C   C50       1.0  0.21934  0.80540  0.72309  1.0000
  C   C51       1.0  0.28066  0.80540  0.22309  1.0000
  C   C52       1.0  0.78066  0.19460  0.27691  1.0000
  C   C53       1.0  0.59419  0.22117  0.81743  1.0000
  C   C54       1.0  0.09419  0.77883  0.68257  1.0000
  C   C55       1.0  0.40581  0.77883  0.18257  1.0000
  C   C56       1.0  0.90581  0.22117  0.31743  1.0000
  N   N1        1.0  0.16008  0.97519  0.42924  1.0000
  N   N2        1.0  0.66008  0.02481  0.07076  1.0000
  N   N3        1.0  0.83992  0.02481  0.57076  1.0000
  N   N4        1.0  0.33992  0.97519  0.92924  1.0000
  N   N5        1.0  0.20891  0.53945  0.92902  1.0000
  N   N6        1.0  0.70891  0.46055  0.57098  1.0000
  N   N7        1.0  0.79109  0.46055  0.07098  1.0000
  N   N8        1.0  0.29109  0.53945  0.42902  1.0000
  N   N9        1.0  0.99970  0.60079  0.90867  1.0000
  N   N10       1.0  0.49970  0.39921  0.59133  1.0000
  N   N11       1.0  0.00030  0.39921  0.09133  1.0000
  N   N12       1.0  0.50030  0.60079  0.40867  1.0000
  N   N13       1.0  0.58047  0.33718  0.83227  1.0000
  N   N14       1.0  0.08047  0.66282  0.66773  1.0000
  N   N15       1.0  0.41953  0.66282  0.16773  1.0000
  N   N16       1.0  0.91953  0.33718  0.33227  1.0000
  N   N17       1.0  0.78053  0.29557  0.76701  1.0000
  N   N18       1.0  0.28053  0.70443  0.73299  1.0000
  N   N19       1.0  0.21947  0.70443  0.23299  1.0000
  N   N20       1.0  0.71946  0.29557  0.26701  1.0000
  O   O1        1.0  0.30972  0.38816  0.72717  1.0000
  O   O2        1.0  0.80972  0.61184  0.77283  1.0000
  O   O3        1.0  0.69028  0.61184  0.27283  1.0000
  O   O4        1.0  0.19028  0.38816  0.22717  1.0000
  O   O5        1.0  0.25756  0.26847  0.82700  1.0000
  O   O6        1.0  0.75756  0.73153  0.67300  1.0000
  O   O7        1.0  0.74244  0.73153  0.17300  1.0000
  O   O8        1.0  0.24244  0.26847  0.32700  1.0000
  O   O9        1.0  0.04680  0.40141  0.53984  1.0000
  O   O10       1.0  0.54680  0.59859  0.96016  1.0000
  O   O11       1.0  0.95319  0.59859  0.46016  1.0000
  O   O12       1.0  0.45320  0.40141  0.03984  1.0000
  O   O13       1.0  0.00334  0.37997  0.68460  1.0000
  O   O14       1.0  0.50334  0.62003  0.81540  1.0000
  O   O15       1.0  0.99666  0.62003  0.31540  1.0000
  O   O16       1.0  0.49666  0.37997  0.18460  1.0000
  O   O17       1.0  0.09466  0.00562  0.36418  1.0000
  O   O18       1.0  0.59467  0.99438  0.13582  1.0000
  O   O19       1.0  0.90534  0.99438  0.63582  1.0000
  O   O20       1.0  0.40533  0.00562  0.86418  1.0000
  O   O21       1.0  0.20466  0.87816  0.42951  1.0000
  O   O22       1.0  0.70465  0.12184  0.07049  1.0000
  O   O23       1.0  0.79534  0.12184  0.57049  1.0000
  O   O24       1.0  0.29535  0.87816  0.92951  1.0000
