data_image0
_chemical_formula_structural       Cd2H22C40N6O12
_chemical_formula_sum              "Cd2 H22 C40 N6 O12"
_cell_length_a       7.37795
_cell_length_b       10.2799
_cell_length_c       11.8138
_cell_angle_alpha    85.2519
_cell_angle_beta     80.5572
_cell_angle_gamma    78.9483

_space_group_name_H-M_alt    "P 1"
_space_group_IT_number       1

loop_
  _space_group_symop_operation_xyz
  'x, y, z'

loop_
  _atom_site_type_symbol
  _atom_site_label
  _atom_site_symmetry_multiplicity
  _atom_site_fract_x
  _atom_site_fract_y
  _atom_site_fract_z
  _atom_site_occupancy
  Cd  Cd1       1.0  0.80717  0.11573  0.09958  1.0000
  Cd  Cd2       1.0  0.19282  0.88427  0.90042  1.0000
  H   H1        1.0  0.39792  0.23399  0.26661  1.0000
  H   H2        1.0  0.60209  0.76600  0.73340  1.0000
  H   H3        1.0  0.25521  0.42736  0.38538  1.0000
  H   H4        1.0  0.74480  0.57264  0.61461  1.0000
  H   H5        1.0  0.43757  0.61064  0.38842  1.0000
  H   H6        1.0  0.56243  0.38936  0.61158  1.0000
  H   H7        1.0  0.73146  0.70056  0.32204  1.0000
  H   H8        1.0  0.26854  0.29944  0.67796  1.0000
  H   H9        1.0  0.05012  0.67318  0.20851  1.0000
  H   H10       1.0  0.94988  0.32681  0.79150  1.0000
  H   H11       1.0  0.30291  0.54471  0.07934  1.0000
  H   H12       1.0  0.69709  0.45529  0.92066  1.0000
  H   H13       1.0  0.42859  0.33176  0.97380  1.0000
  H   H14       1.0  0.57142  0.66823  0.02621  1.0000
  H   H15       1.0  0.22935  0.16113  0.98958  1.0000
  H   H16       1.0  0.77065  0.83887  0.01043  1.0000
  H   H17       1.0  0.54454  0.91390  0.44148  1.0000
  H   H18       1.0  0.45545  0.08610  0.55852  1.0000
  H   H19       1.0  0.28483  0.85084  0.58918  1.0000
  H   H20       1.0  0.71517  0.14917  0.41082  1.0000
  H   H21       1.0  0.95705  0.84806  0.31944  1.0000
  H   H22       1.0  0.04294  0.15195  0.68056  1.0000
  C   C1        1.0  0.47528  0.31340  0.27088  1.0000
  C   C2        1.0  0.52473  0.68660  0.72912  1.0000
  C   C3        1.0  0.39464  0.42357  0.33689  1.0000
  C   C4        1.0  0.60536  0.57643  0.66311  1.0000
  C   C5        1.0  0.49520  0.52342  0.33863  1.0000
  C   C6        1.0  0.50480  0.47658  0.66137  1.0000
  C   C7        1.0  0.67687  0.51281  0.27521  1.0000
  C   C8        1.0  0.32313  0.48719  0.72479  1.0000
  C   C9        1.0  0.78877  0.61239  0.27360  1.0000
  C   C10       1.0  0.21123  0.38761  0.72640  1.0000
  C   C11       1.0  0.96393  0.59778  0.21138  1.0000
  C   C12       1.0  0.03607  0.40222  0.78863  1.0000
  C   C13       1.0  0.04064  0.48322  0.14697  1.0000
  C   C14       1.0  0.95937  0.51678  0.85303  1.0000
  C   C15       1.0  0.22127  0.46619  0.08167  1.0000
  C   C16       1.0  0.77874  0.53381  0.91833  1.0000
  C   C17       1.0  0.28952  0.35153  0.02376  1.0000
  C   C18       1.0  0.71049  0.64847  0.97624  1.0000
  C   C19       1.0  0.17657  0.25460  0.03088  1.0000
  C   C20       1.0  0.82343  0.74540  0.96912  1.0000
  C   C21       1.0  0.93443  0.38180  0.14696  1.0000
  C   C22       1.0  0.06558  0.61820  0.85304  1.0000
  C   C23       1.0  0.74800  0.39733  0.21159  1.0000
  C   C24       1.0  0.25200  0.60267  0.78840  1.0000
  C   C25       1.0  0.54578  0.97205  0.21783  1.0000
  C   C26       1.0  0.45422  0.02795  0.78217  1.0000
  C   C27       1.0  0.39841  0.91407  0.29916  1.0000
  C   C28       1.0  0.60159  0.08593  0.70084  1.0000
  C   C29       1.0  0.41582  0.89755  0.41614  1.0000
  C   C30       1.0  0.58417  0.10245  0.58386  1.0000
  C   C31       1.0  0.27326  0.86186  0.49814  1.0000
  C   C32       1.0  0.72673  0.13814  0.50185  1.0000
  C   C33       1.0  0.11055  0.84433  0.46023  1.0000
  C   C34       1.0  0.88945  0.15568  0.53977  1.0000
  C   C35       1.0  0.08913  0.85800  0.34443  1.0000
  C   C36       1.0  0.91086  0.14200  0.65557  1.0000
  C   C37       1.0  0.23595  0.88925  0.26268  1.0000
  C   C38       1.0  0.76404  0.11076  0.73733  1.0000
  C   C39       1.0  0.22197  0.88131  0.13763  1.0000
  C   C40       1.0  0.77802  0.11870  0.86237  1.0000
  N   N1        1.0  0.64610  0.30072  0.21049  1.0000
  N   N2        1.0  0.35390  0.69928  0.78951  1.0000
  N   N3        1.0  0.00405  0.27016  0.08903  1.0000
  N   N4        1.0  0.99595  0.72984  0.91097  1.0000
  N   N5        1.0  0.95614  0.80926  0.54470  1.0000
  N   N6        1.0  0.04385  0.19074  0.45530  1.0000
  O   O1        1.0  0.50035  0.03428  0.12693  1.0000
  O   O2        1.0  0.49965  0.96572  0.87307  1.0000
  O   O3        1.0  0.70677  0.96420  0.24851  1.0000
  O   O4        1.0  0.29322  0.03580  0.75149  1.0000
  O   O5        1.0  0.81768  0.78479  0.50837  1.0000
  O   O6        1.0  0.18232  0.21521  0.49163  1.0000
  O   O7        1.0  0.97063  0.80483  0.64830  1.0000
  O   O8        1.0  0.02937  0.19516  0.35170  1.0000
  O   O9        1.0  0.31724  0.78059  0.08859  1.0000
  O   O10       1.0  0.68274  0.21941  0.91141  1.0000
  O   O11       1.0  0.10848  0.96846  0.08789  1.0000
  O   O12       1.0  0.89152  0.03155  0.91211  1.0000
