data_image0
_chemical_formula_structural       Cu4H28C38Br4N8O2
_chemical_formula_sum              "Cu4 H28 C38 Br4 N8 O2"
_cell_length_a       7.03844
_cell_length_b       11.6487
_cell_length_c       11.6487
_cell_angle_alpha    83.8646
_cell_angle_beta     75.0006
_cell_angle_gamma    75.0006

_space_group_name_H-M_alt    "P 1"
_space_group_IT_number       1

loop_
  _space_group_symop_operation_xyz
  'x, y, z'

loop_
  _atom_site_type_symbol
  _atom_site_label
  _atom_site_symmetry_multiplicity
  _atom_site_fract_x
  _atom_site_fract_y
  _atom_site_fract_z
  _atom_site_occupancy
  Cu  Cu1       1.0  0.75000  0.68639  0.31361  1.0000
  Cu  Cu2       1.0  0.25000  0.31361  0.68639  1.0000
  Cu  Cu3       1.0  0.75000  0.50833  0.49167  1.0000
  Cu  Cu4       1.0  0.25000  0.49167  0.50833  1.0000
  H   H1        1.0  0.09857  0.45186  0.27902  1.0000
  H   H2        1.0  0.40144  0.72098  0.54814  1.0000
  H   H3        1.0  0.90144  0.54814  0.72098  1.0000
  H   H4        1.0  0.59856  0.27902  0.45186  1.0000
  H   H5        1.0  0.95218  0.74823  0.04800  1.0000
  H   H6        1.0  0.54782  0.95200  0.25177  1.0000
  H   H7        1.0  0.04783  0.25177  0.95200  1.0000
  H   H8        1.0  0.45217  0.04800  0.74823  1.0000
  H   H9        1.0  0.25642  0.57395  0.91690  1.0000
  H   H10       1.0  0.24358  0.08310  0.42606  1.0000
  H   H11       1.0  0.74358  0.42605  0.08310  1.0000
  H   H12       1.0  0.75642  0.91690  0.57395  1.0000
  H   H13       1.0  0.39470  0.32107  0.24203  1.0000
  H   H14       1.0  0.10530  0.75797  0.67893  1.0000
  H   H15       1.0  0.60531  0.67893  0.75797  1.0000
  H   H16       1.0  0.89469  0.24203  0.32107  1.0000
  H   H17       1.0  0.62389  0.12361  0.18914  1.0000
  H   H18       1.0  0.87610  0.81086  0.87639  1.0000
  H   H19       1.0  0.37611  0.87639  0.81086  1.0000
  H   H20       1.0  0.12389  0.18914  0.12361  1.0000
  H   H21       1.0  0.58526  0.19648  0.82425  1.0000
  H   H22       1.0  0.91475  0.17575  0.80352  1.0000
  H   H23       1.0  0.41474  0.80352  0.17575  1.0000
  H   H24       1.0  0.08526  0.82425  0.19648  1.0000
  H   H25       1.0  0.36361  0.39105  0.87379  1.0000
  H   H26       1.0  0.13640  0.12620  0.60895  1.0000
  H   H27       1.0  0.63640  0.60895  0.12621  1.0000
  H   H28       1.0  0.86360  0.87379  0.39105  1.0000
  C   C1        1.0  0.10035  0.50971  0.19933  1.0000
  C   C2        1.0  0.39965  0.80066  0.49029  1.0000
  C   C3        1.0  0.89965  0.49029  0.80066  1.0000
  C   C4        1.0  0.60034  0.19933  0.50971  1.0000
  C   C5        1.0  0.02816  0.65990  0.07514  1.0000
  C   C6        1.0  0.47184  0.92486  0.34010  1.0000
  C   C7        1.0  0.97185  0.34010  0.92486  1.0000
  C   C8        1.0  0.52815  0.07514  0.65990  1.0000
  C   C9        1.0  0.17764  0.57484  0.01010  1.0000
  C   C10       1.0  0.32236  0.98990  0.42516  1.0000
  C   C11       1.0  0.82236  0.42516  0.98990  1.0000
  C   C12       1.0  0.67763  0.01010  0.57484  1.0000
  C   C13       1.0  0.36205  0.36875  0.06145  1.0000
  C   C14       1.0  0.13795  0.93855  0.63125  1.0000
  C   C15       1.0  0.63795  0.63125  0.93856  1.0000
  C   C16       1.0  0.86204  0.06145  0.36875  1.0000
  C   C17       1.0  0.43578  0.29313  0.15066  1.0000
  C   C18       1.0  0.06422  0.84934  0.70687  1.0000
  C   C19       1.0  0.56423  0.70687  0.84934  1.0000
  C   C20       1.0  0.93577  0.15066  0.29313  1.0000
  C   C21       1.0  0.56427  0.18242  0.12090  1.0000
  C   C22       1.0  0.93573  0.87910  0.81758  1.0000
  C   C23       1.0  0.43574  0.81758  0.87910  1.0000
  C   C24       1.0  0.06427  0.12090  0.18242  1.0000
  C   C25       1.0  0.62315  0.14544  0.00318  1.0000
  C   C26       1.0  0.87685  0.99682  0.85455  1.0000
  C   C27       1.0  0.37685  0.85455  0.99682  1.0000
  C   C28       1.0  0.12315  0.00318  0.14545  1.0000
  C   C29       1.0  0.54934  0.22329  0.91546  1.0000
  C   C30       1.0  0.95067  0.08454  0.77671  1.0000
  C   C31       1.0  0.45066  0.77671  0.08455  1.0000
  C   C32       1.0  0.04933  0.91546  0.22329  1.0000
  C   C33       1.0  0.42066  0.33393  0.94384  1.0000
  C   C34       1.0  0.07935  0.05616  0.66607  1.0000
  C   C35       1.0  0.57934  0.66607  0.05616  1.0000
  C   C36       1.0  0.92065  0.94384  0.33393  1.0000
  C   C37       1.0  0.75000  0.02327  0.97673  1.0000
  C   C38       1.0  0.25000  0.97673  0.02327  1.0000
  Br  Br1       1.0  0.56713  0.48797  0.34180  1.0000
  Br  Br2       1.0  0.93287  0.65820  0.51203  1.0000
  Br  Br3       1.0  0.43288  0.51203  0.65820  1.0000
  Br  Br4       1.0  0.06712  0.34180  0.48797  1.0000
  N   N1        1.0  0.97954  0.61762  0.19278  1.0000
  N   N2        1.0  0.52046  0.80722  0.38238  1.0000
  N   N3        1.0  0.02046  0.38238  0.80722  1.0000
  N   N4        1.0  0.47953  0.19278  0.61762  1.0000
  N   N5        1.0  0.22350  0.47983  0.08973  1.0000
  N   N6        1.0  0.27650  0.91027  0.52017  1.0000
  N   N7        1.0  0.77650  0.52017  0.91027  1.0000
  N   N8        1.0  0.72349  0.08973  0.47983  1.0000
  O   O1        1.0  0.75000  0.94336  0.05664  1.0000
  O   O2        1.0  0.25000  0.05664  0.94336  1.0000
