data_image0
_chemical_formula_structural       Hg2H20C24I4N8
_chemical_formula_sum              "Hg2 H20 C24 I4 N8"
_cell_length_a       6.85296
_cell_length_b       7.85033
_cell_length_c       15.0308
_cell_angle_alpha    97.0443
_cell_angle_beta     90.0014
_cell_angle_gamma    89.9996

_space_group_name_H-M_alt    "P 1"
_space_group_IT_number       1

loop_
  _space_group_symop_operation_xyz
  'x, y, z'

loop_
  _atom_site_type_symbol
  _atom_site_label
  _atom_site_symmetry_multiplicity
  _atom_site_fract_x
  _atom_site_fract_y
  _atom_site_fract_z
  _atom_site_occupancy
  Hg  Hg1       1.0  0.50385  0.24998  0.75002  1.0000
  Hg  Hg2       1.0  0.49614  0.75003  0.24999  1.0000
  H   H1        1.0  0.28750  0.38485  0.94263  1.0000
  H   H2        1.0  0.28752  0.11516  0.55742  1.0000
  H   H3        1.0  0.71248  0.61518  0.05738  1.0000
  H   H4        1.0  0.71249  0.88484  0.44262  1.0000
  H   H5        1.0  0.98625  0.35319  0.03308  1.0000
  H   H6        1.0  0.98631  0.14686  0.46695  1.0000
  H   H7        1.0  0.01371  0.64682  0.96691  1.0000
  H   H8        1.0  0.01374  0.85315  0.53308  1.0000
  H   H9        1.0  0.82465  0.92277  0.83942  1.0000
  H   H10       1.0  0.82463  0.57725  0.66060  1.0000
  H   H11       1.0  0.17536  0.07720  0.16058  1.0000
  H   H12       1.0  0.17533  0.42278  0.33939  1.0000
  H   H13       1.0  0.13477  0.97203  0.75701  1.0000
  H   H14       1.0  0.13475  0.52799  0.74303  1.0000
  H   H15       1.0  0.86527  0.02797  0.24301  1.0000
  H   H16       1.0  0.86523  0.47207  0.25697  1.0000
  H   H17       1.0  0.67687  0.21109  0.05446  1.0000
  H   H18       1.0  0.67694  0.28894  0.44553  1.0000
  H   H19       1.0  0.32311  0.78892  0.94552  1.0000
  H   H20       1.0  0.32311  0.71105  0.55446  1.0000
  C   C1        1.0  0.18054  0.28454  0.92191  1.0000
  C   C2        1.0  0.18054  0.21546  0.57812  1.0000
  C   C3        1.0  0.81944  0.71546  0.07810  1.0000
  C   C4        1.0  0.81945  0.78453  0.42189  1.0000
  C   C5        1.0  0.01243  0.26680  0.97172  1.0000
  C   C6        1.0  0.01249  0.23320  0.52830  1.0000
  C   C7        1.0  0.98753  0.73320  0.02828  1.0000
  C   C8        1.0  0.98756  0.76678  0.47171  1.0000
  C   C9        1.0  0.87935  0.13616  0.94256  1.0000
  C   C10       1.0  0.87940  0.36380  0.55744  1.0000
  C   C11       1.0  0.12063  0.86384  0.05745  1.0000
  C   C12       1.0  0.12065  0.63614  0.44254  1.0000
  C   C13       1.0  0.92396  0.02621  0.86416  1.0000
  C   C14       1.0  0.92395  0.47379  0.63584  1.0000
  C   C15       1.0  0.07605  0.97380  0.13584  1.0000
  C   C16       1.0  0.07602  0.52619  0.36413  1.0000
  C   C17       1.0  0.09522  0.05360  0.81856  1.0000
  C   C18       1.0  0.09524  0.44640  0.68146  1.0000
  C   C19       1.0  0.90479  0.94641  0.18144  1.0000
  C   C20       1.0  0.90477  0.55360  0.31853  1.0000
  C   C21       1.0  0.70288  0.11864  0.99453  1.0000
  C   C22       1.0  0.70293  0.38139  0.50548  1.0000
  C   C23       1.0  0.29709  0.88138  0.00547  1.0000
  C   C24       1.0  0.29710  0.61862  0.49452  1.0000
  I   I1        1.0  0.60333  0.55063  0.84462  1.0000
  I   I2        1.0  0.60333  0.94935  0.65538  1.0000
  I   I3        1.0  0.39666  0.44938  0.15537  1.0000
  I   I4        1.0  0.39665  0.05066  0.34462  1.0000
  N   N1        1.0  0.22070  0.18086  0.84644  1.0000
  N   N2        1.0  0.22074  0.31912  0.65358  1.0000
  N   N3        1.0  0.77929  0.81914  0.15356  1.0000
  N   N4        1.0  0.77930  0.68085  0.34642  1.0000
  N   N5        1.0  0.57858  0.99744  0.97082  1.0000
  N   N6        1.0  0.57856  0.50256  0.52918  1.0000
  N   N7        1.0  0.42142  0.00256  0.02918  1.0000
  N   N8        1.0  0.42141  0.49743  0.47081  1.0000
