data_image0
_chemical_formula_structural       Cu2H16C18Br2N2O6
_chemical_formula_sum              "Cu2 H16 C18 Br2 N2 O6"
_cell_length_a       5.15201
_cell_length_b       9.13327
_cell_length_c       11.114
_cell_angle_alpha    71.5734
_cell_angle_beta     85.0592
_cell_angle_gamma    77.7953

_space_group_name_H-M_alt    "P 1"
_space_group_IT_number       1

loop_
  _space_group_symop_operation_xyz
  'x, y, z'

loop_
  _atom_site_type_symbol
  _atom_site_label
  _atom_site_symmetry_multiplicity
  _atom_site_fract_x
  _atom_site_fract_y
  _atom_site_fract_z
  _atom_site_occupancy
  Cu  Cu1       1.0  0.74819  0.53053  0.58249  1.0000
  Cu  Cu2       1.0  0.25183  0.46946  0.41752  1.0000
  H   H1        1.0  0.46791  0.45014  0.92411  1.0000
  H   H2        1.0  0.53212  0.54986  0.07588  1.0000
  H   H3        1.0  0.97785  0.86981  0.48661  1.0000
  H   H4        1.0  0.02214  0.13019  0.51339  1.0000
  H   H5        1.0  0.63548  0.95232  0.63530  1.0000
  H   H6        1.0  0.36452  0.04769  0.36469  1.0000
  H   H7        1.0  0.09466  0.62963  0.95125  1.0000
  H   H8        1.0  0.90532  0.37039  0.04875  1.0000
  H   H9        1.0  0.81782  0.18058  0.72616  1.0000
  H   H10       1.0  0.18221  0.81942  0.27384  1.0000
  H   H11       1.0  0.04858  0.10010  0.85387  1.0000
  H   H12       1.0  0.95142  0.89990  0.14613  1.0000
  H   H13       1.0  0.29063  0.16244  0.65002  1.0000
  H   H14       1.0  0.70937  0.83758  0.34998  1.0000
  H   H15       1.0  0.34407  0.28159  0.74159  1.0000
  H   H16       1.0  0.65594  0.71841  0.25840  1.0000
  C   C1        1.0  0.47658  0.50617  0.82144  1.0000
  C   C2        1.0  0.52342  0.49383  0.17855  1.0000
  C   C3        1.0  0.26612  0.63358  0.76513  1.0000
  C   C4        1.0  0.73389  0.36641  0.23486  1.0000
  C   C5        1.0  0.24142  0.70731  0.63049  1.0000
  C   C6        1.0  0.75858  0.29267  0.36952  1.0000
  C   C7        1.0  0.00303  0.81781  0.58839  1.0000
  C   C8        1.0  0.99694  0.18218  0.41160  1.0000
  C   C9        1.0  0.81225  0.86407  0.67165  1.0000
  C   C10       1.0  0.18774  0.13594  0.32834  1.0000
  C   C11       1.0  0.84943  0.79706  0.80283  1.0000
  C   C12       1.0  0.15058  0.20294  0.19717  1.0000
  C   C13       1.0  0.06926  0.68224  0.84922  1.0000
  C   C14       1.0  0.93072  0.31776  0.15079  1.0000
  C   C15       1.0  0.96977  0.20567  0.77651  1.0000
  C   C16       1.0  0.03023  0.79433  0.22349  1.0000
  C   C17       1.0  0.19452  0.26031  0.68716  1.0000
  C   C18       1.0  0.80548  0.73969  0.31284  1.0000
  Br  Br1       1.0  0.59384  0.86674  0.91802  1.0000
  Br  Br2       1.0  0.40617  0.13325  0.08199  1.0000
  N   N1        1.0  0.67138  0.44428  0.75916  1.0000
  N   N2        1.0  0.32861  0.55570  0.24086  1.0000
  O   O1        1.0  0.84494  0.31823  0.84080  1.0000
  O   O2        1.0  0.15509  0.68178  0.15921  1.0000
  O   O3        1.0  0.42101  0.68034  0.54523  1.0000
  O   O4        1.0  0.57898  0.31965  0.45477  1.0000
  O   O5        1.0  0.09862  0.39524  0.58683  1.0000
  O   O6        1.0  0.90137  0.60476  0.41317  1.0000
