data_image0
_chemical_formula_structural       K4Cd8B4H24C32O52
_chemical_formula_sum              "K4 Cd8 B4 H24 C32 O52"
_cell_length_a       7.93229
_cell_length_b       11.9673
_cell_length_c       14.7852
_cell_angle_alpha    102.759
_cell_angle_beta     90
_cell_angle_gamma    90.0003

_space_group_name_H-M_alt    "P 1"
_space_group_IT_number       1

loop_
  _space_group_symop_operation_xyz
  'x, y, z'

loop_
  _atom_site_type_symbol
  _atom_site_label
  _atom_site_symmetry_multiplicity
  _atom_site_fract_x
  _atom_site_fract_y
  _atom_site_fract_z
  _atom_site_occupancy
  K   K1        1.0  0.73519  0.98019  0.03701  1.0000
  K   K2        1.0  0.26481  0.48019  0.03701  1.0000
  K   K3        1.0  0.25387  0.83274  0.47120  1.0000
  K   K4        1.0  0.74610  0.33272  0.47121  1.0000
  Cd  Cd1       1.0  0.29670  0.52978  0.61393  1.0000
  Cd  Cd2       1.0  0.70330  0.02978  0.61393  1.0000
  Cd  Cd3       1.0  0.79110  0.61445  0.90187  1.0000
  Cd  Cd4       1.0  0.20891  0.11445  0.90187  1.0000
  Cd  Cd5       1.0  0.70626  0.61470  0.37766  1.0000
  Cd  Cd6       1.0  0.29374  0.11471  0.37766  1.0000
  Cd  Cd7       1.0  0.15966  0.81434  0.12748  1.0000
  Cd  Cd8       1.0  0.84034  0.31434  0.12748  1.0000
  B   B1        1.0  0.49884  0.72864  0.02029  1.0000
  B   B2        1.0  0.50116  0.22864  0.02029  1.0000
  B   B3        1.0  0.01899  0.58872  0.49157  1.0000
  B   B4        1.0  0.98101  0.08872  0.49158  1.0000
  H   H1        1.0  0.20598  0.70208  0.86378  1.0000
  H   H2        1.0  0.79402  0.20208  0.86379  1.0000
  H   H3        1.0  0.47899  0.84958  0.84636  1.0000
  H   H4        1.0  0.52102  0.34958  0.84636  1.0000
  H   H5        1.0  0.67881  0.82371  0.21660  1.0000
  H   H6        1.0  0.32119  0.32371  0.21660  1.0000
  H   H7        1.0  0.66190  0.58235  0.15984  1.0000
  H   H8        1.0  0.33810  0.08235  0.15984  1.0000
  H   H9        1.0  0.21662  0.60074  0.30361  1.0000
  H   H10       1.0  0.78339  0.10074  0.30360  1.0000
  H   H11       1.0  0.19904  0.38002  0.34636  1.0000
  H   H12       1.0  0.80095  0.88002  0.34636  1.0000
  H   H13       1.0  0.71607  0.63550  0.64318  1.0000
  H   H14       1.0  0.28393  0.13550  0.64318  1.0000
  H   H15       1.0  0.98375  0.79868  0.66758  1.0000
  H   H16       1.0  0.01625  0.29867  0.66758  1.0000
  H   H17       1.0  0.84748  0.98639  0.81471  1.0000
  H   H18       1.0  0.15253  0.48639  0.81472  1.0000
  H   H19       1.0  0.83891  0.86283  0.83014  1.0000
  H   H20       1.0  0.16109  0.36283  0.83015  1.0000
  H   H21       1.0  0.34880  0.95754  0.69836  1.0000
  H   H22       1.0  0.65119  0.45754  0.69836  1.0000
  H   H23       1.0  0.34235  0.82494  0.67857  1.0000
  H   H24       1.0  0.65765  0.32493  0.67857  1.0000
  C   C1        1.0  0.20714  0.87679  0.93723  1.0000
  C   C2        1.0  0.79286  0.37679  0.93723  1.0000
  C   C3        1.0  0.29012  0.75809  0.91269  1.0000
  C   C4        1.0  0.70989  0.25809  0.91269  1.0000
  C   C5        1.0  0.46699  0.76842  0.86883  1.0000
  C   C6        1.0  0.53301  0.26842  0.86883  1.0000
  C   C7        1.0  0.49051  0.67142  0.78324  1.0000
  C   C8        1.0  0.50948  0.17141  0.78324  1.0000
  C   C9        1.0  0.45587  0.73930  0.24617  1.0000
  C   C10       1.0  0.54412  0.23930  0.24617  1.0000
  C   C11       1.0  0.58518  0.76530  0.17722  1.0000
  C   C12       1.0  0.41482  0.26530  0.17722  1.0000
  C   C13       1.0  0.67055  0.65243  0.12292  1.0000
  C   C14       1.0  0.32945  0.15243  0.12292  1.0000
  C   C15       1.0  0.85725  0.67964  0.11339  1.0000
  C   C16       1.0  0.14275  0.17964  0.11339  1.0000
  C   C17       1.0  0.00773  0.49117  0.25916  1.0000
  C   C18       1.0  0.99227  0.99117  0.25916  1.0000
  C   C19       1.0  0.12141  0.55573  0.33604  1.0000
  C   C20       1.0  0.87859  0.05573  0.33604  1.0000
  C   C21       1.0  0.20356  0.46820  0.38805  1.0000
  C   C22       1.0  0.79644  0.96819  0.38805  1.0000
  C   C23       1.0  0.38963  0.50048  0.40695  1.0000
  C   C24       1.0  0.61037  0.00049  0.40695  1.0000
  C   C25       1.0  0.71819  0.77360  0.57323  1.0000
  C   C26       1.0  0.28181  0.27360  0.57323  1.0000
  C   C27       1.0  0.80198  0.66835  0.59695  1.0000
  C   C28       1.0  0.19802  0.16835  0.59695  1.0000
  C   C29       1.0  0.97561  0.70520  0.64425  1.0000
  C   C30       1.0  0.02439  0.20520  0.64425  1.0000
  C   C31       1.0  0.99457  0.65402  0.72972  1.0000
  C   C32       1.0  0.00543  0.15401  0.72972  1.0000
  O   O1        1.0  0.20147  0.92636  0.86975  1.0000
  O   O2        1.0  0.79854  0.42635  0.86974  1.0000
  O   O3        1.0  0.15328  0.91904  0.01830  1.0000
  O   O4        1.0  0.84673  0.41904  0.01830  1.0000
  O   O5        1.0  0.40812  0.68382  0.71195  1.0000
  O   O6        1.0  0.59188  0.18381  0.71195  1.0000
  O   O7        1.0  0.58142  0.58563  0.78685  1.0000
  O   O8        1.0  0.41859  0.08563  0.78686  1.0000
  O   O9        1.0  0.29919  0.73693  0.22808  1.0000
  O   O10       1.0  0.70081  0.23693  0.22808  1.0000
  O   O11       1.0  0.51083  0.71919  0.32150  1.0000
  O   O12       1.0  0.48916  0.21920  0.32150  1.0000
  O   O13       1.0  0.94470  0.69588  0.18592  1.0000
  O   O14       1.0  0.05530  0.19588  0.18592  1.0000
  O   O15       1.0  0.91646  0.69658  0.03614  1.0000
  O   O16       1.0  0.08354  0.19658  0.03615  1.0000
  O   O17       1.0  0.51474  0.81534  0.10728  1.0000
  O   O18       1.0  0.48526  0.31534  0.10728  1.0000
  O   O19       1.0  0.57896  0.62352  0.03804  1.0000
  O   O20       1.0  0.42104  0.12352  0.03804  1.0000
  O   O21       1.0  0.32077  0.70883  0.99045  1.0000
  O   O22       1.0  0.67923  0.20883  0.99045  1.0000
  O   O23       1.0  0.58305  0.76576  0.94154  1.0000
  O   O24       1.0  0.41696  0.26576  0.94154  1.0000
  O   O25       1.0  0.07848  0.43741  0.18592  1.0000
  O   O26       1.0  0.92152  0.93741  0.18592  1.0000
  O   O27       1.0  0.84811  0.48468  0.27170  1.0000
  O   O28       1.0  0.15189  0.98468  0.27170  1.0000
  O   O29       1.0  0.43985  0.54873  0.48833  1.0000
  O   O30       1.0  0.56015  0.04874  0.48833  1.0000
  O   O31       1.0  0.48651  0.48333  0.33727  1.0000
  O   O32       1.0  0.51348  0.98333  0.33727  1.0000
  O   O33       1.0  0.70402  0.85754  0.64244  1.0000
  O   O34       1.0  0.29597  0.35754  0.64244  1.0000
  O   O35       1.0  0.67305  0.77411  0.49131  1.0000
  O   O36       1.0  0.32695  0.27411  0.49131  1.0000
  O   O37       1.0  0.08194  0.56488  0.72634  1.0000
  O   O38       1.0  0.91806  0.06488  0.72634  1.0000
  O   O39       1.0  0.91193  0.70652  0.80071  1.0000
  O   O40       1.0  0.08807  0.20652  0.80072  1.0000
  O   O41       1.0  0.84028  0.57935  0.51818  1.0000
  O   O42       1.0  0.15972  0.07935  0.51818  1.0000
  O   O43       1.0  0.09684  0.66573  0.57368  1.0000
  O   O44       1.0  0.90316  0.16573  0.57368  1.0000
  O   O45       1.0  0.10385  0.47664  0.46923  1.0000
  O   O46       1.0  0.89615  0.97664  0.46923  1.0000
  O   O47       1.0  0.03386  0.63495  0.40654  1.0000
  O   O48       1.0  0.96614  0.13495  0.40655  1.0000
  O   O49       1.0  0.80433  0.94176  0.85814  1.0000
  O   O50       1.0  0.19568  0.44176  0.85814  1.0000
  O   O51       1.0  0.31127  0.89029  0.65174  1.0000
  O   O52       1.0  0.68872  0.39029  0.65175  1.0000
