data_image0
_chemical_formula_structural       Li4H32C36O18
_chemical_formula_sum              "Li4 H32 C36 O18"
_cell_length_a       7.03602
_cell_length_b       10.3108
_cell_length_c       13.6207
_cell_angle_alpha    108.023
_cell_angle_beta     104.972
_cell_angle_gamma    89.9735

_space_group_name_H-M_alt    "P 1"
_space_group_IT_number       1

loop_
  _space_group_symop_operation_xyz
  'x, y, z'

loop_
  _atom_site_type_symbol
  _atom_site_label
  _atom_site_symmetry_multiplicity
  _atom_site_fract_x
  _atom_site_fract_y
  _atom_site_fract_z
  _atom_site_occupancy
  Li  Li1       1.0  0.95841  0.89475  0.04103  1.0000
  Li  Li2       1.0  0.91743  0.60530  0.95899  1.0000
  Li  Li3       1.0  0.04159  0.10525  0.95897  1.0000
  Li  Li4       1.0  0.08257  0.39470  0.04101  1.0000
  H   H1        1.0  0.60846  0.72066  0.93683  1.0000
  H   H2        1.0  0.67165  0.77916  0.06309  1.0000
  H   H3        1.0  0.39154  0.27934  0.06317  1.0000
  H   H4        1.0  0.32834  0.22084  0.93691  1.0000
  H   H5        1.0  0.21331  0.50914  0.24758  1.0000
  H   H6        1.0  0.96549  0.99080  0.75256  1.0000
  H   H7        1.0  0.78669  0.49086  0.75242  1.0000
  H   H8        1.0  0.03451  0.00920  0.24744  1.0000
  H   H9        1.0  0.43752  0.50273  0.41763  1.0000
  H   H10       1.0  0.01942  0.99734  0.58250  1.0000
  H   H11       1.0  0.56248  0.49727  0.58237  1.0000
  H   H12       1.0  0.98058  0.00266  0.41750  1.0000
  H   H13       1.0  0.66289  0.71134  0.54056  1.0000
  H   H14       1.0  0.12221  0.78884  0.45951  1.0000
  H   H15       1.0  0.33710  0.28866  0.45944  1.0000
  H   H16       1.0  0.87779  0.21116  0.54049  1.0000
  H   H17       1.0  0.66346  0.91931  0.48453  1.0000
  H   H18       1.0  0.17897  0.58075  0.51536  1.0000
  H   H19       1.0  0.33654  0.08069  0.51547  1.0000
  H   H20       1.0  0.82103  0.41924  0.48464  1.0000
  H   H21       1.0  0.55733  0.07202  0.13259  1.0000
  H   H22       1.0  0.42454  0.42796  0.86750  1.0000
  H   H23       1.0  0.44267  0.92798  0.86741  1.0000
  H   H24       1.0  0.57546  0.57204  0.13250  1.0000
  H   H25       1.0  0.51980  0.16024  0.26087  1.0000
  H   H26       1.0  0.25878  0.33969  0.73924  1.0000
  H   H27       1.0  0.48020  0.83976  0.73913  1.0000
  H   H28       1.0  0.74122  0.66031  0.26076  1.0000
  H   H29       1.0  0.31703  0.06691  0.15402  1.0000
  H   H30       1.0  0.16280  0.43320  0.84606  1.0000
  H   H31       1.0  0.68297  0.93309  0.84598  1.0000
  H   H32       1.0  0.83720  0.56680  0.15394  1.0000
  C   C1        1.0  0.17805  0.71228  0.15968  1.0000
  C   C2        1.0  0.01826  0.78755  0.84029  1.0000
  C   C3        1.0  0.82195  0.28773  0.84032  1.0000
  C   C4        1.0  0.98173  0.21245  0.15971  1.0000
  C   C5        1.0  0.31232  0.71539  0.26659  1.0000
  C   C6        1.0  0.04561  0.78452  0.73339  1.0000
  C   C7        1.0  0.68768  0.28461  0.73341  1.0000
  C   C8        1.0  0.95439  0.21548  0.26661  1.0000
  C   C9        1.0  0.31305  0.59896  0.29934  1.0000
  C   C10       1.0  0.01348  0.90101  0.70074  1.0000
  C   C11       1.0  0.68695  0.40104  0.70066  1.0000
  C   C12       1.0  0.98652  0.09899  0.29926  1.0000
  C   C13       1.0  0.43818  0.59622  0.39629  1.0000
  C   C14       1.0  0.04161  0.90384  0.60380  1.0000
  C   C15       1.0  0.56182  0.40377  0.60371  1.0000
  C   C16       1.0  0.95839  0.09616  0.39620  1.0000
  C   C17       1.0  0.56394  0.71142  0.46432  1.0000
  C   C18       1.0  0.09947  0.78868  0.53574  1.0000
  C   C19       1.0  0.43605  0.28858  0.53568  1.0000
  C   C20       1.0  0.90053  0.21132  0.46426  1.0000
  C   C21       1.0  0.56545  0.82855  0.43376  1.0000
  C   C22       1.0  0.13165  0.67147  0.56620  1.0000
  C   C23       1.0  0.43455  0.17145  0.56624  1.0000
  C   C24       1.0  0.86835  0.32853  0.43380  1.0000
  C   C25       1.0  0.44261  0.82940  0.33589  1.0000
  C   C26       1.0  0.10669  0.67052  0.66404  1.0000
  C   C27       1.0  0.55738  0.17060  0.66411  1.0000
  C   C28       1.0  0.89331  0.32949  0.33596  1.0000
  C   C29       1.0  0.51128  0.94250  0.22064  1.0000
  C   C30       1.0  0.29045  0.55741  0.77936  1.0000
  C   C31       1.0  0.48872  0.05750  0.77936  1.0000
  C   C32       1.0  0.70955  0.44259  0.22064  1.0000
  C   C33       1.0  0.47631  0.06842  0.19025  1.0000
  C   C34       1.0  0.28585  0.43157  0.80981  1.0000
  C   C35       1.0  0.52369  0.93158  0.80975  1.0000
  C   C36       1.0  0.71414  0.56844  0.19019  1.0000
  O   O1        1.0  0.12995  0.82388  0.14400  1.0000
  O   O2        1.0  0.98570  0.67591  0.85585  1.0000
  O   O3        1.0  0.87005  0.17612  0.85600  1.0000
  O   O4        1.0  0.01429  0.32409  0.14415  1.0000
  O   O5        1.0  0.11677  0.59463  0.08961  1.0000
  O   O6        1.0  0.02713  0.90518  0.91043  1.0000
  O   O7        1.0  0.88323  0.40538  0.91039  1.0000
  O   O8        1.0  0.97287  0.09482  0.08957  1.0000
  O   O9        1.0  0.45358  0.95039  0.31063  1.0000
  O   O10       1.0  0.14298  0.54949  0.68925  1.0000
  O   O11       1.0  0.54642  0.04961  0.68937  1.0000
  O   O12       1.0  0.85702  0.45051  0.31075  1.0000
  O   O13       1.0  0.58375  0.84131  0.17449  1.0000
  O   O14       1.0  0.40898  0.65859  0.82556  1.0000
  O   O15       1.0  0.41625  0.15868  0.82551  1.0000
  O   O16       1.0  0.59103  0.34141  0.17444  1.0000
  O   O17       1.0  0.72580  0.74992  0.99994  1.0000
  O   O18       1.0  0.27420  0.25008  0.00006  1.0000
