data_image0
_chemical_formula_structural       Cd2H16C22S2N6Cl2
_chemical_formula_sum              "Cd2 H16 C22 S2 N6 Cl2"
_cell_length_a       7.76907
_cell_length_b       9.30619
_cell_length_c       9.50063
_cell_angle_alpha    102.952
_cell_angle_beta     107.719
_cell_angle_gamma    105.291

_space_group_name_H-M_alt    "P 1"
_space_group_IT_number       1

loop_
  _space_group_symop_operation_xyz
  'x, y, z'

loop_
  _atom_site_type_symbol
  _atom_site_label
  _atom_site_symmetry_multiplicity
  _atom_site_fract_x
  _atom_site_fract_y
  _atom_site_fract_z
  _atom_site_occupancy
  Cd  Cd1       1.0  0.98212  0.70837  0.07998  1.0000
  Cd  Cd2       1.0  0.01788  0.29164  0.92001  1.0000
  H   H1        1.0  0.31203  0.06393  0.28114  1.0000
  H   H2        1.0  0.68798  0.93608  0.71887  1.0000
  H   H3        1.0  0.49581  0.24815  0.56005  1.0000
  H   H4        1.0  0.50419  0.75184  0.43996  1.0000
  H   H5        1.0  0.42521  0.15981  0.77272  1.0000
  H   H6        1.0  0.57478  0.84018  0.22729  1.0000
  H   H7        1.0  0.17135  0.89958  0.70213  1.0000
  H   H8        1.0  0.82865  0.10041  0.29787  1.0000
  H   H9        1.0  0.61313  0.43138  0.06989  1.0000
  H   H10       1.0  0.38687  0.56862  0.93010  1.0000
  H   H11       1.0  0.48814  0.31745  0.24847  1.0000
  H   H12       1.0  0.51186  0.68255  0.75152  1.0000
  H   H13       1.0  0.68059  0.45179  0.54404  1.0000
  H   H14       1.0  0.31940  0.54821  0.45595  1.0000
  H   H15       1.0  0.96644  0.69092  0.63774  1.0000
  H   H16       1.0  0.03355  0.30908  0.36225  1.0000
  C   C1        1.0  0.10342  0.84470  0.45301  1.0000
  C   C2        1.0  0.89658  0.15529  0.54700  1.0000
  C   C3        1.0  0.28344  0.03305  0.37809  1.0000
  C   C4        1.0  0.71657  0.96695  0.62193  1.0000
  C   C5        1.0  0.38555  0.13431  0.53195  1.0000
  C   C6        1.0  0.61445  0.86568  0.46806  1.0000
  C   C7        1.0  0.34600  0.08525  0.65053  1.0000
  C   C8        1.0  0.65400  0.91474  0.34947  1.0000
  C   C9        1.0  0.20387  0.93910  0.61072  1.0000
  C   C10       1.0  0.79613  0.06089  0.38928  1.0000
  C   C11       1.0  0.94077  0.69322  0.40365  1.0000
  C   C12       1.0  0.05923  0.30677  0.59634  1.0000
  C   C13       1.0  0.68580  0.48641  0.19679  1.0000
  C   C14       1.0  0.31420  0.51360  0.80320  1.0000
  C   C15       1.0  0.61879  0.42228  0.29772  1.0000
  C   C16       1.0  0.38121  0.57772  0.70226  1.0000
  C   C17       1.0  0.72268  0.49665  0.45824  1.0000
  C   C18       1.0  0.27731  0.50334  0.54175  1.0000
  C   C19       1.0  0.88523  0.63315  0.51209  1.0000
  C   C20       1.0  0.11476  0.36685  0.48790  1.0000
  C   C21       1.0  0.21873  0.01837  0.98708  1.0000
  C   C22       1.0  0.78128  0.98165  0.01292  1.0000
  S   S1        1.0  0.24705  0.84890  0.97582  1.0000
  S   S2        1.0  0.75296  0.15112  0.02419  1.0000
  N   N1        1.0  0.14674  0.89215  0.33962  1.0000
  N   N2        1.0  0.85327  0.10786  0.66039  1.0000
  N   N3        1.0  0.84191  0.61757  0.24817  1.0000
  N   N4        1.0  0.15809  0.38243  0.75183  1.0000
  N   N5        1.0  0.20420  0.14322  0.99554  1.0000
  N   N6        1.0  0.79581  0.85678  0.00447  1.0000
  Cl  Cl1       1.0  0.22587  0.54443  0.15885  1.0000
  Cl  Cl2       1.0  0.77414  0.45558  0.84115  1.0000
