data_image0
_chemical_formula_structural       Zn2H18C16N2O18
_chemical_formula_sum              "Zn2 H18 C16 N2 O18"
_cell_length_a       6.9874
_cell_length_b       7.24542
_cell_length_c       10.8256
_cell_angle_alpha    97.132
_cell_angle_beta     91.3661
_cell_angle_gamma    100.521

_space_group_name_H-M_alt    "P 1"
_space_group_IT_number       1

loop_
  _space_group_symop_operation_xyz
  'x, y, z'

loop_
  _atom_site_type_symbol
  _atom_site_label
  _atom_site_symmetry_multiplicity
  _atom_site_fract_x
  _atom_site_fract_y
  _atom_site_fract_z
  _atom_site_occupancy
  Zn  Zn1       1.0  0.26131  0.77963  0.48407  1.0000
  Zn  Zn2       1.0  0.73869  0.22037  0.51593  1.0000
  H   H1        1.0  0.27944  0.00160  0.86723  1.0000
  H   H2        1.0  0.72056  0.99840  0.13277  1.0000
  H   H3        1.0  0.18468  0.51014  0.09150  1.0000
  H   H4        1.0  0.81532  0.48986  0.90850  1.0000
  H   H5        1.0  0.28475  0.69407  0.91620  1.0000
  H   H6        1.0  0.71525  0.30593  0.08380  1.0000
  H   H7        1.0  0.86780  0.65466  0.46944  1.0000
  H   H8        1.0  0.13220  0.34535  0.53056  1.0000
  H   H9        1.0  0.90314  0.85583  0.55942  1.0000
  H   H10       1.0  0.09686  0.14417  0.44058  1.0000
  H   H11       1.0  0.03446  0.48750  0.33655  1.0000
  H   H12       1.0  0.96554  0.51250  0.66345  1.0000
  H   H13       1.0  0.25583  0.47569  0.31555  1.0000
  H   H14       1.0  0.74417  0.52431  0.68445  1.0000
  H   H15       1.0  0.19565  0.95770  0.27603  1.0000
  H   H16       1.0  0.80435  0.04230  0.72397  1.0000
  H   H17       1.0  0.34891  0.11307  0.35713  1.0000
  H   H18       1.0  0.65109  0.88693  0.64287  1.0000
  C   C1        1.0  0.38671  0.56881  0.68879  1.0000
  C   C2        1.0  0.61328  0.43119  0.31121  1.0000
  C   C3        1.0  0.33386  0.45030  0.79242  1.0000
  C   C4        1.0  0.66614  0.54970  0.20758  1.0000
  C   C5        1.0  0.33059  0.25410  0.77845  1.0000
  C   C6        1.0  0.66941  0.74590  0.22155  1.0000
  C   C7        1.0  0.28206  0.15307  0.87840  1.0000
  C   C8        1.0  0.71794  0.84694  0.12160  1.0000
  C   C9        1.0  0.22948  0.24724  0.98852  1.0000
  C   C10       1.0  0.77052  0.75276  0.01148  1.0000
  C   C11       1.0  0.22677  0.44131  0.00381  1.0000
  C   C12       1.0  0.77323  0.55869  0.99619  1.0000
  C   C13       1.0  0.28286  0.54224  0.90551  1.0000
  C   C14       1.0  0.71713  0.45776  0.09449  1.0000
  C   C15       1.0  0.37555  0.14873  0.65741  1.0000
  C   C16       1.0  0.62445  0.85127  0.34259  1.0000
  N   N1        1.0  0.16660  0.13825  0.08912  1.0000
  N   N2        1.0  0.83340  0.86175  0.91088  1.0000
  O   O1        1.0  0.24864  0.56952  0.60872  1.0000
  O   O2        1.0  0.75136  0.43048  0.39128  1.0000
  O   O3        1.0  0.55557  0.66726  0.69438  1.0000
  O   O4        1.0  0.44442  0.33274  0.30562  1.0000
  O   O5        1.0  0.46764  0.24580  0.57987  1.0000
  O   O6        1.0  0.53236  0.75420  0.42014  1.0000
  O   O7        1.0  0.31656  0.97101  0.64281  1.0000
  O   O8        1.0  0.68344  0.02899  0.35719  1.0000
  O   O9        1.0  0.22204  0.98378  0.09289  1.0000
  O   O10       1.0  0.77796  0.01622  0.90711  1.0000
  O   O11       1.0  0.05784  0.20095  0.16574  1.0000
  O   O12       1.0  0.94215  0.79905  0.83425  1.0000
  O   O13       1.0  0.96549  0.76669  0.50396  1.0000
  O   O14       1.0  0.03451  0.23331  0.49604  1.0000
  O   O15       1.0  0.16321  0.56462  0.32690  1.0000
  O   O16       1.0  0.83679  0.43539  0.67310  1.0000
  O   O17       1.0  0.24154  0.00300  0.36295  1.0000
  O   O18       1.0  0.75846  0.99700  0.63705  1.0000
