data_image0
_chemical_formula_structural       Mn4H40C40N32
_chemical_formula_sum              "Mn4 H40 C40 N32"
_cell_length_a       9.99141
_cell_length_b       11.9395
_cell_length_c       11.9348
_cell_angle_alpha    79.7931
_cell_angle_beta     65.122
_cell_angle_gamma    65.093

_space_group_name_H-M_alt    "P 1"
_space_group_IT_number       1

loop_
  _space_group_symop_operation_xyz
  'x, y, z'

loop_
  _atom_site_type_symbol
  _atom_site_label
  _atom_site_symmetry_multiplicity
  _atom_site_fract_x
  _atom_site_fract_y
  _atom_site_fract_z
  _atom_site_occupancy
  Mn  Mn1       1.0  0.00000  0.99999  1.00000  1.0000
  Mn  Mn2       1.0  0.50000  0.00000  0.50000  1.0000
  Mn  Mn3       1.0  0.00000  0.50000  0.50000  1.0000
  Mn  Mn4       1.0  1.00000  0.50000  1.00000  1.0000
  H   H1        1.0  0.37192  0.90282  0.84033  1.0000
  H   H2        1.0  0.77416  0.83990  0.59743  1.0000
  H   H3        1.0  0.11326  0.59763  0.66027  1.0000
  H   H4        1.0  0.21142  0.66006  0.90246  1.0000
  H   H5        1.0  0.62808  0.09718  0.15967  1.0000
  H   H6        1.0  0.22584  0.16010  0.40257  1.0000
  H   H7        1.0  0.88674  0.40237  0.33973  1.0000
  H   H8        1.0  0.78858  0.33994  0.09754  1.0000
  H   H9        1.0  0.62669  0.73033  0.83987  1.0000
  H   H10       1.0  0.85601  0.83916  0.76957  1.0000
  H   H11       1.0  0.19441  0.76988  0.66048  1.0000
  H   H12       1.0  0.46602  0.65992  0.72987  1.0000
  H   H13       1.0  0.37332  0.26966  0.16013  1.0000
  H   H14       1.0  0.14398  0.16084  0.23043  1.0000
  H   H15       1.0  0.80559  0.23012  0.33952  1.0000
  H   H16       1.0  0.53397  0.34008  0.27014  1.0000
  H   H17       1.0  0.61217  0.57376  0.00923  1.0000
  H   H18       1.0  0.68545  0.00939  0.92541  1.0000
  H   H19       1.0  0.19396  0.92585  0.49031  1.0000
  H   H20       1.0  0.62110  0.49046  0.57341  1.0000
  H   H21       1.0  0.38783  0.42624  0.99077  1.0000
  H   H22       1.0  0.31455  0.99061  0.07459  1.0000
  H   H23       1.0  0.80604  0.07416  0.50968  1.0000
  H   H24       1.0  0.37890  0.50954  0.42660  1.0000
  H   H25       1.0  0.34122  0.59346  0.17222  1.0000
  H   H26       1.0  0.43469  0.17311  0.90545  1.0000
  H   H27       1.0  0.10698  0.90586  0.32720  1.0000
  H   H28       1.0  0.51332  0.32800  0.59327  1.0000
  H   H29       1.0  0.65878  0.40654  0.82778  1.0000
  H   H30       1.0  0.56531  0.82689  0.09455  1.0000
  H   H31       1.0  0.89302  0.09414  0.67280  1.0000
  H   H32       1.0  0.48668  0.67200  0.40673  1.0000
  H   H33       1.0  0.09856  0.76927  0.15515  1.0000
  H   H34       1.0  0.36789  0.15595  0.73033  1.0000
  H   H35       1.0  0.02328  0.73055  0.34468  1.0000
  H   H36       1.0  0.25344  0.34554  0.76914  1.0000
  H   H37       1.0  0.90144  0.23073  0.84484  1.0000
  H   H38       1.0  0.63211  0.84405  0.26967  1.0000
  H   H39       1.0  0.97672  0.26945  0.65532  1.0000
  H   H40       1.0  0.74656  0.65446  0.23086  1.0000
  C   C1        1.0  0.37126  0.83235  0.91209  1.0000
  C   C2        1.0  0.70313  0.91198  0.66754  1.0000
  C   C3        1.0  0.11422  0.66784  0.58824  1.0000
  C   C4        1.0  0.28268  0.58828  0.83200  1.0000
  C   C5        1.0  0.62874  0.16765  0.08791  1.0000
  C   C6        1.0  0.29687  0.08802  0.33246  1.0000
  C   C7        1.0  0.88577  0.33216  0.41176  1.0000
  C   C8        1.0  0.71731  0.41172  0.16801  1.0000
  C   C9        1.0  0.51224  0.73693  0.91270  1.0000
  C   C10       1.0  0.74852  0.91248  0.76279  1.0000
  C   C11       1.0  0.16000  0.76321  0.58749  1.0000
  C   C12       1.0  0.42435  0.58737  0.73647  1.0000
  C   C13       1.0  0.48776  0.26307  0.08729  1.0000
  C   C14       1.0  0.25148  0.08752  0.23721  1.0000
  C   C15       1.0  0.84000  0.23679  0.41251  1.0000
  C   C16       1.0  0.57564  0.41263  0.26354  1.0000
  C   C17       1.0  0.50345  0.64935  0.00711  1.0000
  C   C18       1.0  0.65243  0.00729  0.84999  1.0000
  C   C19       1.0  0.15864  0.85048  0.49274  1.0000
  C   C20       1.0  0.51011  0.49293  0.64895  1.0000
  C   C21       1.0  0.49655  0.35065  0.99289  1.0000
  C   C22       1.0  0.34757  0.99271  0.15001  1.0000
  C   C23       1.0  0.84136  0.14952  0.50726  1.0000
  C   C24       1.0  0.48989  0.50707  0.35106  1.0000
  C   C25       1.0  0.35396  0.66015  0.09734  1.0000
  C   C26       1.0  0.51404  0.09790  0.83904  1.0000
  C   C27       1.0  0.11087  0.83953  0.40244  1.0000
  C   C28       1.0  0.45092  0.40298  0.65980  1.0000
  C   C29       1.0  0.64605  0.33984  0.90266  1.0000
  C   C30       1.0  0.48596  0.90210  0.16096  1.0000
  C   C31       1.0  0.88913  0.16047  0.59756  1.0000
  C   C32       1.0  0.54908  0.59702  0.34020  1.0000
  C   C33       1.0  0.21877  0.75814  0.08947  1.0000
  C   C34       1.0  0.47690  0.08997  0.74135  1.0000
  C   C35       1.0  0.06604  0.74171  0.41054  1.0000
  C   C36       1.0  0.30785  0.41110  0.75786  1.0000
  C   C37       1.0  0.78123  0.24186  0.91053  1.0000
  C   C38       1.0  0.52310  0.91003  0.25865  1.0000
  C   C39       1.0  0.93396  0.25829  0.58946  1.0000
  C   C40       1.0  0.69215  0.58889  0.24214  1.0000
  N   N1        1.0  0.87901  0.87103  0.04756  1.0000
  N   N2        1.0  0.25348  0.04574  0.62837  1.0000
  N   N3        1.0  0.80174  0.62812  0.45253  1.0000
  N   N4        1.0  0.92882  0.45077  0.87141  1.0000
  N   N5        1.0  0.12099  0.12897  0.95244  1.0000
  N   N6        1.0  0.74651  0.95426  0.37164  1.0000
  N   N7        1.0  0.19826  0.37188  0.54747  1.0000
  N   N8        1.0  0.07118  0.54923  0.12860  1.0000
  N   N9        1.0  0.88403  0.78523  0.00681  1.0000
  N   N10       1.0  0.17191  0.00645  0.71563  1.0000
  N   N11       1.0  0.68023  0.71497  0.49262  1.0000
  N   N12       1.0  0.89203  0.49223  0.78600  1.0000
  N   N13       1.0  0.11597  0.21477  0.99319  1.0000
  N   N14       1.0  0.82809  0.99355  0.28437  1.0000
  N   N15       1.0  0.31977  0.28503  0.50738  1.0000
  N   N16       1.0  0.10797  0.50777  0.21400  1.0000
  N   N17       1.0  0.91419  0.03101  0.19844  1.0000
  N   N18       1.0  0.44379  0.19948  0.46915  1.0000
  N   N19       1.0  0.14839  0.46820  0.29819  1.0000
  N   N20       1.0  0.11663  0.29934  0.03209  1.0000
  N   N21       1.0  0.08581  0.96899  0.80155  1.0000
  N   N22       1.0  0.55621  0.80052  0.53086  1.0000
  N   N23       1.0  0.85161  0.53180  0.70181  1.0000
  N   N24       1.0  0.88336  0.70066  0.96792  1.0000
  N   N25       1.0  0.22641  0.84321  0.99920  1.0000
  N   N26       1.0  0.56949  0.99945  0.65653  1.0000
  N   N27       1.0  0.06820  0.65682  0.50101  1.0000
  N   N28       1.0  0.22511  0.50137  0.84294  1.0000
  N   N29       1.0  0.77360  0.15679  0.00080  1.0000
  N   N30       1.0  0.43052  0.00055  0.34347  1.0000
  N   N31       1.0  0.93180  0.34319  0.49899  1.0000
  N   N32       1.0  0.77489  0.49863  0.15706  1.0000
