data_image0
_chemical_formula_structural       Zn4H40C44N12O20
_chemical_formula_sum              "Zn4 H40 C44 N12 O20"
_cell_length_a       10.2558
_cell_length_b       11.6439
_cell_length_c       11.6851
_cell_angle_alpha    65.0699
_cell_angle_beta     77.2565
_cell_angle_gamma    75.1265

_space_group_name_H-M_alt    "P 1"
_space_group_IT_number       1

loop_
  _space_group_symop_operation_xyz
  'x, y, z'

loop_
  _atom_site_type_symbol
  _atom_site_label
  _atom_site_symmetry_multiplicity
  _atom_site_fract_x
  _atom_site_fract_y
  _atom_site_fract_z
  _atom_site_occupancy
  Zn  Zn1       1.0  0.56398  0.51168  0.28632  1.0000
  Zn  Zn2       1.0  0.43603  0.48832  0.71368  1.0000
  Zn  Zn3       1.0  0.94879  0.19516  0.98903  1.0000
  Zn  Zn4       1.0  0.05122  0.80484  0.01097  1.0000
  H   H1        1.0  0.76907  0.67175  0.04066  1.0000
  H   H2        1.0  0.23093  0.32825  0.95934  1.0000
  H   H3        1.0  0.45012  0.72247  0.83565  1.0000
  H   H4        1.0  0.54989  0.27753  0.16435  1.0000
  H   H5        1.0  0.78876  0.82941  0.80708  1.0000
  H   H6        1.0  0.21124  0.17059  0.19292  1.0000
  H   H7        1.0  0.64611  0.88022  0.72269  1.0000
  H   H8        1.0  0.35389  0.11978  0.27731  1.0000
  H   H9        1.0  0.70167  0.68538  0.67457  1.0000
  H   H10       1.0  0.29833  0.31462  0.32543  1.0000
  H   H11       1.0  0.84538  0.76257  0.62240  1.0000
  H   H12       1.0  0.15462  0.23743  0.37760  1.0000
  H   H13       1.0  0.72369  0.45345  0.83945  1.0000
  H   H14       1.0  0.27632  0.54655  0.16055  1.0000
  H   H15       1.0  0.05111  0.64264  0.78123  1.0000
  H   H16       1.0  0.94889  0.35736  0.21877  1.0000
  H   H17       1.0  0.36357  0.12284  0.63070  1.0000
  H   H18       1.0  0.63642  0.87716  0.36930  1.0000
  H   H19       1.0  0.66525  0.10410  0.31569  1.0000
  H   H20       1.0  0.33475  0.89590  0.68431  1.0000
  H   H21       1.0  0.87490  0.33896  0.51076  1.0000
  H   H22       1.0  0.12510  0.66105  0.48923  1.0000
  H   H23       1.0  0.93626  0.73081  0.35927  1.0000
  H   H24       1.0  0.06374  0.26919  0.64073  1.0000
  H   H25       1.0  0.81708  0.19356  0.43723  1.0000
  H   H26       1.0  0.18292  0.80644  0.56277  1.0000
  H   H27       1.0  0.13705  0.91857  0.33560  1.0000
  H   H28       1.0  0.86295  0.08143  0.66440  1.0000
  H   H29       1.0  0.62831  0.98141  0.16504  1.0000
  H   H30       1.0  0.37169  0.01860  0.83495  1.0000
  H   H31       1.0  0.56399  0.13358  0.77148  1.0000
  H   H32       1.0  0.43601  0.86642  0.22852  1.0000
  H   H33       1.0  0.15953  0.20841  0.80803  1.0000
  H   H34       1.0  0.84047  0.79160  0.19196  1.0000
  H   H35       1.0  0.14623  0.05737  0.89896  1.0000
  H   H36       1.0  0.85377  0.94263  0.10104  1.0000
  H   H37       1.0  0.33843  0.67246  0.28475  1.0000
  H   H38       1.0  0.66157  0.32754  0.71525  1.0000
  H   H39       1.0  0.40396  0.63039  0.41221  1.0000
  H   H40       1.0  0.59604  0.36961  0.58779  1.0000
  C   C1        1.0  0.67272  0.67014  0.01719  1.0000
  C   C2        1.0  0.32728  0.32986  0.98281  1.0000
  C   C3        1.0  0.50715  0.69574  0.91401  1.0000
  C   C4        1.0  0.49286  0.30426  0.08599  1.0000
  C   C5        1.0  0.71296  0.79559  0.78159  1.0000
  C   C6        1.0  0.28704  0.20442  0.21841  1.0000
  C   C7        1.0  0.77964  0.71028  0.70641  1.0000
  C   C8        1.0  0.22036  0.28972  0.29359  1.0000
  C   C9        1.0  0.82175  0.47264  0.84033  1.0000
  C   C10       1.0  0.17825  0.52736  0.15967  1.0000
  C   C11       1.0  0.98940  0.56894  0.81284  1.0000
  C   C12       1.0  0.01060  0.43106  0.18716  1.0000
  C   C13       1.0  0.53162  0.25886  0.44198  1.0000
  C   C14       1.0  0.46838  0.74114  0.55803  1.0000
  C   C15       1.0  0.51470  0.12547  0.47013  1.0000
  C   C16       1.0  0.48529  0.87452  0.52988  1.0000
  C   C17       1.0  0.42294  0.06735  0.57486  1.0000
  C   C18       1.0  0.57705  0.93265  0.42515  1.0000
  C   C19       1.0  0.59181  0.05821  0.39491  1.0000
  C   C20       1.0  0.40818  0.94179  0.60509  1.0000
  C   C21       1.0  0.77837  0.57747  0.34984  1.0000
  C   C22       1.0  0.22163  0.42254  0.65016  1.0000
  C   C23       1.0  0.89291  0.53872  0.42695  1.0000
  C   C24       1.0  0.10709  0.46128  0.57305  1.0000
  C   C25       1.0  0.93079  0.40882  0.50609  1.0000
  C   C26       1.0  0.06921  0.59118  0.49391  1.0000
  C   C27       1.0  0.96315  0.62992  0.42153  1.0000
  C   C28       1.0  0.03685  0.37008  0.57847  1.0000
  C   C29       1.0  0.94441  0.13336  0.23731  1.0000
  C   C30       1.0  0.05559  0.86664  0.76269  1.0000
  C   C31       1.0  0.97461  0.06367  0.37263  1.0000
  C   C32       1.0  0.02539  0.93633  0.62737  1.0000
  C   C33       1.0  0.89709  0.10860  0.46577  1.0000
  C   C34       1.0  0.10291  0.89140  0.53423  1.0000
  C   C35       1.0  0.07796  0.95418  0.40780  1.0000
  C   C36       1.0  0.92204  0.04582  0.59220  1.0000
  C   C37       1.0  0.72864  0.13176  0.92886  1.0000
  C   C38       1.0  0.27136  0.86824  0.07114  1.0000
  C   C39       1.0  0.61105  0.06355  0.96460  1.0000
  C   C40       1.0  0.38895  0.93645  0.03540  1.0000
  C   C41       1.0  0.57228  0.98863  0.09268  1.0000
  C   C42       1.0  0.42772  0.01137  0.90732  1.0000
  C   C43       1.0  0.53700  0.07492  0.87151  1.0000
  C   C44       1.0  0.46300  0.92508  0.12849  1.0000
  N   N1        1.0  0.57686  0.60928  0.09824  1.0000
  N   N2        1.0  0.42314  0.39072  0.90176  1.0000
  N   N3        1.0  0.47161  0.62521  0.03398  1.0000
  N   N4        1.0  0.52839  0.37479  0.96602  1.0000
  N   N5        1.0  0.63247  0.72620  0.89940  1.0000
  N   N6        1.0  0.36753  0.27380  0.10060  1.0000
  N   N7        1.0  0.92103  0.38699  0.90199  1.0000
  N   N8        1.0  0.07897  0.61301  0.09801  1.0000
  N   N9        1.0  0.02740  0.44707  0.88517  1.0000
  N   N10       1.0  0.97260  0.55293  0.11483  1.0000
  N   N11       1.0  0.86110  0.58926  0.78240  1.0000
  N   N12       1.0  0.13890  0.41074  0.21760  1.0000
  O   O1        1.0  0.72202  0.48378  0.36565  1.0000
  O   O2        1.0  0.27798  0.51622  0.63435  1.0000
  O   O3        1.0  0.74251  0.69254  0.27574  1.0000
  O   O4        1.0  0.25749  0.30746  0.72426  1.0000
  O   O5        1.0  0.53077  0.33811  0.32421  1.0000
  O   O6        1.0  0.46923  0.66189  0.67579  1.0000
  O   O7        1.0  0.54370  0.28412  0.53272  1.0000
  O   O8        1.0  0.45631  0.71587  0.46729  1.0000
  O   O9        1.0  0.03481  0.10630  0.15040  1.0000
  O   O10       1.0  0.96519  0.89370  0.84960  1.0000
  O   O11       1.0  0.83686  0.21520  0.21232  1.0000
  O   O12       1.0  0.16314  0.78480  0.78768  1.0000
  O   O13       1.0  0.80244  0.09876  0.01949  1.0000
  O   O14       1.0  0.19756  0.90124  0.98051  1.0000
  O   O15       1.0  0.75299  0.21548  0.82028  1.0000
  O   O16       1.0  0.24701  0.78452  0.17972  1.0000
  O   O17       1.0  0.38735  0.59648  0.35194  1.0000
  O   O18       1.0  0.61265  0.40351  0.64805  1.0000
  O   O19       1.0  0.09467  0.14709  0.86198  1.0000
  O   O20       1.0  0.90533  0.85291  0.13802  1.0000
