data_image0
_chemical_formula_structural       Zn2H24C28N12O8
_chemical_formula_sum              "Zn2 H24 C28 N12 O8"
_cell_length_a       6.98446
_cell_length_b       9.21268
_cell_length_c       12.1075
_cell_angle_alpha    90.0001
_cell_angle_beta     90.0001
_cell_angle_gamma    105.187

_space_group_name_H-M_alt    "P 1"
_space_group_IT_number       1

loop_
  _space_group_symop_operation_xyz
  'x, y, z'

loop_
  _atom_site_type_symbol
  _atom_site_label
  _atom_site_symmetry_multiplicity
  _atom_site_fract_x
  _atom_site_fract_y
  _atom_site_fract_z
  _atom_site_occupancy
  Zn  Zn1       1.0  0.09872  0.74059  0.30219  1.0000
  Zn  Zn2       1.0  0.90128  0.25941  0.80219  1.0000
  H   H1        1.0  0.74423  0.22805  0.23873  1.0000
  H   H2        1.0  0.25577  0.77195  0.73873  1.0000
  H   H3        1.0  0.85964  0.33880  0.35171  1.0000
  H   H4        1.0  0.14036  0.66120  0.85171  1.0000
  H   H5        1.0  0.49659  0.27336  0.37254  1.0000
  H   H6        1.0  0.50341  0.72664  0.87254  1.0000
  H   H7        1.0  0.47732  0.07890  0.35440  1.0000
  H   H8        1.0  0.52268  0.92110  0.85440  1.0000
  H   H9        1.0  0.78087  0.93934  0.23160  1.0000
  H   H10       1.0  0.21913  0.06066  0.73160  1.0000
  H   H11       1.0  0.08128  0.23025  0.48537  1.0000
  H   H12       1.0  0.91872  0.76975  0.98536  1.0000
  H   H13       1.0  0.82373  0.36574  0.55241  1.0000
  H   H14       1.0  0.17628  0.63426  0.05241  1.0000
  H   H15       1.0  0.39350  0.94667  0.53292  1.0000
  H   H16       1.0  0.60650  0.05333  0.03292  1.0000
  H   H17       1.0  0.56548  0.45322  0.79206  1.0000
  H   H18       1.0  0.43452  0.54678  0.29206  1.0000
  H   H19       1.0  0.88972  0.62428  0.74453  1.0000
  H   H20       1.0  0.11028  0.37572  0.24453  1.0000
  H   H21       1.0  0.92452  0.78646  0.57464  1.0000
  H   H22       1.0  0.07548  0.21354  0.07463  1.0000
  H   H23       1.0  0.62677  0.77373  0.45829  1.0000
  H   H24       1.0  0.37323  0.22627  0.95829  1.0000
  C   C1        1.0  0.77175  0.22622  0.32779  1.0000
  C   C2        1.0  0.22825  0.77378  0.82778  1.0000
  C   C3        1.0  0.57179  0.18425  0.38713  1.0000
  C   C4        1.0  0.42821  0.81575  0.88713  1.0000
  C   C5        1.0  0.87850  0.98668  0.29953  1.0000
  C   C6        1.0  0.12151  0.01332  0.79953  1.0000
  C   C7        1.0  0.03281  0.13372  0.43080  1.0000
  C   C8        1.0  0.96719  0.86628  0.93080  1.0000
  C   C9        1.0  0.72270  0.25857  0.57535  1.0000
  C   C10       1.0  0.27731  0.74144  0.07535  1.0000
  C   C11       1.0  0.50507  0.04102  0.56724  1.0000
  C   C12       1.0  0.49493  0.95898  0.06724  1.0000
  C   C13       1.0  0.43070  0.60532  0.55724  1.0000
  C   C14       1.0  0.56929  0.39468  0.05724  1.0000
  C   C15       1.0  0.41429  0.51278  0.65098  1.0000
  C   C16       1.0  0.58571  0.48722  0.15098  1.0000
  C   C17       1.0  0.57977  0.52470  0.71911  1.0000
  C   C18       1.0  0.42023  0.47530  0.21911  1.0000
  C   C19       1.0  0.76244  0.62235  0.69239  1.0000
  C   C20       1.0  0.23756  0.37765  0.19239  1.0000
  C   C21       1.0  0.78169  0.71141  0.59755  1.0000
  C   C22       1.0  0.21831  0.28859  0.09755  1.0000
  C   C23       1.0  0.61582  0.70386  0.53179  1.0000
  C   C24       1.0  0.38418  0.29614  0.03179  1.0000
  C   C25       1.0  0.25524  0.60040  0.48373  1.0000
  C   C26       1.0  0.74476  0.39960  0.98373  1.0000
  C   C27       1.0  0.23035  0.39362  0.68173  1.0000
  C   C28       1.0  0.76966  0.60638  0.18173  1.0000
  N   N1        1.0  0.00721  0.92303  0.34675  1.0000
  N   N2        1.0  0.99280  0.07697  0.84675  1.0000
  N   N3        1.0  0.10468  0.01512  0.43028  1.0000
  N   N4        1.0  0.89533  0.98488  0.93027  1.0000
  N   N5        1.0  0.89016  0.12007  0.35042  1.0000
  N   N6        1.0  0.10984  0.87993  0.85042  1.0000
  N   N7        1.0  0.70998  0.19430  0.67373  1.0000
  N   N8        1.0  0.29003  0.80570  0.17373  1.0000
  N   N9        1.0  0.57163  0.05642  0.66958  1.0000
  N   N10       1.0  0.42837  0.94358  0.16958  1.0000
  N   N11       1.0  0.59558  0.16467  0.50563  1.0000
  N   N12       1.0  0.40442  0.83533  0.00563  1.0000
  O   O1        1.0  0.27513  0.72027  0.42339  1.0000
  O   O2        1.0  0.72487  0.27973  0.92339  1.0000
  O   O3        1.0  0.10801  0.48854  0.48309  1.0000
  O   O4        1.0  0.89199  0.51146  0.98309  1.0000
  O   O5        1.0  0.21139  0.26271  0.64749  1.0000
  O   O6        1.0  0.78861  0.73729  0.14749  1.0000
  O   O7        1.0  0.11144  0.43353  0.75085  1.0000
  O   O8        1.0  0.88856  0.56647  0.25085  1.0000
