data_image0
_chemical_formula_structural       Sm4P4H24C8S4O28
_chemical_formula_sum              "Sm4 P4 H24 C8 S4 O28"
_cell_length_a       7.10137
_cell_length_b       8.32615
_cell_length_c       13.0939
_cell_angle_alpha    90.0001
_cell_angle_beta     89.9997
_cell_angle_gamma    103.282

_space_group_name_H-M_alt    "P 1"
_space_group_IT_number       1

loop_
  _space_group_symop_operation_xyz
  'x, y, z'

loop_
  _atom_site_type_symbol
  _atom_site_label
  _atom_site_symmetry_multiplicity
  _atom_site_fract_x
  _atom_site_fract_y
  _atom_site_fract_z
  _atom_site_occupancy
  Sm  Sm1       1.0  0.24399  0.49669  0.92267  1.0000
  Sm  Sm2       1.0  0.25601  0.50331  0.42267  1.0000
  Sm  Sm3       1.0  0.75601  0.50331  0.07733  1.0000
  Sm  Sm4       1.0  0.74399  0.49669  0.57733  1.0000
  P   P1        1.0  0.27826  0.63862  0.64720  1.0000
  P   P2        1.0  0.22174  0.36138  0.14719  1.0000
  P   P3        1.0  0.72174  0.36138  0.35280  1.0000
  P   P4        1.0  0.77826  0.63862  0.85281  1.0000
  H   H1        1.0  0.27950  0.22829  0.78863  1.0000
  H   H2        1.0  0.22050  0.77171  0.28863  1.0000
  H   H3        1.0  0.72050  0.77171  0.21137  1.0000
  H   H4        1.0  0.77950  0.22829  0.71137  1.0000
  H   H5        1.0  0.48286  0.25195  0.84206  1.0000
  H   H6        1.0  0.01714  0.74805  0.34206  1.0000
  H   H7        1.0  0.51714  0.74805  0.15794  1.0000
  H   H8        1.0  0.98286  0.25195  0.65794  1.0000
  H   H9        1.0  0.11121  0.89352  0.55134  1.0000
  H   H10       1.0  0.38879  0.10648  0.05135  1.0000
  H   H11       1.0  0.88879  0.10648  0.44865  1.0000
  H   H12       1.0  0.61121  0.89352  0.94865  1.0000
  H   H13       1.0  0.33926  0.93292  0.49051  1.0000
  H   H14       1.0  0.16074  0.06708  0.99051  1.0000
  H   H15       1.0  0.66074  0.06708  0.50949  1.0000
  H   H16       1.0  0.83926  0.93292  0.00949  1.0000
  H   H17       1.0  0.28427  0.89802  0.72466  1.0000
  H   H18       1.0  0.21573  0.10198  0.22466  1.0000
  H   H19       1.0  0.71573  0.10198  0.27534  1.0000
  H   H20       1.0  0.78427  0.89802  0.77534  1.0000
  H   H21       1.0  0.50311  0.90438  0.65862  1.0000
  H   H22       1.0  0.99689  0.09562  0.15862  1.0000
  H   H23       1.0  0.49689  0.09562  0.34138  1.0000
  H   H24       1.0  0.00311  0.90438  0.84138  1.0000
  C   C1        1.0  0.26635  0.94516  0.56291  1.0000
  C   C2        1.0  0.23365  0.05484  0.06291  1.0000
  C   C3        1.0  0.73365  0.05484  0.43709  1.0000
  C   C4        1.0  0.76635  0.94516  0.93709  1.0000
  C   C5        1.0  0.34486  0.86393  0.65276  1.0000
  C   C6        1.0  0.15514  0.13607  0.15276  1.0000
  C   C7        1.0  0.65514  0.13607  0.34724  1.0000
  C   C8        1.0  0.84486  0.86393  0.84724  1.0000
  S   S1        1.0  0.28611  0.15881  0.58534  1.0000
  S   S2        1.0  0.21389  0.84118  0.08534  1.0000
  S   S3        1.0  0.71389  0.84119  0.41466  1.0000
  S   S4        1.0  0.78611  0.15882  0.91466  1.0000
  O   O1        1.0  0.25298  0.57913  0.75691  1.0000
  O   O2        1.0  0.24702  0.42087  0.25691  1.0000
  O   O3        1.0  0.74702  0.42087  0.24309  1.0000
  O   O4        1.0  0.75298  0.57913  0.74309  1.0000
  O   O5        1.0  0.09391  0.59000  0.57957  1.0000
  O   O6        1.0  0.40609  0.41001  0.07957  1.0000
  O   O7        1.0  0.90609  0.41000  0.42043  1.0000
  O   O8        1.0  0.59391  0.58999  0.92043  1.0000
  O   O9        1.0  0.43311  0.57376  0.58621  1.0000
  O   O10       1.0  0.06689  0.42624  0.08621  1.0000
  O   O11       1.0  0.56689  0.42624  0.41379  1.0000
  O   O12       1.0  0.93311  0.57376  0.91379  1.0000
  O   O13       1.0  0.16928  0.16693  0.67787  1.0000
  O   O14       1.0  0.33073  0.83307  0.17787  1.0000
  O   O15       1.0  0.83073  0.83307  0.32213  1.0000
  O   O16       1.0  0.66927  0.16693  0.82213  1.0000
  O   O17       1.0  0.49161  0.23586  0.60206  1.0000
  O   O18       1.0  0.00840  0.76414  0.10206  1.0000
  O   O19       1.0  0.50839  0.76414  0.39794  1.0000
  O   O20       1.0  0.99160  0.23586  0.89794  1.0000
  O   O21       1.0  0.20253  0.22355  0.49483  1.0000
  O   O22       1.0  0.29747  0.77645  0.99483  1.0000
  O   O23       1.0  0.79747  0.77645  0.50517  1.0000
  O   O24       1.0  0.70253  0.22355  0.00517  1.0000
  O   O25       1.0  0.35195  0.27219  0.85125  1.0000
  O   O26       1.0  0.14805  0.72782  0.35125  1.0000
  O   O27       1.0  0.64805  0.72780  0.14876  1.0000
  O   O28       1.0  0.85195  0.27219  0.64875  1.0000
