data_image0
_chemical_formula_structural       Zn2H28C44N4Cl4O8
_chemical_formula_sum              "Zn2 H28 C44 N4 Cl4 O8"
_cell_length_a       9.85145
_cell_length_b       11.3278
_cell_length_c       12.7552
_cell_angle_alpha    103.734
_cell_angle_beta     97.7067
_cell_angle_gamma    95.7722

_space_group_name_H-M_alt    "P 1"
_space_group_IT_number       1

loop_
  _space_group_symop_operation_xyz
  'x, y, z'

loop_
  _atom_site_type_symbol
  _atom_site_label
  _atom_site_symmetry_multiplicity
  _atom_site_fract_x
  _atom_site_fract_y
  _atom_site_fract_z
  _atom_site_occupancy
  Zn  Zn1       1.0  0.48313  0.79836  0.17562  1.0000
  Zn  Zn2       1.0  0.51687  0.20164  0.82438  1.0000
  H   H1        1.0  0.30954  0.99685  0.21742  1.0000
  H   H2        1.0  0.69045  0.00315  0.78258  1.0000
  H   H3        1.0  0.16031  0.10931  0.10906  1.0000
  H   H4        1.0  0.83968  0.89069  0.89094  1.0000
  H   H5        1.0  0.29598  0.90721  0.81914  1.0000
  H   H6        1.0  0.70402  0.09279  0.18086  1.0000
  H   H7        1.0  0.43583  0.79962  0.93939  1.0000
  H   H8        1.0  0.56417  0.20038  0.06061  1.0000
  H   H9        1.0  0.88288  0.93708  0.68900  1.0000
  H   H10       1.0  0.11711  0.06292  0.31100  1.0000
  H   H11       1.0  0.74120  0.99532  0.53553  1.0000
  H   H12       1.0  0.25880  0.00468  0.46447  1.0000
  H   H13       1.0  0.72021  0.12265  0.40393  1.0000
  H   H14       1.0  0.27979  0.87735  0.59607  1.0000
  H   H15       1.0  0.82652  0.28401  0.32288  1.0000
  H   H16       1.0  0.17348  0.71599  0.67712  1.0000
  H   H17       1.0  0.19550  0.34450  0.56148  1.0000
  H   H18       1.0  0.80451  0.65551  0.43852  1.0000
  H   H19       1.0  0.21279  0.22117  0.70270  1.0000
  H   H20       1.0  0.78720  0.77883  0.29730  1.0000
  H   H21       1.0  0.42224  0.52196  0.08939  1.0000
  H   H22       1.0  0.57777  0.47803  0.91061  1.0000
  H   H23       1.0  0.29524  0.34776  0.14225  1.0000
  H   H24       1.0  0.70475  0.65224  0.85775  1.0000
  H   H25       1.0  0.13549  0.61648  0.37835  1.0000
  H   H26       1.0  0.86451  0.38352  0.62165  1.0000
  H   H27       1.0  0.26845  0.77992  0.31593  1.0000
  H   H28       1.0  0.73156  0.22008  0.68408  1.0000
  C   C1        1.0  0.30092  0.97909  0.12873  1.0000
  C   C2        1.0  0.69908  0.02091  0.87127  1.0000
  C   C3        1.0  0.21938  0.04101  0.06855  1.0000
  C   C4        1.0  0.78061  0.95899  0.93145  1.0000
  C   C5        1.0  0.21441  0.01364  0.95539  1.0000
  C   C6        1.0  0.78558  0.98636  0.04461  1.0000
  C   C7        1.0  0.29444  0.92734  0.90668  1.0000
  C   C8        1.0  0.70556  0.07266  0.09332  1.0000
  C   C9        1.0  0.37185  0.86822  0.97227  1.0000
  C   C10       1.0  0.62814  0.13178  0.02773  1.0000
  C   C11       1.0  0.11984  0.07412  0.88936  1.0000
  C   C12       1.0  0.88016  0.92588  0.11064  1.0000
  C   C13       1.0  0.05187  0.08054  0.70393  1.0000
  C   C14       1.0  0.94813  0.91946  0.29607  1.0000
  C   C15       1.0  0.91943  0.01481  0.65881  1.0000
  C   C16       1.0  0.08057  0.98519  0.34119  1.0000
  C   C17       1.0  0.84310  0.04587  0.57307  1.0000
  C   C18       1.0  0.15690  0.95413  0.42693  1.0000
  C   C19       1.0  0.89785  0.14132  0.52936  1.0000
  C   C20       1.0  0.10215  0.85869  0.47064  1.0000
  C   C21       1.0  0.82326  0.17243  0.43880  1.0000
  C   C22       1.0  0.17674  0.82757  0.56120  1.0000
  C   C23       1.0  0.88148  0.26028  0.39341  1.0000
  C   C24       1.0  0.11852  0.73971  0.60659  1.0000
  C   C25       1.0  0.01663  0.31951  0.43848  1.0000
  C   C26       1.0  0.98337  0.68049  0.56151  1.0000
  C   C27       1.0  0.09148  0.29623  0.52847  1.0000
  C   C28       1.0  0.90852  0.70376  0.47152  1.0000
  C   C29       1.0  0.03369  0.20601  0.57635  1.0000
  C   C30       1.0  0.96631  0.79399  0.42365  1.0000
  C   C31       1.0  0.10912  0.17470  0.66609  1.0000
  C   C32       1.0  0.89088  0.82530  0.33391  1.0000
  C   C33       1.0  0.14110  0.36635  0.30441  1.0000
  C   C34       1.0  0.85890  0.63365  0.69559  1.0000
  C   C35       1.0  0.35707  0.53852  0.15268  1.0000
  C   C36       1.0  0.64293  0.46148  0.84732  1.0000
  C   C37       1.0  0.28706  0.44221  0.18288  1.0000
  C   C38       1.0  0.71293  0.55779  0.81712  1.0000
  C   C39       1.0  0.20777  0.46933  0.26641  1.0000
  C   C40       1.0  0.79223  0.53067  0.73359  1.0000
  C   C41       1.0  0.19744  0.59205  0.31409  1.0000
  C   C42       1.0  0.80256  0.40795  0.68591  1.0000
  C   C43       1.0  0.27040  0.68300  0.27918  1.0000
  C   C44       1.0  0.72961  0.31700  0.72082  1.0000
  N   N1        1.0  0.37369  0.89278  0.08116  1.0000
  N   N2        1.0  0.62631  0.10722  0.91884  1.0000
  N   N3        1.0  0.35026  0.65674  0.20115  1.0000
  N   N4        1.0  0.64974  0.34326  0.79886  1.0000
  Cl  Cl1       1.0  0.62539  0.70364  0.07304  1.0000
  Cl  Cl2       1.0  0.37461  0.29636  0.92696  1.0000
  Cl  Cl3       1.0  0.53511  0.92755  0.34107  1.0000
  Cl  Cl4       1.0  0.46489  0.07246  0.65893  1.0000
  O   O1        1.0  0.03847  0.14069  0.92565  1.0000
  O   O2        1.0  0.96154  0.85931  0.07436  1.0000
  O   O3        1.0  0.13477  0.03921  0.78226  1.0000
  O   O4        1.0  0.86523  0.96079  0.21774  1.0000
  O   O5        1.0  0.14661  0.25808  0.26501  1.0000
  O   O6        1.0  0.85338  0.74193  0.73499  1.0000
  O   O7        1.0  0.07616  0.40877  0.39127  1.0000
  O   O8        1.0  0.92384  0.59123  0.60873  1.0000
