data_image0
_chemical_formula_structural       Ca2H40C36N20O12
_chemical_formula_sum              "Ca2 H40 C36 N20 O12"
_cell_length_a       7.81519
_cell_length_b       10.0628
_cell_length_c       15.3847
_cell_angle_alpha    71.9959
_cell_angle_beta     84.2282
_cell_angle_gamma    84.2161

_space_group_name_H-M_alt    "P 1"
_space_group_IT_number       1

loop_
  _space_group_symop_operation_xyz
  'x, y, z'

loop_
  _atom_site_type_symbol
  _atom_site_label
  _atom_site_symmetry_multiplicity
  _atom_site_fract_x
  _atom_site_fract_y
  _atom_site_fract_z
  _atom_site_occupancy
  Ca  Ca1       1.0  0.24848  0.45971  0.03090  1.0000
  Ca  Ca2       1.0  0.75152  0.54029  0.96910  1.0000
  H   H1        1.0  0.43593  0.47624  0.27719  1.0000
  H   H2        1.0  0.56408  0.52376  0.72281  1.0000
  H   H3        1.0  0.57363  0.19085  0.25240  1.0000
  H   H4        1.0  0.42638  0.80915  0.74760  1.0000
  H   H5        1.0  0.36171  0.27388  0.23590  1.0000
  H   H6        1.0  0.63829  0.72612  0.76410  1.0000
  H   H7        1.0  0.43779  0.21434  0.34770  1.0000
  H   H8        1.0  0.56222  0.78567  0.65230  1.0000
  H   H9        1.0  0.11235  0.42027  0.48994  1.0000
  H   H10       1.0  0.88765  0.57973  0.51006  1.0000
  H   H11       1.0  0.35536  0.27333  0.57199  1.0000
  H   H12       1.0  0.64464  0.72667  0.42801  1.0000
  H   H13       1.0  0.42448  0.03052  0.55895  1.0000
  H   H14       1.0  0.57551  0.96948  0.44105  1.0000
  H   H15       1.0  0.03327  0.07938  0.38663  1.0000
  H   H16       1.0  0.96673  0.92063  0.61337  1.0000
  H   H17       1.0  0.05413  0.06731  0.07003  1.0000
  H   H18       1.0  0.94587  0.93269  0.92997  1.0000
  H   H19       1.0  0.90245  0.14320  0.24369  1.0000
  H   H20       1.0  0.09754  0.85680  0.75631  1.0000
  H   H21       1.0  0.11746  0.15921  0.19269  1.0000
  H   H22       1.0  0.88254  0.84079  0.80732  1.0000
  H   H23       1.0  0.03970  0.99002  0.24356  1.0000
  H   H24       1.0  0.96030  0.00998  0.75644  1.0000
  H   H25       1.0  0.45243  0.92675  0.32528  1.0000
  H   H26       1.0  0.54756  0.07325  0.67472  1.0000
  H   H27       1.0  0.20044  0.80563  0.41680  1.0000
  H   H28       1.0  0.79955  0.19436  0.58320  1.0000
  H   H29       1.0  0.04884  0.64992  0.35211  1.0000
  H   H30       1.0  0.95117  0.35007  0.64788  1.0000
  H   H31       1.0  0.37298  0.74163  0.11505  1.0000
  H   H32       1.0  0.62703  0.25837  0.88495  1.0000
  H   H33       1.0  0.38411  0.18731  0.01033  1.0000
  H   H34       1.0  0.61589  0.81269  0.98967  1.0000
  H   H35       1.0  0.52135  0.23951  0.05749  1.0000
  H   H36       1.0  0.47865  0.76049  0.94251  1.0000
  H   H37       1.0  0.12846  0.56041  0.19244  1.0000
  H   H38       1.0  0.87154  0.43959  0.80756  1.0000
  H   H39       1.0  0.97482  0.48932  0.16698  1.0000
  H   H40       1.0  0.02517  0.51068  0.83302  1.0000
  C   C1        1.0  0.60242  0.47309  0.15814  1.0000
  C   C2        1.0  0.39757  0.52691  0.84186  1.0000
  C   C3        1.0  0.54005  0.40534  0.25930  1.0000
  C   C4        1.0  0.45995  0.59467  0.74070  1.0000
  C   C5        1.0  0.47513  0.26128  0.27485  1.0000
  C   C6        1.0  0.52487  0.73873  0.72515  1.0000
  C   C7        1.0  0.89886  0.33925  0.38898  1.0000
  C   C8        1.0  0.10115  0.66075  0.61102  1.0000
  C   C9        1.0  0.05075  0.26024  0.43234  1.0000
  C   C10       1.0  0.94926  0.73976  0.56766  1.0000
  C   C11       1.0  0.14568  0.31567  0.48387  1.0000
  C   C12       1.0  0.85432  0.68434  0.51613  1.0000
  C   C13       1.0  0.28178  0.23328  0.53015  1.0000
  C   C14       1.0  0.71822  0.76673  0.46985  1.0000
  C   C15       1.0  0.31983  0.09856  0.52269  1.0000
  C   C16       1.0  0.68016  0.90144  0.47732  1.0000
  C   C17       1.0  0.10288  0.12493  0.42715  1.0000
  C   C18       1.0  0.89711  0.87508  0.57285  1.0000
  C   C19       1.0  0.89000  0.25411  0.05485  1.0000
  C   C20       1.0  0.10999  0.74589  0.94515  1.0000
  C   C21       1.0  0.94766  0.10409  0.11125  1.0000
  C   C22       1.0  0.05234  0.89591  0.88875  1.0000
  C   C23       1.0  0.00401  0.09853  0.20421  1.0000
  C   C24       1.0  0.99599  0.90147  0.79579  1.0000
  C   C25       1.0  0.58796  0.90418  0.16035  1.0000
  C   C26       1.0  0.41204  0.09582  0.83965  1.0000
  C   C27       1.0  0.43608  0.84103  0.21386  1.0000
  C   C28       1.0  0.56392  0.15897  0.78614  1.0000
  C   C29       1.0  0.38386  0.85934  0.29955  1.0000
  C   C30       1.0  0.61614  0.14066  0.70045  1.0000
  C   C31       1.0  0.24328  0.79153  0.35039  1.0000
  C   C32       1.0  0.75672  0.20847  0.64961  1.0000
  C   C33       1.0  0.15858  0.70687  0.31437  1.0000
  C   C34       1.0  0.84142  0.29313  0.68563  1.0000
  C   C35       1.0  0.33998  0.75746  0.18194  1.0000
  C   C36       1.0  0.66002  0.24254  0.81806  1.0000
  N   N1        1.0  0.67615  0.39875  0.31914  1.0000
  N   N2        1.0  0.32386  0.60125  0.68086  1.0000
  N   N3        1.0  0.69712  0.50431  0.35162  1.0000
  N   N4        1.0  0.30289  0.49570  0.64837  1.0000
  N   N5        1.0  0.83794  0.46752  0.39649  1.0000
  N   N6        1.0  0.16207  0.53248  0.60351  1.0000
  N   N7        1.0  0.79741  0.29412  0.34014  1.0000
  N   N8        1.0  0.20259  0.70589  0.65986  1.0000
  N   N9        1.0  0.23440  0.04520  0.47092  1.0000
  N   N10       1.0  0.76559  0.95480  0.52908  1.0000
  N   N11       1.0  0.81065  0.01126  0.11961  1.0000
  N   N12       1.0  0.18935  0.98873  0.88039  1.0000
  N   N13       1.0  0.78752  0.96104  0.05156  1.0000
  N   N14       1.0  0.21248  0.03896  0.94844  1.0000
  N   N15       1.0  0.64734  0.89222  0.07657  1.0000
  N   N16       1.0  0.35266  0.10778  0.92343  1.0000
  N   N17       1.0  0.69043  0.97982  0.18861  1.0000
  N   N18       1.0  0.30957  0.02018  0.81139  1.0000
  N   N19       1.0  0.20548  0.69087  0.23135  1.0000
  N   N20       1.0  0.79452  0.30913  0.76865  1.0000
  O   O1        1.0  0.49227  0.48965  0.09986  1.0000
  O   O2        1.0  0.50772  0.51034  0.90015  1.0000
  O   O3        1.0  0.75567  0.50769  0.13699  1.0000
  O   O4        1.0  0.24433  0.49232  0.86301  1.0000
  O   O5        1.0  0.00247  0.34267  0.03439  1.0000
  O   O6        1.0  0.99753  0.65732  0.96561  1.0000
  O   O7        1.0  0.73632  0.28358  0.03151  1.0000
  O   O8        1.0  0.26368  0.71642  0.96849  1.0000
  O   O9        1.0  0.39582  0.23144  0.05886  1.0000
  O   O10       1.0  0.60417  0.76855  0.94114  1.0000
  O   O11       1.0  0.10120  0.48187  0.16999  1.0000
  O   O12       1.0  0.89879  0.51812  0.83001  1.0000
