data_image0
_chemical_formula_structural       Zn2H32C46Br4N4Cl4O8
_chemical_formula_sum              "Zn2 H32 C46 Br4 N4 Cl4 O8"
_cell_length_a       10.0757
_cell_length_b       11.3332
_cell_length_c       12.4944
_cell_angle_alpha    104.124
_cell_angle_beta     96.8531
_cell_angle_gamma    96.4562

_space_group_name_H-M_alt    "P 1"
_space_group_IT_number       1

loop_
  _space_group_symop_operation_xyz
  'x, y, z'

loop_
  _atom_site_type_symbol
  _atom_site_label
  _atom_site_symmetry_multiplicity
  _atom_site_fract_x
  _atom_site_fract_y
  _atom_site_fract_z
  _atom_site_occupancy
  Zn  Zn1       1.0  0.48606  0.80215  0.17575  1.0000
  Zn  Zn2       1.0  0.51394  0.19785  0.82425  1.0000
  H   H1        1.0  0.30785  0.99111  0.22202  1.0000
  H   H2        1.0  0.69215  0.00889  0.77799  1.0000
  H   H3        1.0  0.15848  0.10066  0.11479  1.0000
  H   H4        1.0  0.84152  0.89934  0.88521  1.0000
  H   H5        1.0  0.30239  0.91309  0.81644  1.0000
  H   H6        1.0  0.69761  0.08691  0.18356  1.0000
  H   H7        1.0  0.44135  0.80713  0.93530  1.0000
  H   H8        1.0  0.55865  0.19287  0.06470  1.0000
  H   H9        1.0  0.21189  0.22299  0.70067  1.0000
  H   H10       1.0  0.78811  0.77701  0.29933  1.0000
  H   H11       1.0  0.88994  0.93686  0.69290  1.0000
  H   H12       1.0  0.11007  0.06314  0.30710  1.0000
  H   H13       1.0  0.74843  0.99461  0.54020  1.0000
  H   H14       1.0  0.25157  0.00539  0.45980  1.0000
  H   H15       1.0  0.19037  0.34764  0.55873  1.0000
  H   H16       1.0  0.80963  0.65237  0.44127  1.0000
  H   H17       1.0  0.82654  0.28309  0.32209  1.0000
  H   H18       1.0  0.17346  0.71691  0.67791  1.0000
  H   H19       1.0  0.72428  0.12217  0.40769  1.0000
  H   H20       1.0  0.27572  0.87783  0.59231  1.0000
  H   H21       1.0  0.27114  0.78273  0.31665  1.0000
  H   H22       1.0  0.72886  0.21727  0.68335  1.0000
  H   H23       1.0  0.13640  0.61849  0.37793  1.0000
  H   H24       1.0  0.86360  0.38151  0.62207  1.0000
  H   H25       1.0  0.30600  0.35010  0.14461  1.0000
  H   H26       1.0  0.69399  0.64990  0.85539  1.0000
  H   H27       1.0  0.43276  0.52524  0.09174  1.0000
  H   H28       1.0  0.56724  0.47476  0.90826  1.0000
  H   H29       1.0  0.93355  0.56289  0.18380  1.0000
  H   H30       1.0  0.06645  0.43711  0.81620  1.0000
  H   H31       1.0  0.80392  0.54601  0.06517  1.0000
  H   H32       1.0  0.19608  0.45399  0.93483  1.0000
  C   C1        1.0  0.30091  0.97554  0.13174  1.0000
  C   C2        1.0  0.69908  0.02446  0.86826  1.0000
  C   C3        1.0  0.21905  0.03578  0.07225  1.0000
  C   C4        1.0  0.78095  0.96422  0.92775  1.0000
  C   C5        1.0  0.21729  0.01241  0.95706  1.0000
  C   C6        1.0  0.78271  0.98759  0.04294  1.0000
  C   C7        1.0  0.29914  0.93075  0.90560  1.0000
  C   C8        1.0  0.70086  0.06925  0.09440  1.0000
  C   C9        1.0  0.37682  0.87289  0.97070  1.0000
  C   C10       1.0  0.62318  0.12711  0.02930  1.0000
  C   C11       1.0  0.12519  0.07340  0.89226  1.0000
  C   C12       1.0  0.87481  0.92660  0.10774  1.0000
  C   C13       1.0  0.10966  0.17646  0.66620  1.0000
  C   C14       1.0  0.89035  0.82354  0.33380  1.0000
  C   C15       1.0  0.05496  0.08158  0.70527  1.0000
  C   C16       1.0  0.94505  0.91842  0.29473  1.0000
  C   C17       1.0  0.92489  0.01511  0.66205  1.0000
  C   C18       1.0  0.07511  0.98489  0.33796  1.0000
  C   C19       1.0  0.84848  0.04597  0.57667  1.0000
  C   C20       1.0  0.15152  0.95403  0.42333  1.0000
  C   C21       1.0  0.90054  0.14188  0.53142  1.0000
  C   C22       1.0  0.09946  0.85812  0.46858  1.0000
  C   C23       1.0  0.03385  0.20752  0.57658  1.0000
  C   C24       1.0  0.96616  0.79248  0.42342  1.0000
  C   C25       1.0  0.08889  0.29779  0.52661  1.0000
  C   C26       1.0  0.91111  0.70221  0.47339  1.0000
  C   C27       1.0  0.01383  0.31980  0.43617  1.0000
  C   C28       1.0  0.98617  0.68020  0.56383  1.0000
  C   C29       1.0  0.88142  0.25967  0.39280  1.0000
  C   C30       1.0  0.11858  0.74033  0.60720  1.0000
  C   C31       1.0  0.82570  0.17219  0.44076  1.0000
  C   C32       1.0  0.17430  0.82780  0.55924  1.0000
  C   C33       1.0  0.14695  0.36773  0.30528  1.0000
  C   C34       1.0  0.85305  0.63227  0.69471  1.0000
  C   C35       1.0  0.27422  0.68560  0.27978  1.0000
  C   C36       1.0  0.72578  0.31440  0.72022  1.0000
  C   C37       1.0  0.20024  0.59410  0.31403  1.0000
  C   C38       1.0  0.79976  0.40589  0.68597  1.0000
  C   C39       1.0  0.21311  0.47137  0.26698  1.0000
  C   C40       1.0  0.78688  0.52863  0.73302  1.0000
  C   C41       1.0  0.29558  0.44464  0.18445  1.0000
  C   C42       1.0  0.70442  0.55536  0.81555  1.0000
  C   C43       1.0  0.36548  0.54137  0.15434  1.0000
  C   C44       1.0  0.63451  0.45863  0.84566  1.0000
  C   C45       1.0  0.85076  0.50148  0.12511  1.0000
  C   C46       1.0  0.14924  0.49852  0.87489  1.0000
  Br  Br1       1.0  0.92117  0.35840  0.04584  1.0000
  Br  Br2       1.0  0.07883  0.64160  0.95416  1.0000
  Br  Br3       1.0  0.71169  0.46040  0.21175  1.0000
  Br  Br4       1.0  0.28831  0.53961  0.78825  1.0000
  N   N1        1.0  0.37688  0.89445  0.08157  1.0000
  N   N2        1.0  0.62312  0.10555  0.91843  1.0000
  N   N3        1.0  0.35631  0.65967  0.20237  1.0000
  N   N4        1.0  0.64369  0.34033  0.79763  1.0000
  Cl  Cl1       1.0  0.54032  0.92986  0.34526  1.0000
  Cl  Cl2       1.0  0.45968  0.07014  0.65474  1.0000
  Cl  Cl3       1.0  0.62416  0.71083  0.06603  1.0000
  Cl  Cl4       1.0  0.37584  0.28917  0.93397  1.0000
  O   O1        1.0  0.04706  0.14053  0.93176  1.0000
  O   O2        1.0  0.95293  0.85948  0.06824  1.0000
  O   O3        1.0  0.13762  0.03960  0.78233  1.0000
  O   O4        1.0  0.86238  0.96041  0.21768  1.0000
  O   O5        1.0  0.07052  0.40859  0.38601  1.0000
  O   O6        1.0  0.92947  0.59141  0.61398  1.0000
  O   O7        1.0  0.16268  0.26061  0.27123  1.0000
  O   O8        1.0  0.83732  0.73939  0.72877  1.0000
