data_image0
_chemical_formula_structural       Zn2H32C46Br8N4O8
_chemical_formula_sum              "Zn2 H32 C46 Br8 N4 O8"
_cell_length_a       10.0664
_cell_length_b       11.4224
_cell_length_c       12.7504
_cell_angle_alpha    103.391
_cell_angle_beta     96.2163
_cell_angle_gamma    96.0614

_space_group_name_H-M_alt    "P 1"
_space_group_IT_number       1

loop_
  _space_group_symop_operation_xyz
  'x, y, z'

loop_
  _atom_site_type_symbol
  _atom_site_label
  _atom_site_symmetry_multiplicity
  _atom_site_fract_x
  _atom_site_fract_y
  _atom_site_fract_z
  _atom_site_occupancy
  Zn  Zn1       1.0  0.97232  0.80175  0.17403  1.0000
  Zn  Zn2       1.0  0.02768  0.19825  0.82597  1.0000
  H   H1        1.0  0.79971  0.99645  0.21503  1.0000
  H   H2        1.0  0.20029  0.00354  0.78496  1.0000
  H   H3        1.0  0.65430  0.10547  0.10665  1.0000
  H   H4        1.0  0.34570  0.89453  0.89335  1.0000
  H   H5        1.0  0.79647  0.90751  0.81834  1.0000
  H   H6        1.0  0.20354  0.09249  0.18166  1.0000
  H   H7        1.0  0.93185  0.80323  0.93828  1.0000
  H   H8        1.0  0.06816  0.19677  0.06172  1.0000
  H   H9        1.0  0.71260  0.21740  0.69917  1.0000
  H   H10       1.0  0.28740  0.78261  0.30084  1.0000
  H   H11       1.0  0.39087  0.93598  0.69313  1.0000
  H   H12       1.0  0.60913  0.06402  0.30687  1.0000
  H   H13       1.0  0.25190  0.99579  0.54409  1.0000
  H   H14       1.0  0.74810  0.00421  0.45591  1.0000
  H   H15       1.0  0.69338  0.34262  0.56012  1.0000
  H   H16       1.0  0.30662  0.65738  0.43988  1.0000
  H   H17       1.0  0.33340  0.28371  0.32967  1.0000
  H   H18       1.0  0.66659  0.71629  0.67033  1.0000
  H   H19       1.0  0.23011  0.12380  0.41345  1.0000
  H   H20       1.0  0.76988  0.87620  0.58655  1.0000
  H   H21       1.0  0.93467  0.52835  0.10125  1.0000
  H   H22       1.0  0.06533  0.47165  0.89875  1.0000
  H   H23       1.0  0.81447  0.35387  0.15748  1.0000
  H   H24       1.0  0.18553  0.64613  0.84252  1.0000
  H   H25       1.0  0.62200  0.61416  0.37210  1.0000
  H   H26       1.0  0.37799  0.38584  0.62790  1.0000
  H   H27       1.0  0.74843  0.77769  0.30644  1.0000
  H   H28       1.0  0.25156  0.22230  0.69356  1.0000
  H   H29       1.0  0.70308  0.46472  0.93727  1.0000
  H   H30       1.0  0.29692  0.53527  0.06273  1.0000
  H   H31       1.0  0.56509  0.43930  0.82749  1.0000
  H   H32       1.0  0.43491  0.56069  0.17251  1.0000
  C   C1        1.0  0.79338  0.97868  0.12670  1.0000
  C   C2        1.0  0.20663  0.02133  0.87330  1.0000
  C   C3        1.0  0.71367  0.03855  0.06650  1.0000
  C   C4        1.0  0.28634  0.96145  0.93350  1.0000
  C   C5        1.0  0.71208  0.01179  0.95375  1.0000
  C   C6        1.0  0.28792  0.98821  0.04625  1.0000
  C   C7        1.0  0.79290  0.92789  0.90557  1.0000
  C   C8        1.0  0.20710  0.07211  0.09443  1.0000
  C   C9        1.0  0.86854  0.87077  0.97129  1.0000
  C   C10       1.0  0.13147  0.12923  0.02871  1.0000
  C   C11       1.0  0.62100  0.07096  0.88779  1.0000
  C   C12       1.0  0.37900  0.92904  0.11221  1.0000
  C   C13       1.0  0.61113  0.17199  0.66551  1.0000
  C   C14       1.0  0.38887  0.82801  0.33449  1.0000
  C   C15       1.0  0.55564  0.07811  0.70433  1.0000
  C   C16       1.0  0.44437  0.92189  0.29567  1.0000
  C   C17       1.0  0.42647  0.01339  0.66239  1.0000
  C   C18       1.0  0.57353  0.98661  0.33761  1.0000
  C   C19       1.0  0.35155  0.04529  0.57885  1.0000
  C   C20       1.0  0.64844  0.95471  0.42116  1.0000
  C   C21       1.0  0.40424  0.14053  0.53421  1.0000
  C   C22       1.0  0.59575  0.85947  0.46580  1.0000
  C   C23       1.0  0.53679  0.20413  0.57787  1.0000
  C   C24       1.0  0.46321  0.79588  0.42213  1.0000
  C   C25       1.0  0.59246  0.29425  0.52903  1.0000
  C   C26       1.0  0.40753  0.70575  0.47097  1.0000
  C   C27       1.0  0.51876  0.31801  0.44103  1.0000
  C   C28       1.0  0.48123  0.68199  0.55897  1.0000
  C   C29       1.0  0.38723  0.25946  0.39878  1.0000
  C   C30       1.0  0.61277  0.74054  0.60122  1.0000
  C   C31       1.0  0.33094  0.17225  0.44570  1.0000
  C   C32       1.0  0.66906  0.82775  0.55430  1.0000
  C   C33       1.0  0.64680  0.36766  0.30919  1.0000
  C   C34       1.0  0.35320  0.63234  0.69081  1.0000
  C   C35       1.0  0.86363  0.54279  0.16030  1.0000
  C   C36       1.0  0.13637  0.45721  0.83970  1.0000
  C   C37       1.0  0.79764  0.44659  0.19240  1.0000
  C   C38       1.0  0.20236  0.55341  0.80760  1.0000
  C   C39       1.0  0.71050  0.47107  0.27054  1.0000
  C   C40       1.0  0.28949  0.52893  0.72946  1.0000
  C   C41       1.0  0.68942  0.59135  0.31151  1.0000
  C   C42       1.0  0.31057  0.40866  0.68849  1.0000
  C   C43       1.0  0.75900  0.68246  0.27489  1.0000
  C   C44       1.0  0.24099  0.31754  0.72511  1.0000
  C   C45       1.0  0.64792  0.50391  0.87834  1.0000
  C   C46       1.0  0.35208  0.49609  0.12166  1.0000
  Br  Br1       1.0  0.02928  0.93340  0.34931  1.0000
  Br  Br2       1.0  0.97072  0.06660  0.65069  1.0000
  Br  Br3       1.0  0.12483  0.70726  0.06299  1.0000
  Br  Br4       1.0  0.87518  0.29274  0.93701  1.0000
  Br  Br5       1.0  0.77565  0.54286  0.78247  1.0000
  Br  Br6       1.0  0.22435  0.45713  0.21753  1.0000
  Br  Br7       1.0  0.57464  0.64432  0.95484  1.0000
  Br  Br8       1.0  0.42535  0.35567  0.04515  1.0000
  N   N1        1.0  0.86770  0.89494  0.07971  1.0000
  N   N2        1.0  0.13231  0.10506  0.92028  1.0000
  N   N3        1.0  0.84570  0.65881  0.20170  1.0000
  N   N4        1.0  0.15429  0.34118  0.79829  1.0000
  O   O1        1.0  0.54082  0.13732  0.92393  1.0000
  O   O2        1.0  0.45919  0.86268  0.07607  1.0000
  O   O3        1.0  0.63649  0.03629  0.78092  1.0000
  O   O4        1.0  0.36351  0.96371  0.21908  1.0000
  O   O5        1.0  0.57581  0.40737  0.39273  1.0000
  O   O6        1.0  0.42419  0.59263  0.60727  1.0000
  O   O7        1.0  0.65953  0.26152  0.27253  1.0000
  O   O8        1.0  0.34047  0.73848  0.72748  1.0000
