data_image0
_chemical_formula_structural       Cd2H36C32N4O10
_chemical_formula_sum              "Cd2 H36 C32 N4 O10"
_cell_length_a       8.4227
_cell_length_b       9.87412
_cell_length_c       9.87406
_cell_angle_alpha    95.7901
_cell_angle_beta     90.8663
_cell_angle_gamma    90.8664

_space_group_name_H-M_alt    "P 1"
_space_group_IT_number       1

loop_
  _space_group_symop_operation_xyz
  'x, y, z'

loop_
  _atom_site_type_symbol
  _atom_site_label
  _atom_site_symmetry_multiplicity
  _atom_site_fract_x
  _atom_site_fract_y
  _atom_site_fract_z
  _atom_site_occupancy
  Cd  Cd1       1.0  0.25000  0.89285  0.10715  1.0000
  Cd  Cd2       1.0  0.75000  0.10715  0.89286  1.0000
  H   H1        1.0  0.49927  0.97290  0.36131  1.0000
  H   H2        1.0  0.00074  0.63869  0.02710  1.0000
  H   H3        1.0  0.50074  0.02710  0.63869  1.0000
  H   H4        1.0  0.99926  0.36131  0.97289  1.0000
  H   H5        1.0  0.59742  0.17252  0.51816  1.0000
  H   H6        1.0  0.90258  0.48184  0.82749  1.0000
  H   H7        1.0  0.40258  0.82749  0.48184  1.0000
  H   H8        1.0  0.09742  0.51816  0.17250  1.0000
  H   H9        1.0  0.31322  0.42684  0.28122  1.0000
  H   H10       1.0  0.18679  0.71877  0.57316  1.0000
  H   H11       1.0  0.68679  0.57316  0.71878  1.0000
  H   H12       1.0  0.81321  0.28123  0.42684  1.0000
  H   H13       1.0  0.22242  0.21625  0.14084  1.0000
  H   H14       1.0  0.27759  0.85916  0.78375  1.0000
  H   H15       1.0  0.77759  0.78376  0.85916  1.0000
  H   H16       1.0  0.72242  0.14084  0.21625  1.0000
  H   H17       1.0  0.58882  0.40961  0.59441  1.0000
  H   H18       1.0  0.91120  0.40559  0.59039  1.0000
  H   H19       1.0  0.41119  0.59040  0.40559  1.0000
  H   H20       1.0  0.08880  0.59441  0.40960  1.0000
  H   H21       1.0  0.87574  0.79838  0.48469  1.0000
  H   H22       1.0  0.62426  0.51532  0.20162  1.0000
  H   H23       1.0  0.12426  0.20161  0.51532  1.0000
  H   H24       1.0  0.37574  0.48468  0.79838  1.0000
  H   H25       1.0  0.76314  0.83976  0.33888  1.0000
  H   H26       1.0  0.73687  0.66113  0.16024  1.0000
  H   H27       1.0  0.23687  0.16023  0.66113  1.0000
  H   H28       1.0  0.26313  0.33887  0.83976  1.0000
  H   H29       1.0  0.85269  0.97067  0.45269  1.0000
  H   H30       1.0  0.64731  0.54732  0.02932  1.0000
  H   H31       1.0  0.14731  0.02932  0.54732  1.0000
  H   H32       1.0  0.35269  0.45268  0.97068  1.0000
  H   H33       1.0  0.15760  0.07316  0.88818  1.0000
  H   H34       1.0  0.34240  0.11182  0.92684  1.0000
  H   H35       1.0  0.84240  0.92683  0.11182  1.0000
  H   H36       1.0  0.65760  0.88818  0.07317  1.0000
  C   C1        1.0  0.45747  0.07510  0.35033  1.0000
  C   C2        1.0  0.04253  0.64967  0.92490  1.0000
  C   C3        1.0  0.54254  0.92491  0.64967  1.0000
  C   C4        1.0  0.95746  0.35033  0.07509  1.0000
  C   C5        1.0  0.51086  0.18624  0.43757  1.0000
  C   C6        1.0  0.98915  0.56243  0.81376  1.0000
  C   C7        1.0  0.48915  0.81376  0.56243  1.0000
  C   C8        1.0  0.01085  0.43757  0.18623  1.0000
  C   C9        1.0  0.45872  0.31756  0.41729  1.0000
  C   C10       1.0  0.04128  0.58270  0.68244  1.0000
  C   C11       1.0  0.54128  0.68245  0.58271  1.0000
  C   C12       1.0  0.95872  0.41730  0.31755  1.0000
  C   C13       1.0  0.35383  0.32831  0.30694  1.0000
  C   C14       1.0  0.14617  0.69306  0.67169  1.0000
  C   C15       1.0  0.64617  0.67170  0.69307  1.0000
  C   C16       1.0  0.85383  0.30694  0.32830  1.0000
  C   C17       1.0  0.30402  0.21151  0.22677  1.0000
  C   C18       1.0  0.19598  0.77323  0.78849  1.0000
  C   C19       1.0  0.69598  0.78849  0.77324  1.0000
  C   C20       1.0  0.80402  0.22677  0.21151  1.0000
  C   C21       1.0  0.51584  0.43423  0.50791  1.0000
  C   C22       1.0  0.98416  0.49208  0.56577  1.0000
  C   C23       1.0  0.48416  0.56577  0.49209  1.0000
  C   C24       1.0  0.01584  0.50792  0.43423  1.0000
  C   C25       1.0  0.01844  0.86328  0.32184  1.0000
  C   C26       1.0  0.48156  0.67816  0.13671  1.0000
  C   C27       1.0  0.98157  0.13671  0.67816  1.0000
  C   C28       1.0  0.51843  0.32184  0.86329  1.0000
  C   C29       1.0  0.86789  0.86646  0.40385  1.0000
  C   C30       1.0  0.63211  0.59615  0.13354  1.0000
  C   C31       1.0  0.13211  0.13353  0.59615  1.0000
  C   C32       1.0  0.36788  0.40385  0.86647  1.0000
  N   N1        1.0  0.35400  0.08608  0.24718  1.0000
  N   N2        1.0  0.14601  0.75282  0.91393  1.0000
  N   N3        1.0  0.64600  0.91393  0.75282  1.0000
  N   N4        1.0  0.85399  0.24718  0.08607  1.0000
  O   O1        1.0  0.14983  0.83766  0.37414  1.0000
  O   O2        1.0  0.35017  0.62586  0.16234  1.0000
  O   O3        1.0  0.85017  0.16234  0.62586  1.0000
  O   O4        1.0  0.64982  0.37414  0.83764  1.0000
  O   O5        1.0  0.00411  0.89146  0.19632  1.0000
  O   O6        1.0  0.49588  0.80369  0.10854  1.0000
  O   O7        1.0  0.99588  0.10853  0.80369  1.0000
  O   O8        1.0  0.50411  0.19632  0.89148  1.0000
  O   O9        1.0  0.25000  0.05272  0.94728  1.0000
  O   O10       1.0  0.75000  0.94727  0.05272  1.0000
