data_image0
_chemical_formula_structural       Cd4H56C40O16
_chemical_formula_sum              "Cd4 H56 C40 O16"
_cell_length_a       7.40252
_cell_length_b       11.0365
_cell_length_c       12.8084
_cell_angle_alpha    90.0001
_cell_angle_beta     97.4176
_cell_angle_gamma    89.9997

_space_group_name_H-M_alt    "P 1"
_space_group_IT_number       1

loop_
  _space_group_symop_operation_xyz
  'x, y, z'

loop_
  _atom_site_type_symbol
  _atom_site_label
  _atom_site_symmetry_multiplicity
  _atom_site_fract_x
  _atom_site_fract_y
  _atom_site_fract_z
  _atom_site_occupancy
  Cd  Cd1       1.0  0.25091  0.79583  0.76543  1.0000
  Cd  Cd2       1.0  0.74909  0.29583  0.23457  1.0000
  Cd  Cd3       1.0  0.74680  0.70419  0.73021  1.0000
  Cd  Cd4       1.0  0.25319  0.20419  0.26978  1.0000
  H   H1        1.0  0.88527  0.85860  0.23605  1.0000
  H   H2        1.0  0.11473  0.35859  0.76395  1.0000
  H   H3        1.0  0.61765  0.95878  0.27991  1.0000
  H   H4        1.0  0.38235  0.45879  0.72009  1.0000
  H   H5        1.0  0.61754  0.06556  0.17827  1.0000
  H   H6        1.0  0.38246  0.56555  0.82173  1.0000
  H   H7        1.0  0.43640  0.82887  0.16109  1.0000
  H   H8        1.0  0.56360  0.32886  0.83890  1.0000
  H   H9        1.0  0.43327  0.94281  0.06549  1.0000
  H   H10       1.0  0.56673  0.44280  0.93451  1.0000
  H   H11       1.0  0.74239  0.69553  0.19755  1.0000
  H   H12       1.0  0.25762  0.19552  0.80245  1.0000
  H   H13       1.0  0.78205  0.63205  0.07453  1.0000
  H   H14       1.0  0.21795  0.13205  0.92546  1.0000
  H   H15       1.0  0.55895  0.63729  0.11062  1.0000
  H   H16       1.0  0.44105  0.13728  0.88937  1.0000
  H   H17       1.0  0.03926  0.75067  0.10974  1.0000
  H   H18       1.0  0.96075  0.25066  0.89026  1.0000
  H   H19       1.0  0.12278  0.88360  0.05555  1.0000
  H   H20       1.0  0.87722  0.38360  0.94445  1.0000
  H   H21       1.0  0.98693  0.78016  0.97271  1.0000
  H   H22       1.0  0.01308  0.28016  0.02729  1.0000
  H   H23       1.0  0.79605  0.96767  0.91099  1.0000
  H   H24       1.0  0.20395  0.46767  0.08901  1.0000
  H   H25       1.0  0.92568  0.06041  0.00558  1.0000
  H   H26       1.0  0.07432  0.56041  0.99442  1.0000
  H   H27       1.0  0.68561  0.05261  0.00262  1.0000
  H   H28       1.0  0.31439  0.55260  0.99738  1.0000
  H   H29       1.0  0.14324  0.63600  0.27253  1.0000
  H   H30       1.0  0.85677  0.13600  0.72747  1.0000
  H   H31       1.0  0.92608  0.74467  0.35341  1.0000
  H   H32       1.0  0.07391  0.24467  0.64659  1.0000
  H   H33       1.0  0.88799  0.62558  0.43781  1.0000
  H   H34       1.0  0.11201  0.12558  0.56219  1.0000
  H   H35       1.0  0.10770  0.69597  0.57071  1.0000
  H   H36       1.0  0.89229  0.19597  0.42929  1.0000
  H   H37       1.0  0.10890  0.83307  0.49990  1.0000
  H   H38       1.0  0.89109  0.33307  0.50010  1.0000
  H   H39       1.0  0.51077  0.78053  0.36733  1.0000
  H   H40       1.0  0.48923  0.28053  0.63268  1.0000
  H   H41       1.0  0.36970  0.88924  0.42057  1.0000
  H   H42       1.0  0.63029  0.38924  0.57944  1.0000
  H   H43       1.0  0.27648  0.79768  0.31555  1.0000
  H   H44       1.0  0.72352  0.29768  0.68445  1.0000
  H   H45       1.0  0.42257  0.44420  0.32518  1.0000
  H   H46       1.0  0.57743  0.94420  0.67482  1.0000
  H   H47       1.0  0.57981  0.53048  0.41227  1.0000
  H   H48       1.0  0.42020  0.03049  0.58773  1.0000
  H   H49       1.0  0.46967  0.59600  0.29487  1.0000
  H   H50       1.0  0.53033  0.09600  0.70513  1.0000
  H   H51       1.0  0.14604  0.50408  0.54365  1.0000
  H   H52       1.0  0.85396  0.00407  0.45634  1.0000
  H   H53       1.0  0.38467  0.48056  0.56511  1.0000
  H   H54       1.0  0.61532  0.98056  0.43489  1.0000
  H   H55       1.0  0.24830  0.39027  0.47289  1.0000
  H   H56       1.0  0.75170  0.89027  0.52711  1.0000
  C   C1        1.0  0.65436  0.81227  0.06160  1.0000
  C   C2        1.0  0.34565  0.31227  0.93840  1.0000
  C   C3        1.0  0.83404  0.89177  0.06965  1.0000
  C   C4        1.0  0.16596  0.39177  0.93035  1.0000
  C   C5        1.0  0.84160  0.93700  0.18610  1.0000
  C   C6        1.0  0.15840  0.43700  0.81390  1.0000
  C   C7        1.0  0.64451  0.97010  0.19845  1.0000
  C   C8        1.0  0.35549  0.47009  0.80154  1.0000
  C   C9        1.0  0.52418  0.88810  0.12083  1.0000
  C   C10       1.0  0.47582  0.38810  0.87917  1.0000
  C   C11       1.0  0.68807  0.68714  0.11401  1.0000
  C   C12       1.0  0.31193  0.18713  0.88599  1.0000
  C   C13       1.0  0.00533  0.82233  0.05096  1.0000
  C   C14       1.0  0.99467  0.32233  0.94904  1.0000
  C   C15       1.0  0.80762  0.99935  0.99293  1.0000
  C   C16       1.0  0.19238  0.49935  0.00708  1.0000
  C   C17       1.0  0.57853  0.78851  0.94602  1.0000
  C   C18       1.0  0.42149  0.28851  0.05398  1.0000
  C   C19       1.0  0.98563  0.03159  0.21740  1.0000
  C   C20       1.0  0.01435  0.53159  0.78260  1.0000
  C   C21       1.0  0.32078  0.70489  0.46776  1.0000
  C   C22       1.0  0.67922  0.20489  0.53224  1.0000
  C   C23       1.0  0.29430  0.57379  0.41816  1.0000
  C   C24       1.0  0.70569  0.07379  0.58184  1.0000
  C   C25       1.0  0.11140  0.59120  0.34500  1.0000
  C   C26       1.0  0.88860  0.09119  0.65500  1.0000
  C   C27       1.0  0.99572  0.67593  0.40587  1.0000
  C   C28       1.0  0.00428  0.17592  0.59413  1.0000
  C   C29       1.0  0.12851  0.73495  0.49430  1.0000
  C   C30       1.0  0.87148  0.23494  0.50570  1.0000
  C   C31       1.0  0.37384  0.79769  0.38765  1.0000
  C   C32       1.0  0.62616  0.29768  0.61235  1.0000
  C   C33       1.0  0.45092  0.53413  0.35967  1.0000
  C   C34       1.0  0.54908  0.03413  0.64034  1.0000
  C   C35       1.0  0.26573  0.48232  0.50474  1.0000
  C   C36       1.0  0.73426  0.98232  0.49526  1.0000
  C   C37       1.0  0.47057  0.70401  0.56165  1.0000
  C   C38       1.0  0.52942  0.20400  0.43835  1.0000
  C   C39       1.0  0.01954  0.47379  0.30544  1.0000
  C   C40       1.0  0.98045  0.97378  0.69457  1.0000
  O   O1        1.0  0.67404  0.72276  0.89310  1.0000
  O   O2        1.0  0.32596  0.22276  0.10690  1.0000
  O   O3        1.0  0.42277  0.83381  0.91215  1.0000
  O   O4        1.0  0.57723  0.33381  0.08784  1.0000
  O   O5        1.0  0.14989  0.00017  0.24032  1.0000
  O   O6        1.0  0.85011  0.50018  0.75968  1.0000
  O   O7        1.0  0.94583  0.14641  0.22058  1.0000
  O   O8        1.0  0.05418  0.64641  0.77943  1.0000
  O   O9        1.0  0.43380  0.71619  0.65736  1.0000
  O   O10       1.0  0.56619  0.21619  0.34264  1.0000
  O   O11       1.0  0.63553  0.68994  0.54759  1.0000
  O   O12       1.0  0.36447  0.18994  0.45241  1.0000
  O   O13       1.0  0.84927  0.46330  0.31266  1.0000
  O   O14       1.0  0.15073  0.96329  0.68734  1.0000
  O   O15       1.0  0.10869  0.39331  0.26240  1.0000
  O   O16       1.0  0.89132  0.89332  0.73761  1.0000
