data_image0
_chemical_formula_structural       Ag2P2H40C42O6
_chemical_formula_sum              "Ag2 P2 H40 C42 O6"
_cell_length_a       7.82289
_cell_length_b       10.9958
_cell_length_c       10.9956
_cell_angle_alpha    84.8348
_cell_angle_beta     87.5998
_cell_angle_gamma    87.5995

_space_group_name_H-M_alt    "P 1"
_space_group_IT_number       1

loop_
  _space_group_symop_operation_xyz
  'x, y, z'

loop_
  _atom_site_type_symbol
  _atom_site_label
  _atom_site_symmetry_multiplicity
  _atom_site_fract_x
  _atom_site_fract_y
  _atom_site_fract_z
  _atom_site_occupancy
  Ag  Ag1       1.0  0.42243  0.84489  0.62698  1.0000
  Ag  Ag2       1.0  0.92242  0.62699  0.84489  1.0000
  P   P1        1.0  0.53318  0.03721  0.61379  1.0000
  P   P2        1.0  0.03318  0.61379  0.03721  1.0000
  H   H1        1.0  0.51579  0.42008  0.72644  1.0000
  H   H2        1.0  0.01579  0.72645  0.42007  1.0000
  H   H3        1.0  0.71735  0.45224  0.65135  1.0000
  H   H4        1.0  0.21734  0.65136  0.45224  1.0000
  H   H5        1.0  0.56308  0.53440  0.95613  1.0000
  H   H6        1.0  0.06308  0.95614  0.53440  1.0000
  H   H7        1.0  0.69246  0.41016  0.02235  1.0000
  H   H8        1.0  0.19246  0.02236  0.41016  1.0000
  H   H9        1.0  0.50678  0.38002  0.94066  1.0000
  H   H10       1.0  0.00677  0.94066  0.38001  1.0000
  H   H11       1.0  0.53405  0.95516  0.37213  1.0000
  H   H12       1.0  0.03405  0.37213  0.95516  1.0000
  H   H13       1.0  0.69386  0.01646  0.17723  1.0000
  H   H14       1.0  0.19386  0.17723  0.01646  1.0000
  H   H15       1.0  0.91197  0.17688  0.17130  1.0000
  H   H16       1.0  0.41197  0.17131  0.17688  1.0000
  H   H17       1.0  0.97645  0.26932  0.36106  1.0000
  H   H18       1.0  0.47647  0.36106  0.26931  1.0000
  H   H19       1.0  0.82033  0.20629  0.55614  1.0000
  H   H20       1.0  0.32035  0.55614  0.20628  1.0000
  H   H21       1.0  0.50871  0.29503  0.49769  1.0000
  H   H22       1.0  0.00873  0.49768  0.29504  1.0000
  H   H23       1.0  0.29074  0.46152  0.52131  1.0000
  H   H24       1.0  0.79075  0.52130  0.46153  1.0000
  H   H25       1.0  0.03289  0.42698  0.65584  1.0000
  H   H26       1.0  0.53290  0.65583  0.42698  1.0000
  H   H27       1.0  0.99096  0.22094  0.76831  1.0000
  H   H28       1.0  0.49098  0.76831  0.22093  1.0000
  H   H29       1.0  0.20893  0.05304  0.74480  1.0000
  H   H30       1.0  0.70897  0.74479  0.05304  1.0000
  H   H31       1.0  0.54196  0.20640  0.81386  1.0000
  H   H32       1.0  0.04195  0.81386  0.20640  1.0000
  H   H33       1.0  0.72372  0.19979  0.99361  1.0000
  H   H34       1.0  0.22371  0.99361  0.19979  1.0000
  H   H35       1.0  0.95830  0.03930  0.02244  1.0000
  H   H36       1.0  0.45830  0.02243  0.03930  1.0000
  H   H37       1.0  0.01271  0.88915  0.86664  1.0000
  H   H38       1.0  0.51271  0.86663  0.88915  1.0000
  H   H39       1.0  0.82755  0.89233  0.69150  1.0000
  H   H40       1.0  0.32755  0.69149  0.89233  1.0000
  C   C1        1.0  0.57887  0.60983  0.71112  1.0000
  C   C2        1.0  0.07887  0.71112  0.60982  1.0000
  C   C3        1.0  0.63143  0.47361  0.72885  1.0000
  C   C4        1.0  0.13143  0.72885  0.47361  1.0000
  C   C5        1.0  0.61406  0.44129  0.94440  1.0000
  C   C6        1.0  0.11406  0.94440  0.44129  1.0000
  C   C7        1.0  0.66282  0.07958  0.47586  1.0000
  C   C8        1.0  0.16283  0.47586  0.07958  1.0000
  C   C9        1.0  0.62923  0.02546  0.36895  1.0000
  C   C10       1.0  0.12923  0.36895  0.02545  1.0000
  C   C11       1.0  0.71858  0.06030  0.25961  1.0000
  C   C12       1.0  0.21858  0.25961  0.06029  1.0000
  C   C13       1.0  0.84144  0.14937  0.25627  1.0000
  C   C14       1.0  0.34145  0.25627  0.14937  1.0000
  C   C15       1.0  0.87777  0.20189  0.36298  1.0000
  C   C16       1.0  0.37779  0.36298  0.20188  1.0000
  C   C17       1.0  0.78952  0.16672  0.47263  1.0000
  C   C18       1.0  0.28953  0.47263  0.16671  1.0000
  C   C19       1.0  0.37502  0.16329  0.62131  1.0000
  C   C20       1.0  0.87504  0.62130  0.16330  1.0000
  C   C21       1.0  0.39520  0.27803  0.55672  1.0000
  C   C22       1.0  0.89522  0.55671  0.27804  1.0000
  C   C23       1.0  0.27104  0.37157  0.56887  1.0000
  C   C24       1.0  0.77106  0.56886  0.37158  1.0000
  C   C25       1.0  0.12610  0.35177  0.64549  1.0000
  C   C26       1.0  0.62611  0.64549  0.35178  1.0000
  C   C27       1.0  0.10445  0.23714  0.70906  1.0000
  C   C28       1.0  0.60447  0.70905  0.23714  1.0000
  C   C29       1.0  0.22746  0.14305  0.69659  1.0000
  C   C30       1.0  0.72748  0.69658  0.14305  1.0000
  C   C31       1.0  0.67346  0.05083  0.73967  1.0000
  C   C32       1.0  0.17346  0.73967  0.05083  1.0000
  C   C33       1.0  0.64505  0.13704  0.82543  1.0000
  C   C34       1.0  0.14504  0.82544  0.13704  1.0000
  C   C35       1.0  0.74739  0.13276  0.92703  1.0000
  C   C36       1.0  0.24738  0.92703  0.13275  1.0000
  C   C37       1.0  0.87882  0.04360  0.94301  1.0000
  C   C38       1.0  0.37882  0.94300  0.04360  1.0000
  C   C39       1.0  0.90959  0.95866  0.85645  1.0000
  C   C40       1.0  0.40960  0.85645  0.95866  1.0000
  C   C41       1.0  0.80682  0.96176  0.75591  1.0000
  C   C42       1.0  0.30682  0.75590  0.96176  1.0000
  O   O1        1.0  0.47333  0.63862  0.62719  1.0000
  O   O2        1.0  0.97335  0.62719  0.63862  1.0000
  O   O3        1.0  0.63983  0.68407  0.77792  1.0000
  O   O4        1.0  0.13982  0.77793  0.68407  1.0000
  O   O5        1.0  0.72282  0.43817  0.83655  1.0000
  O   O6        1.0  0.22281  0.83656  0.43817  1.0000
