data_image0
_chemical_formula_structural       Na8Zn8P8H16C16O48
_chemical_formula_sum              "Na8 Zn8 P8 H16 C16 O48"
_cell_length_a       9.68088
_cell_length_b       10.1972
_cell_length_c       10.813
_cell_angle_alpha    90
_cell_angle_beta     90
_cell_angle_gamma    90

_space_group_name_H-M_alt    "P 1"
_space_group_IT_number       1

loop_
  _space_group_symop_operation_xyz
  'x, y, z'

loop_
  _atom_site_type_symbol
  _atom_site_label
  _atom_site_symmetry_multiplicity
  _atom_site_fract_x
  _atom_site_fract_y
  _atom_site_fract_z
  _atom_site_occupancy
  Na  Na1       1.0  0.08447  0.62360  0.42250  1.0000
  Na  Na2       1.0  0.91553  0.87640  0.92250  1.0000
  Na  Na3       1.0  0.58447  0.37640  0.07750  1.0000
  Na  Na4       1.0  0.41553  0.12360  0.57750  1.0000
  Na  Na5       1.0  0.91553  0.37640  0.57750  1.0000
  Na  Na6       1.0  0.08447  0.12360  0.07750  1.0000
  Na  Na7       1.0  0.41553  0.62360  0.92250  1.0000
  Na  Na8       1.0  0.58447  0.87640  0.42250  1.0000
  Zn  Zn1       1.0  0.91606  0.82214  0.60578  1.0000
  Zn  Zn2       1.0  0.08394  0.67786  0.10578  1.0000
  Zn  Zn3       1.0  0.41606  0.17786  0.89422  1.0000
  Zn  Zn4       1.0  0.58394  0.32214  0.39422  1.0000
  Zn  Zn5       1.0  0.08394  0.17786  0.39422  1.0000
  Zn  Zn6       1.0  0.91606  0.32214  0.89422  1.0000
  Zn  Zn7       1.0  0.58394  0.82214  0.10578  1.0000
  Zn  Zn8       1.0  0.41606  0.67786  0.60578  1.0000
  P   P1        1.0  0.72092  0.59609  0.46175  1.0000
  P   P2        1.0  0.27908  0.90391  0.96175  1.0000
  P   P3        1.0  0.22092  0.40391  0.03825  1.0000
  P   P4        1.0  0.77908  0.09609  0.53825  1.0000
  P   P5        1.0  0.27908  0.40391  0.53825  1.0000
  P   P6        1.0  0.72092  0.09609  0.03825  1.0000
  P   P7        1.0  0.77908  0.59609  0.96175  1.0000
  P   P8        1.0  0.22092  0.90391  0.46175  1.0000
  H   H1        1.0  0.82363  0.78452  0.25026  1.0000
  H   H2        1.0  0.17637  0.71548  0.75026  1.0000
  H   H3        1.0  0.32363  0.21548  0.24974  1.0000
  H   H4        1.0  0.67637  0.28452  0.74974  1.0000
  H   H5        1.0  0.17637  0.21548  0.74974  1.0000
  H   H6        1.0  0.82363  0.28452  0.24974  1.0000
  H   H7        1.0  0.67637  0.78452  0.75026  1.0000
  H   H8        1.0  0.32363  0.71548  0.25026  1.0000
  H   H9        1.0  0.77776  0.56526  0.24249  1.0000
  H   H10       1.0  0.22224  0.93474  0.74249  1.0000
  H   H11       1.0  0.27776  0.43474  0.25751  1.0000
  H   H12       1.0  0.72224  0.06526  0.75751  1.0000
  H   H13       1.0  0.22224  0.43475  0.75751  1.0000
  H   H14       1.0  0.77776  0.06526  0.25751  1.0000
  H   H15       1.0  0.72224  0.56526  0.74249  1.0000
  H   H16       1.0  0.27776  0.93474  0.24249  1.0000
  C   C1        1.0  0.70335  0.62724  0.29266  1.0000
  C   C2        1.0  0.29665  0.87276  0.79266  1.0000
  C   C3        1.0  0.20336  0.37276  0.20734  1.0000
  C   C4        1.0  0.79664  0.12724  0.70734  1.0000
  C   C5        1.0  0.29664  0.37276  0.70734  1.0000
  C   C6        1.0  0.70336  0.12724  0.20734  1.0000
  C   C7        1.0  0.79665  0.62724  0.79266  1.0000
  C   C8        1.0  0.20335  0.87276  0.29266  1.0000
  C   C9        1.0  0.55534  0.59208  0.26015  1.0000
  C   C10       1.0  0.44466  0.90792  0.76015  1.0000
  C   C11       1.0  0.05534  0.40791  0.23985  1.0000
  C   C12       1.0  0.94466  0.09208  0.73985  1.0000
  C   C13       1.0  0.44466  0.40791  0.73985  1.0000
  C   C14       1.0  0.55534  0.09209  0.23985  1.0000
  C   C15       1.0  0.94466  0.59208  0.76015  1.0000
  C   C16       1.0  0.05534  0.90792  0.26015  1.0000
  O   O1        1.0  0.86286  0.64699  0.50476  1.0000
  O   O2        1.0  0.13714  0.85301  0.00476  1.0000
  O   O3        1.0  0.36286  0.35301  0.99524  1.0000
  O   O4        1.0  0.63714  0.14699  0.49524  1.0000
  O   O5        1.0  0.13714  0.35301  0.49524  1.0000
  O   O6        1.0  0.86286  0.14699  0.99524  1.0000
  O   O7        1.0  0.63714  0.64699  0.00476  1.0000
  O   O8        1.0  0.36286  0.85301  0.50476  1.0000
  O   O9        1.0  0.71403  0.44624  0.47936  1.0000
  O   O10       1.0  0.28597  0.05376  0.97936  1.0000
  O   O11       1.0  0.21403  0.55377  0.02064  1.0000
  O   O12       1.0  0.78597  0.94623  0.52064  1.0000
  O   O13       1.0  0.28597  0.55377  0.52064  1.0000
  O   O14       1.0  0.71403  0.94623  0.02064  1.0000
  O   O15       1.0  0.78597  0.44624  0.97936  1.0000
  O   O16       1.0  0.21403  0.05376  0.47936  1.0000
  O   O17       1.0  0.60062  0.67312  0.51728  1.0000
  O   O18       1.0  0.39938  0.82688  0.01728  1.0000
  O   O19       1.0  0.10062  0.32688  0.98273  1.0000
  O   O20       1.0  0.89938  0.17312  0.48272  1.0000
  O   O21       1.0  0.39938  0.32688  0.48272  1.0000
  O   O22       1.0  0.60062  0.17312  0.98273  1.0000
  O   O23       1.0  0.89938  0.67312  0.01728  1.0000
  O   O24       1.0  0.10062  0.82688  0.51728  1.0000
  O   O25       1.0  0.72247  0.76352  0.26469  1.0000
  O   O26       1.0  0.27753  0.73648  0.76469  1.0000
  O   O27       1.0  0.22247  0.23648  0.23531  1.0000
  O   O28       1.0  0.77753  0.26352  0.73531  1.0000
  O   O29       1.0  0.27753  0.23648  0.73531  1.0000
  O   O30       1.0  0.72247  0.26352  0.23531  1.0000
  O   O31       1.0  0.77753  0.76352  0.76469  1.0000
  O   O32       1.0  0.22247  0.73648  0.26469  1.0000
  O   O33       1.0  0.51436  0.47439  0.26827  1.0000
  O   O34       1.0  0.48564  0.02561  0.76827  1.0000
  O   O35       1.0  0.01436  0.52561  0.23173  1.0000
  O   O36       1.0  0.98564  0.97438  0.73173  1.0000
  O   O37       1.0  0.48564  0.52561  0.73173  1.0000
  O   O38       1.0  0.51436  0.97439  0.23173  1.0000
  O   O39       1.0  0.98564  0.47439  0.76827  1.0000
  O   O40       1.0  0.01436  0.02561  0.26827  1.0000
  O   O41       1.0  0.47811  0.68716  0.22713  1.0000
  O   O42       1.0  0.52189  0.81284  0.72713  1.0000
  O   O43       1.0  0.97811  0.31284  0.27287  1.0000
  O   O44       1.0  0.02189  0.18715  0.77286  1.0000
  O   O45       1.0  0.52189  0.31285  0.77287  1.0000
  O   O46       1.0  0.47811  0.18716  0.27286  1.0000
  O   O47       1.0  0.02189  0.68716  0.72713  1.0000
  O   O48       1.0  0.97811  0.81284  0.22713  1.0000
