data_image0
_chemical_formula_structural       Co4H32C44N16O12
_chemical_formula_sum              "Co4 H32 C44 N16 O12"
_cell_length_a       7.72698
_cell_length_b       9.6514
_cell_length_c       14.8657
_cell_angle_alpha    90.7751
_cell_angle_beta     90.0002
_cell_angle_gamma    90.0004

_space_group_name_H-M_alt    "P 1"
_space_group_IT_number       1

loop_
  _space_group_symop_operation_xyz
  'x, y, z'

loop_
  _atom_site_type_symbol
  _atom_site_label
  _atom_site_symmetry_multiplicity
  _atom_site_fract_x
  _atom_site_fract_y
  _atom_site_fract_z
  _atom_site_occupancy
  Co  Co1       1.0  0.98171  0.42994  0.90592  1.0000
  Co  Co2       1.0  0.48172  0.57005  0.59409  1.0000
  Co  Co3       1.0  0.01827  0.57006  0.09409  1.0000
  Co  Co4       1.0  0.51829  0.42994  0.40591  1.0000
  H   H1        1.0  0.80656  0.71301  0.53552  1.0000
  H   H2        1.0  0.30656  0.28698  0.96448  1.0000
  H   H3        1.0  0.19344  0.28698  0.46448  1.0000
  H   H4        1.0  0.69343  0.71301  0.03552  1.0000
  H   H5        1.0  0.05376  0.91083  0.70352  1.0000
  H   H6        1.0  0.55375  0.08916  0.79648  1.0000
  H   H7        1.0  0.94625  0.08917  0.29648  1.0000
  H   H8        1.0  0.44625  0.91084  0.20352  1.0000
  H   H9        1.0  0.14479  0.16011  0.70108  1.0000
  H   H10       1.0  0.64478  0.83989  0.79892  1.0000
  H   H11       1.0  0.85522  0.83989  0.29891  1.0000
  H   H12       1.0  0.35521  0.16011  0.20108  1.0000
  H   H13       1.0  0.73159  0.14953  0.58772  1.0000
  H   H14       1.0  0.23159  0.85047  0.91228  1.0000
  H   H15       1.0  0.26842  0.85046  0.41228  1.0000
  H   H16       1.0  0.76842  0.14954  0.08771  1.0000
  H   H17       1.0  0.42923  0.22653  0.64466  1.0000
  H   H18       1.0  0.92923  0.77347  0.85534  1.0000
  H   H19       1.0  0.57078  0.77347  0.35534  1.0000
  H   H20       1.0  0.07077  0.22653  0.14466  1.0000
  H   H21       1.0  0.01761  0.63433  0.69460  1.0000
  H   H22       1.0  0.51761  0.36567  0.80541  1.0000
  H   H23       1.0  0.98239  0.36568  0.30540  1.0000
  H   H24       1.0  0.48239  0.63433  0.19459  1.0000
  H   H25       1.0  0.17205  0.69353  0.77598  1.0000
  H   H26       1.0  0.67203  0.30646  0.72403  1.0000
  H   H27       1.0  0.82796  0.30648  0.22403  1.0000
  H   H28       1.0  0.32798  0.69354  0.27597  1.0000
  H   H29       1.0  0.92232  0.95307  0.53925  1.0000
  H   H30       1.0  0.42232  0.04693  0.96075  1.0000
  H   H31       1.0  0.07768  0.04692  0.46075  1.0000
  H   H32       1.0  0.57768  0.95307  0.03924  1.0000
  C   C1        1.0  0.22139  0.48683  0.72384  1.0000
  C   C2        1.0  0.72138  0.51318  0.77616  1.0000
  C   C3        1.0  0.77861  0.51317  0.27616  1.0000
  C   C4        1.0  0.27862  0.48683  0.22384  1.0000
  C   C5        1.0  0.46010  0.87295  0.61448  1.0000
  C   C6        1.0  0.96009  0.12705  0.88552  1.0000
  C   C7        1.0  0.53991  0.12705  0.38552  1.0000
  C   C8        1.0  0.03991  0.87295  0.11448  1.0000
  C   C9        1.0  0.72579  0.79891  0.55887  1.0000
  C   C10       1.0  0.22579  0.20108  0.94113  1.0000
  C   C11       1.0  0.27421  0.20108  0.44113  1.0000
  C   C12       1.0  0.77421  0.79891  0.05888  1.0000
  C   C13       1.0  0.51215  0.01475  0.61482  1.0000
  C   C14       1.0  0.01214  0.98524  0.88518  1.0000
  C   C15       1.0  0.48786  0.98525  0.38518  1.0000
  C   C16       1.0  0.98786  0.01476  0.11482  1.0000
  C   C17       1.0  0.29298  0.83783  0.64700  1.0000
  C   C18       1.0  0.79297  0.16217  0.85300  1.0000
  C   C19       1.0  0.70703  0.16217  0.35300  1.0000
  C   C20       1.0  0.20703  0.83784  0.14700  1.0000
  C   C21       1.0  0.18102  0.93901  0.67823  1.0000
  C   C22       1.0  0.68101  0.06099  0.82178  1.0000
  C   C23       1.0  0.81899  0.06100  0.32177  1.0000
  C   C24       1.0  0.31899  0.93901  0.17822  1.0000
  C   C25       1.0  0.23281  0.07952  0.67685  1.0000
  C   C26       1.0  0.73280  0.92047  0.82315  1.0000
  C   C27       1.0  0.76720  0.92048  0.32315  1.0000
  C   C28       1.0  0.26719  0.07953  0.17685  1.0000
  C   C29       1.0  0.68372  0.04326  0.58686  1.0000
  C   C30       1.0  0.18371  0.95673  0.91314  1.0000
  C   C31       1.0  0.31629  0.95673  0.41314  1.0000
  C   C32       1.0  0.81629  0.04327  0.08686  1.0000
  C   C33       1.0  0.39386  0.11728  0.64538  1.0000
  C   C34       1.0  0.89385  0.88272  0.85462  1.0000
  C   C35       1.0  0.60615  0.88272  0.35461  1.0000
  C   C36       1.0  0.10615  0.11728  0.14538  1.0000
  C   C37       1.0  0.15542  0.63509  0.71263  1.0000
  C   C38       1.0  0.65541  0.36491  0.78737  1.0000
  C   C39       1.0  0.84459  0.36491  0.28737  1.0000
  C   C40       1.0  0.34459  0.63510  0.21262  1.0000
  C   C41       1.0  0.78931  0.93553  0.55981  1.0000
  C   C42       1.0  0.28931  0.06447  0.94019  1.0000
  C   C43       1.0  0.21069  0.06446  0.44019  1.0000
  C   C44       1.0  0.71069  0.93553  0.05981  1.0000
  N   N1        1.0  0.84720  0.45275  0.02780  1.0000
  N   N2        1.0  0.34721  0.54724  0.47220  1.0000
  N   N3        1.0  0.15277  0.54724  0.97220  1.0000
  N   N4        1.0  0.65279  0.45275  0.52780  1.0000
  N   N5        1.0  0.56644  0.76798  0.58576  1.0000
  N   N6        1.0  0.06644  0.23201  0.91425  1.0000
  N   N7        1.0  0.43356  0.23202  0.41425  1.0000
  N   N8        1.0  0.93355  0.76799  0.08576  1.0000
  N   N9        1.0  0.70625  0.40819  0.04819  1.0000
  N   N10       1.0  0.20626  0.59181  0.45180  1.0000
  N   N11       1.0  0.29374  0.59181  0.95181  1.0000
  N   N12       1.0  0.79374  0.40819  0.54820  1.0000
  N   N13       1.0  0.57173  0.36217  0.06697  1.0000
  N   N14       1.0  0.07175  0.63783  0.43303  1.0000
  N   N15       1.0  0.42825  0.63782  0.93304  1.0000
  N   N16       1.0  0.92826  0.36218  0.56698  1.0000
  O   O1        1.0  0.15602  0.41218  0.78334  1.0000
  O   O2        1.0  0.65603  0.58782  0.71667  1.0000
  O   O3        1.0  0.84397  0.58783  0.21666  1.0000
  O   O4        1.0  0.34396  0.41219  0.28333  1.0000
  O   O5        1.0  0.34349  0.44610  0.67163  1.0000
  O   O6        1.0  0.84351  0.55390  0.82838  1.0000
  O   O7        1.0  0.65650  0.55390  0.32837  1.0000
  O   O8        1.0  0.15649  0.44611  0.17162  1.0000
  O   O9        1.0  0.25652  0.69873  0.64268  1.0000
  O   O10       1.0  0.75652  0.30127  0.85732  1.0000
  O   O11       1.0  0.74348  0.30128  0.35732  1.0000
  O   O12       1.0  0.24347  0.69873  0.14268  1.0000
