data_image0
_chemical_formula_structural       Zn2P4H12C12O16
_chemical_formula_sum              "Zn2 P4 H12 C12 O16"
_cell_length_a       9.21595
_cell_length_b       10.5069
_cell_length_c       10.5069
_cell_angle_alpha    83.8578
_cell_angle_beta     79.1289
_cell_angle_gamma    79.1287

_space_group_name_H-M_alt    "P 1"
_space_group_IT_number       1

loop_
  _space_group_symop_operation_xyz
  'x, y, z'

loop_
  _atom_site_type_symbol
  _atom_site_label
  _atom_site_symmetry_multiplicity
  _atom_site_fract_x
  _atom_site_fract_y
  _atom_site_fract_z
  _atom_site_occupancy
  Zn  Zn1       1.0  0.25000  0.02625  0.97375  1.0000
  Zn  Zn2       1.0  0.75000  0.97375  0.02625  1.0000
  P   P1        1.0  0.01242  0.04971  0.79111  1.0000
  P   P2        1.0  0.48758  0.20889  0.95029  1.0000
  P   P3        1.0  0.98758  0.95029  0.20889  1.0000
  P   P4        1.0  0.51242  0.79111  0.04971  1.0000
  H   H1        1.0  0.99404  0.26186  0.76967  1.0000
  H   H2        1.0  0.50596  0.23033  0.73814  1.0000
  H   H3        1.0  0.00596  0.73814  0.23033  1.0000
  H   H4        1.0  0.49404  0.76967  0.26186  1.0000
  H   H5        1.0  0.27482  0.96401  0.66247  1.0000
  H   H6        1.0  0.22517  0.33753  0.03599  1.0000
  H   H7        1.0  0.72518  0.03599  0.33753  1.0000
  H   H8        1.0  0.77482  0.66247  0.96401  1.0000
  H   H9        1.0  0.77125  0.08878  0.65158  1.0000
  H   H10       1.0  0.72875  0.34842  0.91122  1.0000
  H   H11       1.0  0.22875  0.91122  0.34842  1.0000
  H   H12       1.0  0.27125  0.65158  0.08878  1.0000
  C   C1        1.0  0.14243  0.97160  0.54042  1.0000
  C   C2        1.0  0.35757  0.45958  0.02840  1.0000
  C   C3        1.0  0.85757  0.02840  0.45958  1.0000
  C   C4        1.0  0.64243  0.54042  0.97160  1.0000
  C   C5        1.0  0.01147  0.02304  0.62616  1.0000
  C   C6        1.0  0.48853  0.37384  0.97696  1.0000
  C   C7        1.0  0.98853  0.97696  0.37384  1.0000
  C   C8        1.0  0.51147  0.62616  0.02304  1.0000
  C   C9        1.0  0.87204  0.05033  0.58498  1.0000
  C   C10       1.0  0.62796  0.41502  0.94967  1.0000
  C   C11       1.0  0.12796  0.94967  0.41502  1.0000
  C   C12       1.0  0.37204  0.58498  0.05033  1.0000
  O   O1        1.0  0.93466  0.19813  0.81559  1.0000
  O   O2        1.0  0.56534  0.18441  0.80187  1.0000
  O   O3        1.0  0.06534  0.80187  0.18442  1.0000
  O   O4        1.0  0.43466  0.81559  0.19813  1.0000
  O   O5        1.0  0.17755  0.02952  0.80742  1.0000
  O   O6        1.0  0.32245  0.19258  0.97048  1.0000
  O   O7        1.0  0.82245  0.97048  0.19258  1.0000
  O   O8        1.0  0.67755  0.80742  0.02952  1.0000
  O   O9        1.0  0.91444  0.96719  0.88229  1.0000
  O   O10       1.0  0.58556  0.11771  0.03281  1.0000
  O   O11       1.0  0.08556  0.03281  0.11771  1.0000
  O   O12       1.0  0.41444  0.88229  0.96719  1.0000
  O   O13       1.0  0.28194  0.94131  0.57205  1.0000
  O   O14       1.0  0.21806  0.42795  0.05869  1.0000
  O   O15       1.0  0.71806  0.05869  0.42795  1.0000
  O   O16       1.0  0.78194  0.57205  0.94131  1.0000
