data_image0
_chemical_formula_structural       Cd4H60C28S8N20
_chemical_formula_sum              "Cd4 H60 C28 S8 N20"
_cell_length_a       7.66026
_cell_length_b       11.7442
_cell_length_c       14.4379
_cell_angle_alpha    90
_cell_angle_beta     90.0001
_cell_angle_gamma    90

_space_group_name_H-M_alt    "P 1"
_space_group_IT_number       1

loop_
  _space_group_symop_operation_xyz
  'x, y, z'

loop_
  _atom_site_type_symbol
  _atom_site_label
  _atom_site_symmetry_multiplicity
  _atom_site_fract_x
  _atom_site_fract_y
  _atom_site_fract_z
  _atom_site_occupancy
  Cd  Cd1       1.0  0.40584  0.55918  0.24311  1.0000
  Cd  Cd2       1.0  0.09416  0.44082  0.74311  1.0000
  Cd  Cd3       1.0  0.90584  0.94082  0.75689  1.0000
  Cd  Cd4       1.0  0.59416  0.05918  0.25689  1.0000
  H   H1        1.0  0.61663  0.76214  0.30490  1.0000
  H   H2        1.0  0.88337  0.23786  0.80490  1.0000
  H   H3        1.0  0.11663  0.73786  0.69510  1.0000
  H   H4        1.0  0.38337  0.26214  0.19510  1.0000
  H   H5        1.0  0.65045  0.65660  0.37812  1.0000
  H   H6        1.0  0.84955  0.34340  0.87812  1.0000
  H   H7        1.0  0.15045  0.84340  0.62188  1.0000
  H   H8        1.0  0.34955  0.15660  0.12188  1.0000
  H   H9        1.0  0.83657  0.55985  0.27777  1.0000
  H   H10       1.0  0.66342  0.44015  0.77777  1.0000
  H   H11       1.0  0.33658  0.94015  0.72223  1.0000
  H   H12       1.0  0.16343  0.05985  0.22223  1.0000
  H   H13       1.0  0.90667  0.70421  0.27255  1.0000
  H   H14       1.0  0.59333  0.29579  0.77255  1.0000
  H   H15       1.0  0.40667  0.79579  0.72745  1.0000
  H   H16       1.0  0.09333  0.20421  0.22745  1.0000
  H   H17       1.0  0.70580  0.73323  0.13533  1.0000
  H   H18       1.0  0.79420  0.26677  0.63533  1.0000
  H   H19       1.0  0.20580  0.76677  0.86467  1.0000
  H   H20       1.0  0.29420  0.23323  0.36467  1.0000
  H   H21       1.0  0.88252  0.63886  0.11492  1.0000
  H   H22       1.0  0.61748  0.36114  0.61492  1.0000
  H   H23       1.0  0.38252  0.86114  0.88508  1.0000
  H   H24       1.0  0.11748  0.13886  0.38508  1.0000
  H   H25       1.0  0.69299  0.48415  0.13166  1.0000
  H   H26       1.0  0.80701  0.51586  0.63166  1.0000
  H   H27       1.0  0.19299  0.01585  0.86834  1.0000
  H   H28       1.0  0.30701  0.98415  0.36834  1.0000
  H   H29       1.0  0.68923  0.58757  0.98473  1.0000
  H   H30       1.0  0.81077  0.41243  0.48473  1.0000
  H   H31       1.0  0.18923  0.91243  0.01527  1.0000
  H   H32       1.0  0.31077  0.08757  0.51527  1.0000
  H   H33       1.0  0.49909  0.65642  0.02693  1.0000
  H   H34       1.0  0.00091  0.34358  0.52694  1.0000
  H   H35       1.0  0.99909  0.84358  0.97307  1.0000
  H   H36       1.0  0.50092  0.15642  0.47306  1.0000
  H   H37       1.0  0.54635  0.40166  0.98623  1.0000
  H   H38       1.0  0.95365  0.59834  0.48623  1.0000
  H   H39       1.0  0.04635  0.09834  0.01377  1.0000
  H   H40       1.0  0.45365  0.90166  0.51377  1.0000
  H   H41       1.0  0.37234  0.45393  0.05429  1.0000
  H   H42       1.0  0.12766  0.54607  0.55429  1.0000
  H   H43       1.0  0.87234  0.04607  0.94571  1.0000
  H   H44       1.0  0.62766  0.95394  0.44571  1.0000
  H   H45       1.0  0.27303  0.57811  0.92481  1.0000
  H   H46       1.0  0.22697  0.42189  0.42481  1.0000
  H   H47       1.0  0.77303  0.92189  0.07519  1.0000
  H   H48       1.0  0.72697  0.07811  0.57519  1.0000
  H   H49       1.0  0.44476  0.52954  0.85413  1.0000
  H   H50       1.0  0.05524  0.47046  0.35413  1.0000
  H   H51       1.0  0.94476  0.97046  0.14587  1.0000
  H   H52       1.0  0.55524  0.02954  0.64587  1.0000
  H   H53       1.0  0.15879  0.39079  0.93155  1.0000
  H   H54       1.0  0.34121  0.60921  0.43155  1.0000
  H   H55       1.0  0.65879  0.10921  0.06845  1.0000
  H   H56       1.0  0.84121  0.89079  0.56845  1.0000
  H   H57       1.0  0.32239  0.33697  0.87326  1.0000
  H   H58       1.0  0.17761  0.66303  0.37326  1.0000
  H   H59       1.0  0.82239  0.16303  0.12674  1.0000
  H   H60       1.0  0.67761  0.83697  0.62674  1.0000
  C   C1        1.0  0.35184  0.82655  0.17616  1.0000
  C   C2        1.0  0.14815  0.17345  0.67616  1.0000
  C   C3        1.0  0.85184  0.67345  0.82384  1.0000
  C   C4        1.0  0.64816  0.32655  0.32384  1.0000
  C   C5        1.0  0.07559  0.40465  0.13443  1.0000
  C   C6        1.0  0.42441  0.59535  0.63443  1.0000
  C   C7        1.0  0.57559  0.09535  0.86557  1.0000
  C   C8        1.0  0.92441  0.90465  0.36557  1.0000
  C   C9        1.0  0.79721  0.64639  0.25753  1.0000
  C   C10       1.0  0.70279  0.35361  0.75753  1.0000
  C   C11       1.0  0.29721  0.85361  0.74247  1.0000
  C   C12       1.0  0.20279  0.14639  0.24247  1.0000
  C   C13       1.0  0.76000  0.64954  0.15404  1.0000
  C   C14       1.0  0.74000  0.35047  0.65404  1.0000
  C   C15       1.0  0.26000  0.85047  0.84596  1.0000
  C   C16       1.0  0.24000  0.14954  0.34596  1.0000
  C   C17       1.0  0.57485  0.57690  0.03043  1.0000
  C   C18       1.0  0.92515  0.42310  0.53043  1.0000
  C   C19       1.0  0.07485  0.92310  0.96957  1.0000
  C   C20       1.0  0.42515  0.07690  0.46957  1.0000
  C   C21       1.0  0.46377  0.47706  0.99864  1.0000
  C   C22       1.0  0.03623  0.52295  0.49864  1.0000
  C   C23       1.0  0.96377  0.02295  0.00136  1.0000
  C   C24       1.0  0.53623  0.97705  0.50136  1.0000
  C   C25       1.0  0.35902  0.50482  0.91177  1.0000
  C   C26       1.0  0.14097  0.49518  0.41177  1.0000
  C   C27       1.0  0.85902  0.99518  0.08823  1.0000
  C   C28       1.0  0.64098  0.00482  0.58824  1.0000
  S   S1        1.0  0.21740  0.72366  0.15071  1.0000
  S   S2        1.0  0.28260  0.27634  0.65071  1.0000
  S   S3        1.0  0.71740  0.77634  0.84929  1.0000
  S   S4        1.0  0.78260  0.22366  0.34929  1.0000
  S   S5        1.0  0.93072  0.35412  0.06286  1.0000
  S   S6        1.0  0.56928  0.64587  0.56286  1.0000
  S   S7        1.0  0.43072  0.14587  0.93714  1.0000
  S   S8        1.0  0.06928  0.85413  0.43714  1.0000
  N   N1        1.0  0.45195  0.90008  0.19434  1.0000
  N   N2        1.0  0.04804  0.09992  0.69434  1.0000
  N   N3        1.0  0.95196  0.59992  0.80566  1.0000
  N   N4        1.0  0.54804  0.40008  0.30566  1.0000
  N   N5        1.0  0.18291  0.43893  0.18674  1.0000
  N   N6        1.0  0.31709  0.56107  0.68674  1.0000
  N   N7        1.0  0.68291  0.06107  0.81326  1.0000
  N   N8        1.0  0.81709  0.93893  0.31326  1.0000
  N   N9        1.0  0.63805  0.67621  0.30949  1.0000
  N   N10       1.0  0.86195  0.32379  0.80949  1.0000
  N   N11       1.0  0.13805  0.82379  0.69051  1.0000
  N   N12       1.0  0.36195  0.17621  0.19051  1.0000
  N   N13       1.0  0.63173  0.56196  0.12717  1.0000
  N   N14       1.0  0.86827  0.43804  0.62717  1.0000
  N   N15       1.0  0.13173  0.93804  0.87283  1.0000
  N   N16       1.0  0.36827  0.06196  0.37283  1.0000
  N   N17       1.0  0.24839  0.40940  0.88069  1.0000
  N   N18       1.0  0.25161  0.59060  0.38069  1.0000
  N   N19       1.0  0.74839  0.09060  0.11931  1.0000
  N   N20       1.0  0.75161  0.90940  0.61931  1.0000
