data_image0
_chemical_formula_structural       Nd4H36C36N4O30
_chemical_formula_sum              "Nd4 H36 C36 N4 O30"
_cell_length_a       6.97491
_cell_length_b       7.58873
_cell_length_c       22.2902
_cell_angle_alpha    84.7756
_cell_angle_beta     88.2493
_cell_angle_gamma    75.3534

_space_group_name_H-M_alt    "P 1"
_space_group_IT_number       1

loop_
  _space_group_symop_operation_xyz
  'x, y, z'

loop_
  _atom_site_type_symbol
  _atom_site_label
  _atom_site_symmetry_multiplicity
  _atom_site_fract_x
  _atom_site_fract_y
  _atom_site_fract_z
  _atom_site_occupancy
  Nd  Nd1       1.0  0.40158  0.56758  0.20835  1.0000
  Nd  Nd2       1.0  0.59842  0.43242  0.79165  1.0000
  Nd  Nd3       1.0  0.84925  0.73502  0.29440  1.0000
  Nd  Nd4       1.0  0.15076  0.26498  0.70560  1.0000
  H   H1        1.0  0.02610  0.75414  0.14460  1.0000
  H   H2        1.0  0.97390  0.24586  0.85540  1.0000
  H   H3        1.0  0.19389  0.76072  0.09257  1.0000
  H   H4        1.0  0.80610  0.23928  0.90743  1.0000
  H   H5        1.0  0.83700  0.02356  0.38460  1.0000
  H   H6        1.0  0.16300  0.97644  0.61540  1.0000
  H   H7        1.0  0.80494  0.84076  0.42614  1.0000
  H   H8        1.0  0.19506  0.15924  0.57386  1.0000
  H   H9        1.0  0.73527  0.16053  0.30036  1.0000
  H   H10       1.0  0.26472  0.83947  0.69965  1.0000
  H   H11       1.0  0.64125  0.12710  0.23861  1.0000
  H   H12       1.0  0.35875  0.87290  0.76139  1.0000
  H   H13       1.0  0.66969  0.38562  0.00870  1.0000
  H   H14       1.0  0.33031  0.61438  0.99130  1.0000
  H   H15       1.0  0.82123  0.87505  0.94328  1.0000
  H   H16       1.0  0.17876  0.12494  0.05672  1.0000
  H   H17       1.0  0.75966  0.72239  0.04435  1.0000
  H   H18       1.0  0.24033  0.27761  0.95565  1.0000
  H   H19       1.0  0.79919  0.23410  0.49959  1.0000
  H   H20       1.0  0.20080  0.76591  0.50041  1.0000
  H   H21       1.0  0.55292  0.15332  0.57347  1.0000
  H   H22       1.0  0.44707  0.84670  0.42653  1.0000
  H   H23       1.0  0.09507  0.33432  0.45100  1.0000
  H   H24       1.0  0.90494  0.66569  0.54900  1.0000
  H   H25       1.0  0.96148  0.30614  0.13032  1.0000
  H   H26       1.0  0.03851  0.69386  0.86968  1.0000
  H   H27       1.0  0.94045  0.14737  0.19246  1.0000
  H   H28       1.0  0.05954  0.85263  0.80754  1.0000
  H   H29       1.0  0.17161  0.20646  0.17707  1.0000
  H   H30       1.0  0.82838  0.79354  0.82293  1.0000
  H   H31       1.0  0.18320  0.98627  0.36830  1.0000
  H   H32       1.0  0.81679  0.01373  0.63170  1.0000
  H   H33       1.0  0.15747  0.14591  0.30559  1.0000
  H   H34       1.0  0.84254  0.85409  0.69441  1.0000
  H   H35       1.0  0.39678  0.06156  0.33938  1.0000
  H   H36       1.0  0.60322  0.93843  0.66062  1.0000
  C   C1        1.0  0.57135  0.29889  0.12244  1.0000
  C   C2        1.0  0.42864  0.70110  0.87756  1.0000
  C   C3        1.0  0.64850  0.16759  0.07583  1.0000
  C   C4        1.0  0.35150  0.83240  0.92417  1.0000
  C   C5        1.0  0.68987  0.23839  0.01797  1.0000
  C   C6        1.0  0.31013  0.76161  0.98204  1.0000
  C   C7        1.0  0.77420  0.95421  0.98203  1.0000
  C   C8        1.0  0.22579  0.04579  0.01797  1.0000
  C   C9        1.0  0.73990  0.87003  0.03790  1.0000
  C   C10       1.0  0.26009  0.12996  0.96210  1.0000
  C   C11       1.0  0.67795  0.97729  0.08622  1.0000
  C   C12       1.0  0.32205  0.02271  0.91378  1.0000
  C   C13       1.0  0.64919  0.87898  0.14643  1.0000
  C   C14       1.0  0.35081  0.12101  0.85357  1.0000
  C   C15       1.0  0.72179  0.38139  0.38205  1.0000
  C   C16       1.0  0.27821  0.61863  0.61795  1.0000
  C   C17       1.0  0.57926  0.33424  0.42923  1.0000
  C   C18       1.0  0.42074  0.66576  0.57077  1.0000
  C   C19       1.0  0.64456  0.25742  0.48675  1.0000
  C   C20       1.0  0.35543  0.74259  0.51325  1.0000
  C   C21       1.0  0.50821  0.21117  0.52803  1.0000
  C   C22       1.0  0.49178  0.78884  0.47197  1.0000
  C   C23       1.0  0.25222  0.31237  0.46068  1.0000
  C   C24       1.0  0.74779  0.68764  0.53931  1.0000
  C   C25       1.0  0.37747  0.36456  0.41615  1.0000
  C   C26       1.0  0.62254  0.63544  0.58385  1.0000
  C   C27       1.0  0.29397  0.45245  0.35626  1.0000
  C   C28       1.0  0.70604  0.54754  0.64374  1.0000
  C   C29       1.0  0.94492  0.41610  0.21467  1.0000
  C   C30       1.0  0.05508  0.58390  0.78533  1.0000
  C   C31       1.0  0.01008  0.25777  0.17672  1.0000
  C   C32       1.0  0.98991  0.74223  0.82328  1.0000
  C   C33       1.0  0.30579  0.87162  0.28839  1.0000
  C   C34       1.0  0.69421  0.12837  0.71161  1.0000
  C   C35       1.0  0.26100  0.02606  0.32770  1.0000
  C   C36       1.0  0.73900  0.97394  0.67230  1.0000
  N   N1        1.0  0.75237  0.13552  0.97221  1.0000
  N   N2        1.0  0.24763  0.86447  0.02779  1.0000
  N   N3        1.0  0.31575  0.23466  0.51521  1.0000
  N   N4        1.0  0.68424  0.76535  0.48479  1.0000
  O   O1        1.0  0.56538  0.46657  0.10941  1.0000
  O   O2        1.0  0.43462  0.53342  0.89059  1.0000
  O   O3        1.0  0.50942  0.24106  0.17367  1.0000
  O   O4        1.0  0.49057  0.75893  0.82633  1.0000
  O   O5        1.0  0.79753  0.83913  0.18172  1.0000
  O   O6        1.0  0.20248  0.16087  0.81828  1.0000
  O   O7        1.0  0.48820  0.83402  0.15437  1.0000
  O   O8        1.0  0.51181  0.16598  0.84563  1.0000
  O   O9        1.0  0.71445  0.54862  0.36959  1.0000
  O   O10       1.0  0.28556  0.45137  0.63042  1.0000
  O   O11       1.0  0.83989  0.24698  0.35966  1.0000
  O   O12       1.0  0.16013  0.75301  0.64034  1.0000
  O   O13       1.0  0.40606  0.42225  0.31008  1.0000
  O   O14       1.0  0.59396  0.57773  0.68992  1.0000
  O   O15       1.0  0.11836  0.55035  0.35725  1.0000
  O   O16       1.0  0.88166  0.44966  0.64274  1.0000
  O   O17       1.0  0.76350  0.47504  0.23017  1.0000
  O   O18       1.0  0.23650  0.52497  0.76983  1.0000
  O   O19       1.0  0.07340  0.49403  0.23221  1.0000
  O   O20       1.0  0.92660  0.50596  0.76779  1.0000
  O   O21       1.0  0.16492  0.82581  0.26275  1.0000
  O   O22       1.0  0.83508  0.17419  0.73725  1.0000
  O   O23       1.0  0.48429  0.78233  0.27986  1.0000
  O   O24       1.0  0.51570  0.21766  0.72015  1.0000
  O   O25       1.0  0.15644  0.68645  0.12947  1.0000
  O   O26       1.0  0.84356  0.31355  0.87053  1.0000
  O   O27       1.0  0.85523  0.88879  0.38604  1.0000
  O   O28       1.0  0.14477  0.11121  0.61396  1.0000
  O   O29       1.0  0.71461  0.06649  0.27510  1.0000
  O   O30       1.0  0.28539  0.93351  0.72490  1.0000
