data_image0
_chemical_formula_structural       Sm2H44C42S6N6O16
_chemical_formula_sum              "Sm2 H44 C42 S6 N6 O16"
_cell_length_a       9.07282
_cell_length_b       11.7337
_cell_length_c       12.0583
_cell_angle_alpha    80.1786
_cell_angle_beta     74.1717
_cell_angle_gamma    84.4123

_space_group_name_H-M_alt    "P 1"
_space_group_IT_number       1

loop_
  _space_group_symop_operation_xyz
  'x, y, z'

loop_
  _atom_site_type_symbol
  _atom_site_label
  _atom_site_symmetry_multiplicity
  _atom_site_fract_x
  _atom_site_fract_y
  _atom_site_fract_z
  _atom_site_occupancy
  Sm  Sm1       1.0  0.23308  0.51427  0.49163  1.0000
  Sm  Sm2       1.0  0.76692  0.48573  0.50838  1.0000
  H   H1        1.0  0.60721  0.36806  0.92164  1.0000
  H   H2        1.0  0.39280  0.63194  0.07835  1.0000
  H   H3        1.0  0.45747  0.47064  0.79206  1.0000
  H   H4        1.0  0.54253  0.52936  0.20794  1.0000
  H   H5        1.0  0.04583  0.40998  0.04442  1.0000
  H   H6        1.0  0.95417  0.59002  0.95558  1.0000
  H   H7        1.0  0.17955  0.30967  0.18915  1.0000
  H   H8        1.0  0.82046  0.69033  0.81084  1.0000
  H   H9        1.0  0.30874  0.16863  0.29302  1.0000
  H   H10       1.0  0.69126  0.83137  0.70697  1.0000
  H   H11       1.0  0.47631  0.16640  0.34298  1.0000
  H   H12       1.0  0.52369  0.83360  0.65702  1.0000
  H   H13       1.0  0.32967  0.91976  0.99586  1.0000
  H   H14       1.0  0.67033  0.08024  0.00414  1.0000
  H   H15       1.0  0.37542  0.07639  0.09484  1.0000
  H   H16       1.0  0.62458  0.92361  0.90516  1.0000
  H   H17       1.0  0.05906  0.95432  0.40148  1.0000
  H   H18       1.0  0.94094  0.04568  0.59852  1.0000
  H   H19       1.0  0.99333  0.79711  0.31673  1.0000
  H   H20       1.0  0.00667  0.20289  0.68327  1.0000
  H   H21       1.0  0.90379  0.67448  0.23391  1.0000
  H   H22       1.0  0.09621  0.32552  0.76609  1.0000
  H   H23       1.0  0.99911  0.56365  0.15574  1.0000
  H   H24       1.0  0.00089  0.43635  0.84426  1.0000
  H   H25       1.0  0.38077  0.12418  0.54984  1.0000
  H   H26       1.0  0.61923  0.87582  0.45016  1.0000
  H   H27       1.0  0.30551  0.97935  0.45206  1.0000
  H   H28       1.0  0.69449  0.02065  0.54794  1.0000
  H   H29       1.0  0.10849  0.78008  0.76723  1.0000
  H   H30       1.0  0.89151  0.21992  0.23277  1.0000
  H   H31       1.0  0.16377  0.92137  0.87941  1.0000
  H   H32       1.0  0.83623  0.07863  0.12059  1.0000
  H   H33       1.0  0.54371  0.23975  0.76055  1.0000
  H   H34       1.0  0.45629  0.76025  0.23945  1.0000
  H   H35       1.0  0.56276  0.14996  0.65483  1.0000
  H   H36       1.0  0.43724  0.85003  0.34517  1.0000
  H   H37       1.0  0.36698  0.59256  0.66602  1.0000
  H   H38       1.0  0.63302  0.40744  0.33398  1.0000
  H   H39       1.0  0.23161  0.52579  0.75783  1.0000
  H   H40       1.0  0.76839  0.47420  0.24217  1.0000
  H   H41       1.0  0.14546  0.76504  0.54487  1.0000
  H   H42       1.0  0.85454  0.23496  0.45513  1.0000
  H   H43       1.0  0.99223  0.70459  0.54639  1.0000
  H   H44       1.0  0.00777  0.29541  0.45361  1.0000
  C   C1        1.0  0.40728  0.32939  0.06827  1.0000
  C   C2        1.0  0.59273  0.67061  0.93173  1.0000
  C   C3        1.0  0.48273  0.37579  0.95374  1.0000
  C   C4        1.0  0.51727  0.62421  0.04626  1.0000
  C   C5        1.0  0.39739  0.43306  0.87999  1.0000
  C   C6        1.0  0.60261  0.56694  0.12001  1.0000
  C   C7        1.0  0.17132  0.40083  0.01988  1.0000
  C   C8        1.0  0.82868  0.59917  0.98012  1.0000
  C   C9        1.0  0.24640  0.34300  0.10185  1.0000
  C   C10       1.0  0.75360  0.65700  0.89815  1.0000
  C   C11       1.0  0.40102  0.22168  0.29563  1.0000
  C   C12       1.0  0.59898  0.77832  0.70437  1.0000
  C   C13       1.0  0.34152  0.32510  0.35787  1.0000
  C   C14       1.0  0.65848  0.67489  0.64213  1.0000
  C   C15       1.0  0.15518  0.84469  0.14702  1.0000
  C   C16       1.0  0.84482  0.15531  0.85298  1.0000
  C   C17       1.0  0.26430  0.92569  0.08532  1.0000
  C   C18       1.0  0.73570  0.07431  0.91468  1.0000
  C   C19       1.0  0.29097  0.01270  0.14134  1.0000
  C   C20       1.0  0.70903  0.98730  0.85866  1.0000
  C   C21       1.0  0.11625  0.94538  0.31088  1.0000
  C   C22       1.0  0.88375  0.05462  0.68911  1.0000
  C   C23       1.0  0.07922  0.85594  0.26294  1.0000
  C   C24       1.0  0.92078  0.14406  0.73706  1.0000
  C   C25       1.0  0.01823  0.63692  0.19504  1.0000
  C   C26       1.0  0.98178  0.36308  0.80496  1.0000
  C   C27       1.0  0.09785  0.59047  0.29060  1.0000
  C   C28       1.0  0.90215  0.40953  0.70940  1.0000
  C   C29       1.0  0.28339  0.03431  0.72444  1.0000
  C   C30       1.0  0.71661  0.96569  0.27556  1.0000
  C   C31       1.0  0.32237  0.04871  0.60210  1.0000
  C   C32       1.0  0.67762  0.95129  0.39790  1.0000
  C   C33       1.0  0.27999  0.96682  0.54717  1.0000
  C   C34       1.0  0.72001  0.03318  0.45283  1.0000
  C   C35       1.0  0.16732  0.85834  0.72185  1.0000
  C   C36       1.0  0.83268  0.14166  0.27815  1.0000
  C   C37       1.0  0.20065  0.93683  0.78455  1.0000
  C   C38       1.0  0.79935  0.06317  0.21545  1.0000
  C   C39       1.0  0.48128  0.20926  0.70579  1.0000
  C   C40       1.0  0.51872  0.79074  0.29421  1.0000
  C   C41       1.0  0.44154  0.31425  0.62288  1.0000
  C   C42       1.0  0.55846  0.68575  0.37712  1.0000
  S   S1        1.0  0.52765  0.25947  0.15263  1.0000
  S   S2        1.0  0.47235  0.74053  0.84737  1.0000
  S   S3        1.0  0.12374  0.73524  0.07555  1.0000
  S   S4        1.0  0.87626  0.26476  0.92445  1.0000
  S   S5        1.0  0.32694  0.12924  0.80645  1.0000
  S   S6        1.0  0.67307  0.87075  0.19355  1.0000
  N   N1        1.0  0.24289  0.44681  0.91041  1.0000
  N   N2        1.0  0.75711  0.55319  0.08959  1.0000
  N   N3        1.0  0.21970  0.02356  0.25291  1.0000
  N   N4        1.0  0.78030  0.97644  0.74709  1.0000
  N   N5        1.0  0.20576  0.87151  0.60443  1.0000
  N   N6        1.0  0.79424  0.12849  0.39557  1.0000
  O   O1        1.0  0.19939  0.33604  0.40883  1.0000
  O   O2        1.0  0.80062  0.66396  0.59117  1.0000
  O   O3        1.0  0.43409  0.39876  0.36107  1.0000
  O   O4        1.0  0.56591  0.60124  0.63893  1.0000
  O   O5        1.0  0.01021  0.54476  0.38794  1.0000
  O   O6        1.0  0.98979  0.45524  0.61206  1.0000
  O   O7        1.0  0.23921  0.59556  0.27808  1.0000
  O   O8        1.0  0.76079  0.40444  0.72193  1.0000
  O   O9        1.0  0.30540  0.33630  0.61507  1.0000
  O   O10       1.0  0.69460  0.66370  0.38493  1.0000
  O   O11       1.0  0.55485  0.37345  0.56469  1.0000
  O   O12       1.0  0.44515  0.62655  0.43531  1.0000
  O   O13       1.0  0.26060  0.56940  0.67758  1.0000
  O   O14       1.0  0.73940  0.43060  0.32242  1.0000
  O   O15       1.0  0.10419  0.70525  0.51168  1.0000
  O   O16       1.0  0.89581  0.29475  0.48832  1.0000
