data_image0
_chemical_formula_structural       Li8H52C44N4O28
_chemical_formula_sum              "Li8 H52 C44 N4 O28"
_cell_length_a       8.12831
_cell_length_b       11.3128
_cell_length_c       15.7436
_cell_angle_alpha    89.9998
_cell_angle_beta     89.9999
_cell_angle_gamma    104.853

_space_group_name_H-M_alt    "P 1"
_space_group_IT_number       1

loop_
  _space_group_symop_operation_xyz
  'x, y, z'

loop_
  _atom_site_type_symbol
  _atom_site_label
  _atom_site_symmetry_multiplicity
  _atom_site_fract_x
  _atom_site_fract_y
  _atom_site_fract_z
  _atom_site_occupancy
  Li  Li1       1.0  0.43976  0.49312  0.91459  1.0000
  Li  Li2       1.0  0.56024  0.00688  0.41460  1.0000
  Li  Li3       1.0  0.56024  0.50688  0.08541  1.0000
  Li  Li4       1.0  0.43976  0.99312  0.58541  1.0000
  Li  Li5       1.0  0.14044  0.58140  0.96615  1.0000
  Li  Li6       1.0  0.85956  0.91860  0.46615  1.0000
  Li  Li7       1.0  0.85956  0.41860  0.03385  1.0000
  Li  Li8       1.0  0.14044  0.08140  0.53385  1.0000
  H   H1        1.0  0.21729  0.82091  0.73417  1.0000
  H   H2        1.0  0.78271  0.67909  0.23417  1.0000
  H   H3        1.0  0.78271  0.17909  0.26582  1.0000
  H   H4        1.0  0.21729  0.32091  0.76582  1.0000
  H   H5        1.0  0.20063  0.49617  0.82606  1.0000
  H   H6        1.0  0.79937  0.00383  0.32606  1.0000
  H   H7        1.0  0.79937  0.50384  0.17394  1.0000
  H   H8        1.0  0.20062  0.99617  0.67394  1.0000
  H   H9        1.0  0.30293  0.63971  0.82259  1.0000
  H   H10       1.0  0.69707  0.86029  0.32259  1.0000
  H   H11       1.0  0.69707  0.36030  0.17741  1.0000
  H   H12       1.0  0.30293  0.13971  0.67741  1.0000
  H   H13       1.0  0.07006  0.71656  0.84994  1.0000
  H   H14       1.0  0.92994  0.78345  0.34994  1.0000
  H   H15       1.0  0.92993  0.28344  0.15006  1.0000
  H   H16       1.0  0.07007  0.21656  0.65006  1.0000
  H   H17       1.0  0.83331  0.90241  0.66542  1.0000
  H   H18       1.0  0.16669  0.59759  0.16542  1.0000
  H   H19       1.0  0.16668  0.09758  0.33458  1.0000
  H   H20       1.0  0.83332  0.40241  0.83458  1.0000
  H   H21       1.0  0.53995  0.70612  0.87225  1.0000
  H   H22       1.0  0.46005  0.79388  0.37225  1.0000
  H   H23       1.0  0.46004  0.29387  0.12775  1.0000
  H   H24       1.0  0.53996  0.20612  0.62775  1.0000
  H   H25       1.0  0.17063  0.87613  0.08303  1.0000
  H   H26       1.0  0.82937  0.62387  0.58303  1.0000
  H   H27       1.0  0.82937  0.12387  0.91697  1.0000
  H   H28       1.0  0.17064  0.37613  0.41697  1.0000
  H   H29       1.0  0.30319  0.02983  0.09002  1.0000
  H   H30       1.0  0.69681  0.47017  0.59002  1.0000
  H   H31       1.0  0.69681  0.97017  0.90998  1.0000
  H   H32       1.0  0.30319  0.52983  0.40998  1.0000
  H   H33       1.0  0.27153  0.93351  0.18134  1.0000
  H   H34       1.0  0.72847  0.56649  0.68134  1.0000
  H   H35       1.0  0.72848  0.06649  0.81866  1.0000
  H   H36       1.0  0.27153  0.43351  0.31866  1.0000
  H   H37       1.0  0.69143  0.90630  0.10000  1.0000
  H   H38       1.0  0.30857  0.59370  0.60000  1.0000
  H   H39       1.0  0.30857  0.09370  0.90000  1.0000
  H   H40       1.0  0.69143  0.40630  0.40000  1.0000
  H   H41       1.0  0.59302  0.95339  0.19081  1.0000
  H   H42       1.0  0.40698  0.54661  0.69081  1.0000
  H   H43       1.0  0.40698  0.04661  0.80919  1.0000
  H   H44       1.0  0.59302  0.45339  0.30919  1.0000
  H   H45       1.0  0.63273  0.04860  0.09885  1.0000
  H   H46       1.0  0.36727  0.45140  0.59885  1.0000
  H   H47       1.0  0.36727  0.95140  0.90115  1.0000
  H   H48       1.0  0.63274  0.54860  0.40115  1.0000
  H   H49       1.0  0.52838  0.76032  0.02816  1.0000
  H   H50       1.0  0.47162  0.73968  0.52816  1.0000
  H   H51       1.0  0.47162  0.23968  0.97184  1.0000
  H   H52       1.0  0.52839  0.26032  0.47184  1.0000
  C   C1        1.0  0.80246  0.70158  0.86851  1.0000
  C   C2        1.0  0.19754  0.79842  0.36851  1.0000
  C   C3        1.0  0.19753  0.29841  0.13148  1.0000
  C   C4        1.0  0.80246  0.20158  0.63148  1.0000
  C   C5        1.0  0.95818  0.74237  0.82654  1.0000
  C   C6        1.0  0.04182  0.75763  0.32654  1.0000
  C   C7        1.0  0.04181  0.25762  0.17346  1.0000
  C   C8        1.0  0.95818  0.24237  0.67346  1.0000
  C   C9        1.0  0.96983  0.81626  0.75409  1.0000
  C   C10       1.0  0.03016  0.68374  0.25409  1.0000
  C   C11       1.0  0.03015  0.18374  0.24591  1.0000
  C   C12       1.0  0.96984  0.31626  0.74591  1.0000
  C   C13       1.0  0.82463  0.84733  0.72281  1.0000
  C   C14       1.0  0.17536  0.65267  0.22281  1.0000
  C   C15       1.0  0.17536  0.15267  0.27719  1.0000
  C   C16       1.0  0.82464  0.34733  0.77719  1.0000
  C   C17       1.0  0.66831  0.80490  0.76444  1.0000
  C   C18       1.0  0.33169  0.69509  0.26444  1.0000
  C   C19       1.0  0.33169  0.19509  0.23556  1.0000
  C   C20       1.0  0.66831  0.30491  0.73556  1.0000
  C   C21       1.0  0.65922  0.73482  0.83805  1.0000
  C   C22       1.0  0.34077  0.76518  0.33805  1.0000
  C   C23       1.0  0.34077  0.26517  0.16195  1.0000
  C   C24       1.0  0.65923  0.23482  0.66195  1.0000
  C   C25       1.0  0.78216  0.61722  0.94347  1.0000
  C   C26       1.0  0.21784  0.88278  0.44347  1.0000
  C   C27       1.0  0.21784  0.38278  0.05653  1.0000
  C   C28       1.0  0.78216  0.11722  0.55653  1.0000
  C   C29       1.0  0.50936  0.83244  0.73016  1.0000
  C   C30       1.0  0.49064  0.66756  0.23016  1.0000
  C   C31       1.0  0.49064  0.16755  0.26984  1.0000
  C   C32       1.0  0.50936  0.33245  0.76984  1.0000
  C   C33       1.0  0.28508  0.93504  0.11186  1.0000
  C   C34       1.0  0.71491  0.56496  0.61186  1.0000
  C   C35       1.0  0.71492  0.06496  0.88814  1.0000
  C   C36       1.0  0.28509  0.43505  0.38814  1.0000
  C   C37       1.0  0.59621  0.95327  0.12103  1.0000
  C   C38       1.0  0.40379  0.54673  0.62103  1.0000
  C   C39       1.0  0.40379  0.04673  0.87897  1.0000
  C   C40       1.0  0.59621  0.45327  0.37897  1.0000
  C   C41       1.0  0.40986  0.78865  0.03988  1.0000
  C   C42       1.0  0.59014  0.71134  0.53988  1.0000
  C   C43       1.0  0.59015  0.21135  0.96012  1.0000
  C   C44       1.0  0.40986  0.28866  0.46012  1.0000
  N   N1        1.0  0.43038  0.88953  0.08776  1.0000
  N   N2        1.0  0.56963  0.61047  0.58776  1.0000
  N   N3        1.0  0.56963  0.11047  0.91224  1.0000
  N   N4        1.0  0.43037  0.38953  0.41224  1.0000
  O   O1        1.0  0.63898  0.59273  0.98182  1.0000
  O   O2        1.0  0.36102  0.90727  0.48182  1.0000
  O   O3        1.0  0.36102  0.40727  0.01819  1.0000
  O   O4        1.0  0.63899  0.09274  0.51818  1.0000
  O   O5        1.0  0.90261  0.57046  0.96430  1.0000
  O   O6        1.0  0.09739  0.92955  0.46429  1.0000
  O   O7        1.0  0.09740  0.42955  0.03571  1.0000
  O   O8        1.0  0.90261  0.07045  0.53571  1.0000
  O   O9        1.0  0.52297  0.90991  0.67154  1.0000
  O   O10       1.0  0.47703  0.59010  0.17154  1.0000
  O   O11       1.0  0.47703  0.09009  0.32845  1.0000
  O   O12       1.0  0.52297  0.40991  0.82845  1.0000
  O   O13       1.0  0.36569  0.77408  0.76325  1.0000
  O   O14       1.0  0.63432  0.72592  0.26326  1.0000
  O   O15       1.0  0.63431  0.22592  0.23674  1.0000
  O   O16       1.0  0.36568  0.27408  0.73674  1.0000
  O   O17       1.0  0.11945  0.85711  0.71174  1.0000
  O   O18       1.0  0.88055  0.64289  0.21174  1.0000
  O   O19       1.0  0.88054  0.14289  0.28826  1.0000
  O   O20       1.0  0.11946  0.35711  0.78826  1.0000
  O   O21       1.0  0.27032  0.73003  0.01043  1.0000
  O   O22       1.0  0.72969  0.76997  0.51043  1.0000
  O   O23       1.0  0.72970  0.26997  0.98957  1.0000
  O   O24       1.0  0.27031  0.23003  0.48957  1.0000
  O   O25       1.0  0.26268  0.56768  0.86079  1.0000
  O   O26       1.0  0.73732  0.93232  0.36079  1.0000
  O   O27       1.0  0.73732  0.43232  0.13921  1.0000
  O   O28       1.0  0.26268  0.06768  0.63921  1.0000
