data_image0
_chemical_formula_structural       Zn2H24C32N2O12
_chemical_formula_sum              "Zn2 H24 C32 N2 O12"
_cell_length_a       9.54146
_cell_length_b       9.40636
_cell_length_c       10.1833
_cell_angle_alpha    71.2015
_cell_angle_beta     64.8711
_cell_angle_gamma    86.7235

_space_group_name_H-M_alt    "P 1"
_space_group_IT_number       1

loop_
  _space_group_symop_operation_xyz
  'x, y, z'

loop_
  _atom_site_type_symbol
  _atom_site_label
  _atom_site_symmetry_multiplicity
  _atom_site_fract_x
  _atom_site_fract_y
  _atom_site_fract_z
  _atom_site_occupancy
  Zn  Zn1       1.0  0.89061  0.13054  0.41000  1.0000
  Zn  Zn2       1.0  0.10939  0.86946  0.58999  1.0000
  H   H1        1.0  0.17823  0.16395  0.89659  1.0000
  H   H2        1.0  0.82176  0.83605  0.10341  1.0000
  H   H3        1.0  0.13004  0.34042  0.92323  1.0000
  H   H4        1.0  0.86996  0.65958  0.07677  1.0000
  H   H5        1.0  0.59832  0.62290  0.29361  1.0000
  H   H6        1.0  0.40168  0.37710  0.70639  1.0000
  H   H7        1.0  0.43067  0.15969  0.42897  1.0000
  H   H8        1.0  0.56934  0.84030  0.57103  1.0000
  H   H9        1.0  0.11522  0.50609  0.42930  1.0000
  H   H10       1.0  0.88477  0.49390  0.57071  1.0000
  H   H11       1.0  0.71084  0.11710  0.98896  1.0000
  H   H12       1.0  0.28915  0.88290  0.01105  1.0000
  H   H13       1.0  0.06259  0.31595  0.72536  1.0000
  H   H14       1.0  0.93741  0.68405  0.27464  1.0000
  H   H15       1.0  0.95801  0.13677  0.84462  1.0000
  H   H16       1.0  0.04198  0.86323  0.15538  1.0000
  H   H17       1.0  0.73499  0.66259  0.89557  1.0000
  H   H18       1.0  0.26502  0.33742  0.10443  1.0000
  H   H19       1.0  0.96936  0.52865  0.82421  1.0000
  H   H20       1.0  0.03064  0.47135  0.17579  1.0000
  H   H21       1.0  0.32938  0.69827  0.34911  1.0000
  H   H22       1.0  0.67062  0.30172  0.65089  1.0000
  H   H23       1.0  0.46086  0.23334  0.06780  1.0000
  H   H24       1.0  0.53913  0.76667  0.93221  1.0000
  C   C1        1.0  0.14002  0.20623  0.45761  1.0000
  C   C2        1.0  0.85999  0.79376  0.54239  1.0000
  C   C3        1.0  0.26082  0.32127  0.42811  1.0000
  C   C4        1.0  0.73918  0.67872  0.57189  1.0000
  C   C5        1.0  0.98590  0.14699  0.11122  1.0000
  C   C6        1.0  0.01410  0.85301  0.88878  1.0000
  C   C7        1.0  0.08041  0.22971  0.94081  1.0000
  C   C8        1.0  0.91959  0.77030  0.05919  1.0000
  C   C9        1.0  0.53075  0.38646  0.35999  1.0000
  C   C10       1.0  0.46926  0.61354  0.64001  1.0000
  C   C11       1.0  0.50272  0.53876  0.33270  1.0000
  C   C12       1.0  0.49728  0.46124  0.66730  1.0000
  C   C13       1.0  0.57229  0.46178  0.98296  1.0000
  C   C14       1.0  0.42771  0.53822  0.01704  1.0000
  C   C15       1.0  0.40938  0.27809  0.40855  1.0000
  C   C16       1.0  0.59063  0.72191  0.59145  1.0000
  C   C17       1.0  0.23168  0.47289  0.40957  1.0000
  C   C18       1.0  0.76832  0.52710  0.59044  1.0000
  C   C19       1.0  0.70636  0.23734  0.96952  1.0000
  C   C20       1.0  0.29363  0.76266  0.03049  1.0000
  C   C21       1.0  0.99083  0.24625  0.84453  1.0000
  C   C22       1.0  0.00916  0.75375  0.15547  1.0000
  C   C23       1.0  0.68968  0.33848  0.33857  1.0000
  C   C24       1.0  0.31033  0.66152  0.66143  1.0000
  C   C25       1.0  0.71836  0.54189  0.91892  1.0000
  C   C26       1.0  0.28164  0.45812  0.08108  1.0000
  C   C27       1.0  0.85302  0.46950  0.87755  1.0000
  C   C28       1.0  0.14698  0.53051  0.12245  1.0000
  C   C29       1.0  0.35247  0.58109  0.36189  1.0000
  C   C30       1.0  0.64753  0.41891  0.63811  1.0000
  C   C31       1.0  0.56939  0.30496  0.01222  1.0000
  C   C32       1.0  0.43061  0.69505  0.98778  1.0000
  N   N1        1.0  0.84548  0.32028  0.89900  1.0000
  N   N2        1.0  0.15452  0.67972  0.10100  1.0000
  O   O1        1.0  0.69001  0.21014  0.43595  1.0000
  O   O2        1.0  0.31000  0.78986  0.56405  1.0000
  O   O3        1.0  0.18468  0.07820  0.44791  1.0000
  O   O4        1.0  0.81534  0.92180  0.55208  1.0000
  O   O5        1.0  0.00239  0.24437  0.48182  1.0000
  O   O6        1.0  0.99762  0.75562  0.51818  1.0000
  O   O7        1.0  0.04911  0.16065  0.19811  1.0000
  O   O8        1.0  0.95089  0.83935  0.80189  1.0000
  O   O9        1.0  0.85898  0.07343  0.15928  1.0000
  O   O10       1.0  0.14102  0.92657  0.84072  1.0000
  O   O11       1.0  0.80769  0.42217  0.23275  1.0000
  O   O12       1.0  0.19231  0.57784  0.76725  1.0000
