data_image0
_chemical_formula_structural       Cu8Si4H64C28S8I8
_chemical_formula_sum              "Cu8 Si4 H64 C28 S8 I8"
_cell_length_a       6.7807
_cell_length_b       8.24767
_cell_length_c       24.9497
_cell_angle_alpha    94.9997
_cell_angle_beta     89.9997
_cell_angle_gamma    90

_space_group_name_H-M_alt    "P 1"
_space_group_IT_number       1

loop_
  _space_group_symop_operation_xyz
  'x, y, z'

loop_
  _atom_site_type_symbol
  _atom_site_label
  _atom_site_symmetry_multiplicity
  _atom_site_fract_x
  _atom_site_fract_y
  _atom_site_fract_z
  _atom_site_occupancy
  Cu  Cu1       1.0  0.04021  0.48851  0.55231  1.0000
  Cu  Cu2       1.0  0.54020  0.01150  0.94770  1.0000
  Cu  Cu3       1.0  0.95980  0.51150  0.44769  1.0000
  Cu  Cu4       1.0  0.45978  0.98850  0.05230  1.0000
  Cu  Cu5       1.0  0.44692  0.48964  0.56822  1.0000
  Cu  Cu6       1.0  0.94691  0.01037  0.93178  1.0000
  Cu  Cu7       1.0  0.55309  0.51037  0.43178  1.0000
  Cu  Cu8       1.0  0.05307  0.98963  0.06822  1.0000
  Si  Si1       1.0  0.81927  0.48155  0.70653  1.0000
  Si  Si2       1.0  0.31926  0.01846  0.79347  1.0000
  Si  Si3       1.0  0.18074  0.51845  0.29347  1.0000
  Si  Si4       1.0  0.68073  0.98154  0.20653  1.0000
  H   H1        1.0  0.78088  0.77116  0.69384  1.0000
  H   H2        1.0  0.28087  0.72884  0.80616  1.0000
  H   H3        1.0  0.21914  0.22884  0.30616  1.0000
  H   H4        1.0  0.71912  0.27116  0.19384  1.0000
  H   H5        1.0  0.91821  0.97629  0.62183  1.0000
  H   H6        1.0  0.41822  0.52371  0.87818  1.0000
  H   H7        1.0  0.08180  0.02371  0.37818  1.0000
  H   H8        1.0  0.58177  0.47629  0.12182  1.0000
  H   H9        1.0  0.99077  0.89398  0.55685  1.0000
  H   H10       1.0  0.49076  0.60602  0.94315  1.0000
  H   H11       1.0  0.00925  0.10603  0.44315  1.0000
  H   H12       1.0  0.50923  0.39397  0.05685  1.0000
  H   H13       1.0  0.65266  0.00231  0.55490  1.0000
  H   H14       1.0  0.15266  0.49771  0.94511  1.0000
  H   H15       1.0  0.34736  0.99771  0.44511  1.0000
  H   H16       1.0  0.84733  0.50230  0.05490  1.0000
  H   H17       1.0  0.65301  0.79059  0.53702  1.0000
  H   H18       1.0  0.15301  0.70942  0.96298  1.0000
  H   H19       1.0  0.34701  0.20942  0.46298  1.0000
  H   H20       1.0  0.84699  0.29058  0.03702  1.0000
  H   H21       1.0  0.37296  0.88159  0.59846  1.0000
  H   H22       1.0  0.87296  0.61841  0.90154  1.0000
  H   H23       1.0  0.62706  0.11842  0.40154  1.0000
  H   H24       1.0  0.12703  0.38159  0.09846  1.0000
  H   H25       1.0  0.54263  0.95470  0.64906  1.0000
  H   H26       1.0  0.04264  0.54530  0.85094  1.0000
  H   H27       1.0  0.45738  0.04530  0.35094  1.0000
  H   H28       1.0  0.95735  0.45470  0.14906  1.0000
  H   H29       1.0  0.12169  0.38910  0.74931  1.0000
  H   H30       1.0  0.62166  0.11091  0.75068  1.0000
  H   H31       1.0  0.87832  0.61089  0.25069  1.0000
  H   H32       1.0  0.37832  0.88909  0.24931  1.0000
  H   H33       1.0  0.13136  0.60284  0.74320  1.0000
  H   H34       1.0  0.63135  0.89717  0.75679  1.0000
  H   H35       1.0  0.86865  0.39715  0.25679  1.0000
  H   H36       1.0  0.36864  0.10283  0.24321  1.0000
  H   H37       1.0  0.17919  0.46249  0.68625  1.0000
  H   H38       1.0  0.67919  0.03753  0.81374  1.0000
  H   H39       1.0  0.82081  0.53751  0.31375  1.0000
  H   H40       1.0  0.32080  0.96247  0.18626  1.0000
  H   H41       1.0  0.51150  0.52725  0.75970  1.0000
  H   H42       1.0  0.01149  0.97273  0.74030  1.0000
  H   H43       1.0  0.48851  0.47275  0.24030  1.0000
  H   H44       1.0  0.98849  0.02725  0.25970  1.0000
  H   H45       1.0  0.71171  0.63611  0.79225  1.0000
  H   H46       1.0  0.21171  0.86387  0.70775  1.0000
  H   H47       1.0  0.28829  0.36388  0.20775  1.0000
  H   H48       1.0  0.78828  0.13612  0.29225  1.0000
  H   H49       1.0  0.69030  0.42290  0.79615  1.0000
  H   H50       1.0  0.19028  0.07708  0.70385  1.0000
  H   H51       1.0  0.30970  0.57709  0.20385  1.0000
  H   H52       1.0  0.80970  0.92291  0.29615  1.0000
  H   H53       1.0  0.58216  0.27342  0.66651  1.0000
  H   H54       1.0  0.08216  0.22658  0.83349  1.0000
  H   H55       1.0  0.41783  0.72658  0.33349  1.0000
  H   H56       1.0  0.91784  0.77342  0.16651  1.0000
  H   H57       1.0  0.80570  0.18395  0.68816  1.0000
  H   H58       1.0  0.30570  0.31606  0.81184  1.0000
  H   H59       1.0  0.19429  0.81605  0.31184  1.0000
  H   H60       1.0  0.69431  0.68394  0.18816  1.0000
  H   H61       1.0  0.80013  0.27856  0.62706  1.0000
  H   H62       1.0  0.30013  0.22144  0.87294  1.0000
  H   H63       1.0  0.19986  0.72144  0.37295  1.0000
  H   H64       1.0  0.69987  0.77855  0.12706  1.0000
  C   C1        1.0  0.77201  0.66267  0.66468  1.0000
  C   C2        1.0  0.27201  0.83733  0.83532  1.0000
  C   C3        1.0  0.22801  0.33733  0.33532  1.0000
  C   C4        1.0  0.72799  0.16267  0.16468  1.0000
  C   C5        1.0  0.88833  0.87836  0.59012  1.0000
  C   C6        1.0  0.38833  0.62164  0.90988  1.0000
  C   C7        1.0  0.11169  0.12164  0.40989  1.0000
  C   C8        1.0  0.61166  0.37835  0.09012  1.0000
  C   C9        1.0  0.67609  0.88324  0.57084  1.0000
  C   C10       1.0  0.17610  0.61676  0.92916  1.0000
  C   C11       1.0  0.32392  0.11677  0.42916  1.0000
  C   C12       1.0  0.82390  0.38323  0.07084  1.0000
  C   C13       1.0  0.52213  0.86523  0.61416  1.0000
  C   C14       1.0  0.02213  0.63478  0.88584  1.0000
  C   C15       1.0  0.47789  0.13478  0.38584  1.0000
  C   C16       1.0  0.97786  0.36522  0.11416  1.0000
  C   C17       1.0  0.08882  0.48479  0.72266  1.0000
  C   C18       1.0  0.58882  0.01521  0.77733  1.0000
  C   C19       1.0  0.91118  0.51520  0.27734  1.0000
  C   C20       1.0  0.41117  0.98478  0.22266  1.0000
  C   C21       1.0  0.66928  0.52119  0.76951  1.0000
  C   C22       1.0  0.16926  0.97880  0.73049  1.0000
  C   C23       1.0  0.33073  0.47880  0.23048  1.0000
  C   C24       1.0  0.83073  0.02119  0.26951  1.0000
  C   C25       1.0  0.74343  0.28646  0.66841  1.0000
  C   C26       1.0  0.24343  0.21354  0.83159  1.0000
  C   C27       1.0  0.25656  0.71354  0.33159  1.0000
  C   C28       1.0  0.75658  0.78646  0.16841  1.0000
  S   S1        1.0  0.96742  0.68998  0.61677  1.0000
  S   S2        1.0  0.46742  0.81002  0.88323  1.0000
  S   S3        1.0  0.03260  0.31002  0.38323  1.0000
  S   S4        1.0  0.53258  0.18997  0.11677  1.0000
  S   S5        1.0  0.52012  0.66453  0.63930  1.0000
  S   S6        1.0  0.02012  0.83548  0.86070  1.0000
  S   S7        1.0  0.47990  0.33548  0.36070  1.0000
  S   S8        1.0  0.97987  0.16453  0.13930  1.0000
  I   I1        1.0  0.72832  0.33887  0.50760  1.0000
  I   I2        1.0  0.22832  0.16115  0.99241  1.0000
  I   I3        1.0  0.27168  0.66115  0.49240  1.0000
  I   I4        1.0  0.77167  0.83886  0.00759  1.0000
  I   I5        1.0  0.23228  0.23885  0.58506  1.0000
  I   I6        1.0  0.73227  0.26117  0.91494  1.0000
  I   I7        1.0  0.76773  0.76116  0.41494  1.0000
  I   I8        1.0  0.26773  0.73883  0.08505  1.0000
