data_image0
_chemical_formula_structural       Cu4Si2H32C14S4Cl4
_chemical_formula_sum              "Cu4 Si2 H32 C14 S4 Cl4"
_cell_length_a       6.46285
_cell_length_b       7.7912
_cell_length_c       13.1884
_cell_angle_alpha    73.9996
_cell_angle_beta     88.6673
_cell_angle_gamma    88.7767

_space_group_name_H-M_alt    "P 1"
_space_group_IT_number       1

loop_
  _space_group_symop_operation_xyz
  'x, y, z'

loop_
  _atom_site_type_symbol
  _atom_site_label
  _atom_site_symmetry_multiplicity
  _atom_site_fract_x
  _atom_site_fract_y
  _atom_site_fract_z
  _atom_site_occupancy
  Cu  Cu1       1.0  0.48655  0.42263  0.10622  1.0000
  Cu  Cu2       1.0  0.51346  0.57737  0.89378  1.0000
  Cu  Cu3       1.0  0.95981  0.41347  0.13181  1.0000
  Cu  Cu4       1.0  0.04019  0.58652  0.86819  1.0000
  Si  Si1       1.0  0.31191  0.28529  0.39534  1.0000
  Si  Si2       1.0  0.68808  0.71472  0.60466  1.0000
  H   H1        1.0  0.26286  0.61314  0.36110  1.0000
  H   H2        1.0  0.73713  0.38686  0.63890  1.0000
  H   H3        1.0  0.41030  0.90702  0.19835  1.0000
  H   H4        1.0  0.58969  0.09298  0.80167  1.0000
  H   H5        1.0  0.48751  0.86650  0.07701  1.0000
  H   H6        1.0  0.51249  0.13350  0.92301  1.0000
  H   H7        1.0  0.13778  0.77736  0.04639  1.0000
  H   H8        1.0  0.86223  0.22262  0.95361  1.0000
  H   H9        1.0  0.13024  0.98951  0.07125  1.0000
  H   H10       1.0  0.86976  0.01046  0.92874  1.0000
  H   H11       1.0  0.83896  0.81408  0.16277  1.0000
  H   H12       1.0  0.16105  0.18589  0.83721  1.0000
  H   H13       1.0  0.00866  0.85056  0.25792  1.0000
  H   H14       1.0  0.99128  0.14945  0.74207  1.0000
  H   H15       1.0  0.68040  0.26049  0.34213  1.0000
  H   H16       1.0  0.31959  0.73954  0.65787  1.0000
  H   H17       1.0  0.62868  0.12454  0.47197  1.0000
  H   H18       1.0  0.37133  0.87549  0.52803  1.0000
  H   H19       1.0  0.65972  0.35866  0.44909  1.0000
  H   H20       1.0  0.34027  0.64138  0.55090  1.0000
  H   H21       1.0  0.22805  0.35772  0.56583  1.0000
  H   H22       1.0  0.77196  0.64227  0.43418  1.0000
  H   H23       1.0  0.19037  0.12901  0.57600  1.0000
  H   H24       1.0  0.80964  0.87099  0.42400  1.0000
  H   H25       1.0  0.00418  0.29114  0.51147  1.0000
  H   H26       1.0  0.99582  0.70885  0.48853  1.0000
  H   H27       1.0  0.04593  0.12963  0.31968  1.0000
  H   H28       1.0  0.95407  0.87037  0.68032  1.0000
  H   H29       1.0  0.25425  0.98367  0.37534  1.0000
  H   H30       1.0  0.74576  0.01633  0.62466  1.0000
  H   H31       1.0  0.28642  0.14177  0.25007  1.0000
  H   H32       1.0  0.71358  0.85823  0.74993  1.0000
  C   C1        1.0  0.26108  0.52461  0.30854  1.0000
  C   C2        1.0  0.73890  0.47539  0.69146  1.0000
  C   C3        1.0  0.37978  0.82522  0.14467  1.0000
  C   C4        1.0  0.62022  0.17478  0.85535  1.0000
  C   C5        1.0  0.15737  0.84589  0.10793  1.0000
  C   C6        1.0  0.84265  0.15410  0.89208  1.0000
  C   C7        1.0  0.99478  0.78477  0.19466  1.0000
  C   C8        1.0  0.00522  0.21523  0.80532  1.0000
  C   C9        1.0  0.59721  0.25560  0.41643  1.0000
  C   C10       1.0  0.40279  0.74443  0.58357  1.0000
  C   C11       1.0  0.17073  0.26504  0.52377  1.0000
  C   C12       1.0  0.82927  0.73495  0.47623  1.0000
  C   C13       1.0  0.21466  0.12016  0.32885  1.0000
  C   C14       1.0  0.78534  0.87984  0.67115  1.0000
  S   S1        1.0  0.00058  0.54523  0.25693  1.0000
  S   S2        1.0  0.99942  0.45477  0.74305  1.0000
  S   S3        1.0  0.46658  0.59882  0.21154  1.0000
  S   S4        1.0  0.53342  0.40118  0.78846  1.0000
  Cl  Cl1       1.0  0.21981  0.34698  0.01825  1.0000
  Cl  Cl2       1.0  0.78020  0.65301  0.98175  1.0000
  Cl  Cl3       1.0  0.72105  0.19026  0.15256  1.0000
  Cl  Cl4       1.0  0.27895  0.80973  0.84743  1.0000
