data_image0
_chemical_formula_structural       Cu6H48C40S8I6
_chemical_formula_sum              "Cu6 H48 C40 S8 I6"
_cell_length_a       8.55169
_cell_length_b       9.79326
_cell_length_c       16.0355
_cell_angle_alpha    76.3802
_cell_angle_beta     78.8216
_cell_angle_gamma    87.4144

_space_group_name_H-M_alt    "P 1"
_space_group_IT_number       1

loop_
  _space_group_symop_operation_xyz
  'x, y, z'

loop_
  _atom_site_type_symbol
  _atom_site_label
  _atom_site_symmetry_multiplicity
  _atom_site_fract_x
  _atom_site_fract_y
  _atom_site_fract_z
  _atom_site_occupancy
  Cu  Cu1       1.0  0.00905  0.06034  0.25092  1.0000
  Cu  Cu2       1.0  0.99095  0.93966  0.74907  1.0000
  Cu  Cu3       1.0  0.04170  0.38980  0.24242  1.0000
  Cu  Cu4       1.0  0.95830  0.61020  0.75758  1.0000
  Cu  Cu5       1.0  0.28790  0.20431  0.20713  1.0000
  Cu  Cu6       1.0  0.71210  0.79569  0.79287  1.0000
  H   H1        1.0  0.07629  0.74216  0.22166  1.0000
  H   H2        1.0  0.92371  0.25783  0.77834  1.0000
  H   H3        1.0  0.17097  0.44250  0.40578  1.0000
  H   H4        1.0  0.82903  0.55751  0.59422  1.0000
  H   H5        1.0  0.24464  0.58165  0.31599  1.0000
  H   H6        1.0  0.75536  0.41835  0.68401  1.0000
  H   H7        1.0  0.23256  0.64078  0.46554  1.0000
  H   H8        1.0  0.76744  0.35922  0.53446  1.0000
  H   H9        1.0  0.02392  0.62304  0.48518  1.0000
  H   H10       1.0  0.97608  0.37696  0.51482  1.0000
  H   H11       1.0  0.22220  0.83605  0.33335  1.0000
  H   H12       1.0  0.77780  0.16396  0.66665  1.0000
  H   H13       1.0  0.10990  0.87285  0.43091  1.0000
  H   H14       1.0  0.89010  0.12715  0.56909  1.0000
  H   H15       1.0  0.65742  0.82210  0.30972  1.0000
  H   H16       1.0  0.34258  0.17790  0.69028  1.0000
  H   H17       1.0  0.43618  0.83158  0.22832  1.0000
  H   H18       1.0  0.56381  0.16841  0.77168  1.0000
  H   H19       1.0  0.47745  0.74619  0.09246  1.0000
  H   H20       1.0  0.52255  0.25381  0.90755  1.0000
  H   H21       1.0  0.74151  0.65327  0.03528  1.0000
  H   H22       1.0  0.25849  0.34673  0.96472  1.0000
  H   H23       1.0  0.96550  0.64505  0.11620  1.0000
  H   H24       1.0  0.03450  0.35496  0.88380  1.0000
  H   H25       1.0  0.63257  0.38471  0.18676  1.0000
  H   H26       1.0  0.36743  0.61529  0.81324  1.0000
  H   H27       1.0  0.57004  0.10677  0.05913  1.0000
  H   H28       1.0  0.42997  0.89323  0.94087  1.0000
  H   H29       1.0  0.58453  0.28954  0.05373  1.0000
  H   H30       1.0  0.41547  0.71046  0.94627  1.0000
  H   H31       1.0  0.85241  0.07008  0.08353  1.0000
  H   H32       1.0  0.14759  0.92992  0.91647  1.0000
  H   H33       1.0  0.83918  0.19145  0.98465  1.0000
  H   H34       1.0  0.16082  0.80856  0.01535  1.0000
  H   H35       1.0  0.85760  0.39317  0.05630  1.0000
  H   H36       1.0  0.14241  0.60684  0.94370  1.0000
  H   H37       1.0  0.02764  0.28006  0.05864  1.0000
  H   H38       1.0  0.97236  0.71994  0.94136  1.0000
  H   H39       1.0  0.50809  0.48533  0.29785  1.0000
  H   H40       1.0  0.49191  0.51467  0.70215  1.0000
  H   H41       1.0  0.41511  0.47861  0.45612  1.0000
  H   H42       1.0  0.58489  0.52139  0.54388  1.0000
  H   H43       1.0  0.46877  0.27068  0.56830  1.0000
  H   H44       1.0  0.53123  0.72932  0.43170  1.0000
  H   H45       1.0  0.61728  0.06553  0.52328  1.0000
  H   H46       1.0  0.38272  0.93447  0.47672  1.0000
  H   H47       1.0  0.70370  0.06984  0.36591  1.0000
  H   H48       1.0  0.29629  0.93016  0.63409  1.0000
  C   C1        1.0  0.96115  0.72092  0.26721  1.0000
  C   C2        1.0  0.03885  0.27908  0.73279  1.0000
  C   C3        1.0  0.14717  0.55066  0.37265  1.0000
  C   C4        1.0  0.85284  0.44934  0.62735  1.0000
  C   C5        1.0  0.12897  0.65084  0.43305  1.0000
  C   C6        1.0  0.87103  0.34916  0.56695  1.0000
  C   C7        1.0  0.11814  0.80317  0.38576  1.0000
  C   C8        1.0  0.88186  0.19683  0.61424  1.0000
  C   C9        1.0  0.82572  0.73261  0.21850  1.0000
  C   C10       1.0  0.17428  0.26739  0.78150  1.0000
  C   C11       1.0  0.67595  0.78323  0.25023  1.0000
  C   C12       1.0  0.32403  0.21676  0.74977  1.0000
  C   C13       1.0  0.55139  0.78797  0.20490  1.0000
  C   C14       1.0  0.44862  0.21202  0.79510  1.0000
  C   C15       1.0  0.57494  0.74137  0.12776  1.0000
  C   C16       1.0  0.42505  0.25863  0.87224  1.0000
  C   C17       1.0  0.72387  0.68929  0.09589  1.0000
  C   C18       1.0  0.27615  0.31071  0.90411  1.0000
  C   C19       1.0  0.84883  0.68535  0.14079  1.0000
  C   C20       1.0  0.15116  0.31465  0.85921  1.0000
  C   C21       1.0  0.65913  0.28176  0.22686  1.0000
  C   C22       1.0  0.34087  0.71824  0.77314  1.0000
  C   C23       1.0  0.62921  0.18474  0.08167  1.0000
  C   C24       1.0  0.37079  0.81526  0.91833  1.0000
  C   C25       1.0  0.80946  0.17568  0.05630  1.0000
  C   C26       1.0  0.19054  0.82432  0.94370  1.0000
  C   C27       1.0  0.89856  0.28594  0.08151  1.0000
  C   C28       1.0  0.10145  0.71406  0.91849  1.0000
  C   C29       1.0  0.61031  0.27783  0.32216  1.0000
  C   C30       1.0  0.38969  0.72217  0.67784  1.0000
  C   C31       1.0  0.53065  0.39353  0.34768  1.0000
  C   C32       1.0  0.46935  0.60647  0.65232  1.0000
  C   C33       1.0  0.47914  0.38963  0.43610  1.0000
  C   C34       1.0  0.52087  0.61037  0.56390  1.0000
  C   C35       1.0  0.50960  0.27205  0.49938  1.0000
  C   C36       1.0  0.49041  0.72795  0.50062  1.0000
  C   C37       1.0  0.59208  0.15745  0.47429  1.0000
  C   C38       1.0  0.40792  0.84255  0.52571  1.0000
  C   C39       1.0  0.64085  0.15979  0.38579  1.0000
  C   C40       1.0  0.35915  0.84020  0.61422  1.0000
  S   S1        1.0  0.93963  0.84486  0.33859  1.0000
  S   S2        1.0  0.06037  0.15514  0.66141  1.0000
  S   S3        1.0  0.96593  0.53876  0.33160  1.0000
  S   S4        1.0  0.03407  0.46124  0.66840  1.0000
  S   S5        1.0  0.87781  0.25867  0.19912  1.0000
  S   S6        1.0  0.12219  0.74133  0.80088  1.0000
  S   S7        1.0  0.55407  0.14605  0.19902  1.0000
  S   S8        1.0  0.44594  0.85395  0.80098  1.0000
  I   I1        1.0  0.21968  0.02227  0.11837  1.0000
  I   I2        1.0  0.78032  0.97773  0.88163  1.0000
  I   I3        1.0  0.28362  0.47178  0.11825  1.0000
  I   I4        1.0  0.71638  0.52822  0.88175  1.0000
  I   I5        1.0  0.13271  0.17237  0.37005  1.0000
  I   I6        1.0  0.86729  0.82763  0.62996  1.0000
