data_image0
_chemical_formula_structural       Cu4H36C28S4I4N4
_chemical_formula_sum              "Cu4 H36 C28 S4 I4 N4"
_cell_length_a       7.38269
_cell_length_b       9.47368
_cell_length_c       14.8508
_cell_angle_alpha    89.0335
_cell_angle_beta     87.9421
_cell_angle_gamma    68.5111

_space_group_name_H-M_alt    "P 1"
_space_group_IT_number       1

loop_
  _space_group_symop_operation_xyz
  'x, y, z'

loop_
  _atom_site_type_symbol
  _atom_site_label
  _atom_site_symmetry_multiplicity
  _atom_site_fract_x
  _atom_site_fract_y
  _atom_site_fract_z
  _atom_site_occupancy
  Cu  Cu1       1.0  0.52354  0.87095  0.54187  1.0000
  Cu  Cu2       1.0  0.47646  0.12906  0.45813  1.0000
  Cu  Cu3       1.0  0.53721  0.86125  0.96676  1.0000
  Cu  Cu4       1.0  0.46279  0.13875  0.03324  1.0000
  H   H1        1.0  0.49831  0.90127  0.75741  1.0000
  H   H2        1.0  0.50168  0.09873  0.24259  1.0000
  H   H3        1.0  0.87620  0.00110  0.60208  1.0000
  H   H4        1.0  0.12381  0.99891  0.39793  1.0000
  H   H5        1.0  0.65760  0.07839  0.66895  1.0000
  H   H6        1.0  0.34240  0.92161  0.33105  1.0000
  H   H7        1.0  0.05940  0.87739  0.73894  1.0000
  H   H8        1.0  0.94060  0.12262  0.26106  1.0000
  H   H9        1.0  0.96544  0.07563  0.74703  1.0000
  H   H10       1.0  0.03456  0.92437  0.25297  1.0000
  H   H11       1.0  0.67787  0.06589  0.84231  1.0000
  H   H12       1.0  0.32213  0.93412  0.15769  1.0000
  H   H13       1.0  0.90621  0.97451  0.89294  1.0000
  H   H14       1.0  0.09379  0.02549  0.10706  1.0000
  H   H15       1.0  0.29403  0.77347  0.80529  1.0000
  H   H16       1.0  0.70597  0.22652  0.19471  1.0000
  H   H17       1.0  0.20056  0.54611  0.79965  1.0000
  H   H18       1.0  0.79945  0.45388  0.20035  1.0000
  H   H19       1.0  0.44222  0.29986  0.74489  1.0000
  H   H20       1.0  0.55780  0.70014  0.25511  1.0000
  H   H21       1.0  0.77816  0.28359  0.69577  1.0000
  H   H22       1.0  0.22186  0.71641  0.30423  1.0000
  H   H23       1.0  0.86848  0.50945  0.70234  1.0000
  H   H24       1.0  0.13152  0.49055  0.29766  1.0000
  H   H25       1.0  0.24047  0.48441  0.46170  1.0000
  H   H26       1.0  0.75953  0.51560  0.53830  1.0000
  H   H27       1.0  0.03798  0.62310  0.51986  1.0000
  H   H28       1.0  0.96200  0.37690  0.48014  1.0000
  H   H29       1.0  0.22306  0.47934  0.58154  1.0000
  H   H30       1.0  0.77694  0.52067  0.41846  1.0000
  H   H31       1.0  0.03699  0.63014  0.00569  1.0000
  H   H32       1.0  0.96301  0.36986  0.99431  1.0000
  H   H33       1.0  0.18238  0.53701  0.09785  1.0000
  H   H34       1.0  0.81762  0.46299  0.90214  1.0000
  H   H35       1.0  0.24936  0.45999  0.98707  1.0000
  H   H36       1.0  0.75063  0.54001  0.01293  1.0000
  C   C1        1.0  0.63180  0.79894  0.75237  1.0000
  C   C2        1.0  0.36820  0.20106  0.24763  1.0000
  C   C3        1.0  0.80079  0.98559  0.66445  1.0000
  C   C4        1.0  0.19921  0.01442  0.33555  1.0000
  C   C5        1.0  0.92289  0.97576  0.74619  1.0000
  C   C6        1.0  0.07711  0.02424  0.25381  1.0000
  C   C7        1.0  0.81835  0.97053  0.83549  1.0000
  C   C8        1.0  0.18165  0.02947  0.16451  1.0000
  C   C9        1.0  0.58394  0.65769  0.75191  1.0000
  C   C10       1.0  0.41607  0.34230  0.24809  1.0000
  C   C11       1.0  0.39775  0.66560  0.78045  1.0000
  C   C12       1.0  0.60226  0.33440  0.21955  1.0000
  C   C13       1.0  0.34724  0.53745  0.77815  1.0000
  C   C14       1.0  0.65277  0.46254  0.22185  1.0000
  C   C15       1.0  0.48325  0.39930  0.74744  1.0000
  C   C16       1.0  0.51677  0.60069  0.25257  1.0000
  C   C17       1.0  0.67049  0.39014  0.72020  1.0000
  C   C18       1.0  0.32953  0.60985  0.27979  1.0000
  C   C19       1.0  0.72147  0.51804  0.72311  1.0000
  C   C20       1.0  0.27854  0.48195  0.27689  1.0000
  C   C21       1.0  0.30026  0.65545  0.52618  1.0000
  C   C22       1.0  0.69973  0.34456  0.47382  1.0000
  C   C23       1.0  0.19440  0.55486  0.52243  1.0000
  C   C24       1.0  0.80560  0.44514  0.47758  1.0000
  C   C25       1.0  0.30254  0.65794  0.01168  1.0000
  C   C26       1.0  0.69745  0.34205  0.98832  1.0000
  C   C27       1.0  0.18659  0.56558  0.02597  1.0000
  C   C28       1.0  0.81340  0.43442  0.97402  1.0000
  S   S1        1.0  0.75889  0.81113  0.64667  1.0000
  S   S2        1.0  0.24110  0.18888  0.35333  1.0000
  S   S3        1.0  0.77112  0.79624  0.85268  1.0000
  S   S4        1.0  0.22888  0.20377  0.14732  1.0000
  I   I1        1.0  0.74888  0.86819  0.39848  1.0000
  I   I2        1.0  0.25112  0.13181  0.60152  1.0000
  I   I3        1.0  0.74115  0.89133  0.10180  1.0000
  I   I4        1.0  0.25885  0.10867  0.89820  1.0000
  N   N1        1.0  0.38503  0.73746  0.52893  1.0000
  N   N2        1.0  0.61495  0.26255  0.47107  1.0000
  N   N3        1.0  0.39528  0.73316  0.99880  1.0000
  N   N4        1.0  0.60472  0.26684  0.00120  1.0000
