data_image0
_chemical_formula_structural       Cu4H36C28S4I4N4
_chemical_formula_sum              "Cu4 H36 C28 S4 I4 N4"
_cell_length_a       7.60683
_cell_length_b       9.39446
_cell_length_c       14.781
_cell_angle_alpha    90.0001
_cell_angle_beta     89.9999
_cell_angle_gamma    110.775

_space_group_name_H-M_alt    "P 1"
_space_group_IT_number       1

loop_
  _space_group_symop_operation_xyz
  'x, y, z'

loop_
  _atom_site_type_symbol
  _atom_site_label
  _atom_site_symmetry_multiplicity
  _atom_site_fract_x
  _atom_site_fract_y
  _atom_site_fract_z
  _atom_site_occupancy
  Cu  Cu1       1.0  0.52930  0.13425  0.46267  1.0000
  Cu  Cu2       1.0  0.47069  0.86575  0.96267  1.0000
  Cu  Cu3       1.0  0.47070  0.86574  0.53733  1.0000
  Cu  Cu4       1.0  0.52931  0.13425  0.03733  1.0000
  H   H1        1.0  0.50087  0.09556  0.25000  1.0000
  H   H2        1.0  0.49913  0.90444  0.75000  1.0000
  H   H3        1.0  0.88539  0.01100  0.39657  1.0000
  H   H4        1.0  0.11461  0.98900  0.89657  1.0000
  H   H5        1.0  0.11461  0.98900  0.60343  1.0000
  H   H6        1.0  0.88539  0.01100  0.10343  1.0000
  H   H7        1.0  0.67020  0.92476  0.33728  1.0000
  H   H8        1.0  0.32980  0.07524  0.83728  1.0000
  H   H9        1.0  0.32980  0.07524  0.66272  1.0000
  H   H10       1.0  0.67020  0.92476  0.16272  1.0000
  H   H11       1.0  0.96940  0.93124  0.25000  1.0000
  H   H12       1.0  0.03060  0.06877  0.75000  1.0000
  H   H13       1.0  0.04183  0.12992  0.25000  1.0000
  H   H14       1.0  0.95817  0.87008  0.75000  1.0000
  H   H15       1.0  0.28671  0.21402  0.25000  1.0000
  H   H16       1.0  0.71329  0.78598  0.75000  1.0000
  H   H17       1.0  0.19512  0.44499  0.25000  1.0000
  H   H18       1.0  0.80488  0.55501  0.75000  1.0000
  H   H19       1.0  0.44428  0.70262  0.25000  1.0000
  H   H20       1.0  0.55572  0.29738  0.75000  1.0000
  H   H21       1.0  0.78348  0.72636  0.25000  1.0000
  H   H22       1.0  0.21652  0.27364  0.75000  1.0000
  H   H23       1.0  0.87015  0.49697  0.25000  1.0000
  H   H24       1.0  0.12985  0.50304  0.75000  1.0000
  H   H25       1.0  0.23371  0.53248  0.44817  1.0000
  H   H26       1.0  0.76629  0.46752  0.94817  1.0000
  H   H27       1.0  0.76629  0.46751  0.55183  1.0000
  H   H28       1.0  0.23372  0.53248  0.05183  1.0000
  H   H29       1.0  0.20145  0.48625  0.56578  1.0000
  H   H30       1.0  0.79855  0.51375  0.06578  1.0000
  H   H31       1.0  0.79855  0.51374  0.43422  1.0000
  H   H32       1.0  0.20145  0.48625  0.93422  1.0000
  H   H33       1.0  0.04152  0.36650  0.48536  1.0000
  H   H34       1.0  0.95848  0.63350  0.98536  1.0000
  H   H35       1.0  0.95849  0.63349  0.51464  1.0000
  H   H36       1.0  0.04152  0.36651  0.01464  1.0000
  C   C1        1.0  0.62894  0.19828  0.25000  1.0000
  C   C2        1.0  0.37106  0.80172  0.75000  1.0000
  C   C3        1.0  0.80554  0.02040  0.33632  1.0000
  C   C4        1.0  0.19446  0.97960  0.83632  1.0000
  C   C5        1.0  0.19446  0.97960  0.66368  1.0000
  C   C6        1.0  0.80554  0.02040  0.16368  1.0000
  C   C7        1.0  0.91648  0.02613  0.25000  1.0000
  C   C8        1.0  0.08352  0.97387  0.75000  1.0000
  C   C9        1.0  0.58143  0.34033  0.25000  1.0000
  C   C10       1.0  0.41857  0.65967  0.75000  1.0000
  C   C11       1.0  0.39291  0.32776  0.25000  1.0000
  C   C12       1.0  0.60709  0.67224  0.75000  1.0000
  C   C13       1.0  0.34329  0.45710  0.25000  1.0000
  C   C14       1.0  0.65671  0.54290  0.75000  1.0000
  C   C15       1.0  0.48347  0.60159  0.25000  1.0000
  C   C16       1.0  0.51653  0.39840  0.75000  1.0000
  C   C17       1.0  0.67253  0.61483  0.25000  1.0000
  C   C18       1.0  0.32747  0.38517  0.75000  1.0000
  C   C19       1.0  0.72207  0.48531  0.25000  1.0000
  C   C20       1.0  0.27793  0.51470  0.75000  1.0000
  C   C21       1.0  0.30410  0.34569  0.48986  1.0000
  C   C22       1.0  0.69590  0.65431  0.98986  1.0000
  C   C23       1.0  0.69591  0.65431  0.51014  1.0000
  C   C24       1.0  0.30409  0.34568  0.01014  1.0000
  C   C25       1.0  0.18905  0.43832  0.49726  1.0000
  C   C26       1.0  0.81095  0.56168  0.99726  1.0000
  C   C27       1.0  0.81096  0.56167  0.50274  1.0000
  C   C28       1.0  0.18905  0.43832  0.00274  1.0000
  S   S1        1.0  0.75753  0.19454  0.35383  1.0000
  S   S2        1.0  0.24247  0.80546  0.85383  1.0000
  S   S3        1.0  0.24247  0.80546  0.64617  1.0000
  S   S4        1.0  0.75753  0.19455  0.14617  1.0000
  I   I1        1.0  0.74051  0.11824  0.60175  1.0000
  I   I2        1.0  0.25949  0.88175  0.10175  1.0000
  I   I3        1.0  0.25949  0.88175  0.39825  1.0000
  I   I4        1.0  0.74051  0.11825  0.89825  1.0000
  N   N1        1.0  0.39493  0.26909  0.48361  1.0000
  N   N2        1.0  0.60507  0.73091  0.98361  1.0000
  N   N3        1.0  0.60508  0.73091  0.51639  1.0000
  N   N4        1.0  0.39492  0.26909  0.01639  1.0000
