data_image0
_chemical_formula_structural       Zn2H28C28N8O8
_chemical_formula_sum              "Zn2 H28 C28 N8 O8"
_cell_length_a       9.42247
_cell_length_b       9.82528
_cell_length_c       9.82528
_cell_angle_alpha    76.2891
_cell_angle_beta     68.2759
_cell_angle_gamma    68.2759

_space_group_name_H-M_alt    "P 1"
_space_group_IT_number       1

loop_
  _space_group_symop_operation_xyz
  'x, y, z'

loop_
  _atom_site_type_symbol
  _atom_site_label
  _atom_site_symmetry_multiplicity
  _atom_site_fract_x
  _atom_site_fract_y
  _atom_site_fract_z
  _atom_site_occupancy
  Zn  Zn1       1.0  0.99500  0.71374  0.34521  1.0000
  Zn  Zn2       1.0  0.49500  0.34521  0.71374  1.0000
  H   H1        1.0  0.71460  0.81716  0.17185  1.0000
  H   H2        1.0  0.21460  0.17185  0.81716  1.0000
  H   H3        1.0  0.89834  0.60357  0.07045  1.0000
  H   H4        1.0  0.39834  0.07046  0.60357  1.0000
  H   H5        1.0  0.13308  0.53521  0.57045  1.0000
  H   H6        1.0  0.63308  0.57045  0.53521  1.0000
  H   H7        1.0  0.06617  0.50032  0.84228  1.0000
  H   H8        1.0  0.56617  0.84228  0.50032  1.0000
  H   H9        1.0  0.65142  0.89241  0.85496  1.0000
  H   H10       1.0  0.15142  0.85496  0.89241  1.0000
  H   H11       1.0  0.73881  0.91308  0.58224  1.0000
  H   H12       1.0  0.23882  0.58224  0.91308  1.0000
  H   H13       1.0  0.31423  0.55976  0.12569  1.0000
  H   H14       1.0  0.81423  0.12569  0.55976  1.0000
  H   H15       1.0  0.59117  0.57574  0.03144  1.0000
  H   H16       1.0  0.09117  0.03144  0.57574  1.0000
  H   H17       1.0  0.42023  0.93235  0.29776  1.0000
  H   H18       1.0  0.92023  0.29776  0.93235  1.0000
  H   H19       1.0  0.14763  0.90794  0.37252  1.0000
  H   H20       1.0  0.64763  0.37253  0.90794  1.0000
  H   H21       1.0  0.02145  0.23612  0.33517  1.0000
  H   H22       1.0  0.52145  0.33517  0.23611  1.0000
  H   H23       1.0  0.21977  0.23259  0.30252  1.0000
  H   H24       1.0  0.71977  0.30252  0.23259  1.0000
  H   H25       1.0  0.20439  0.10263  0.11818  1.0000
  H   H26       1.0  0.70439  0.11818  0.10263  1.0000
  H   H27       1.0  0.06461  0.26358  0.06575  1.0000
  H   H28       1.0  0.56461  0.06575  0.26358  1.0000
  C   C1        1.0  0.02780  0.61216  0.63785  1.0000
  C   C2        1.0  0.52780  0.63785  0.61216  1.0000
  C   C3        1.0  0.98975  0.59261  0.78897  1.0000
  C   C4        1.0  0.48975  0.78897  0.59261  1.0000
  C   C5        1.0  0.85041  0.69286  0.87315  1.0000
  C   C6        1.0  0.35041  0.87315  0.69286  1.0000
  C   C7        1.0  0.75849  0.81059  0.79632  1.0000
  C   C8        1.0  0.25849  0.79632  0.81059  1.0000
  C   C9        1.0  0.80707  0.82198  0.64402  1.0000
  C   C10       1.0  0.30708  0.64402  0.82198  1.0000
  C   C11       1.0  0.34194  0.64232  0.15976  1.0000
  C   C12       1.0  0.84194  0.15976  0.64232  1.0000
  C   C13       1.0  0.49656  0.65057  0.10794  1.0000
  C   C14       1.0  0.99656  0.10795  0.65057  1.0000
  C   C15       1.0  0.53149  0.75446  0.15752  1.0000
  C   C16       1.0  0.03149  0.15752  0.75446  1.0000
  C   C17       1.0  0.40207  0.84875  0.25626  1.0000
  C   C18       1.0  0.90207  0.25626  0.84875  1.0000
  C   C19       1.0  0.25087  0.83483  0.29961  1.0000
  C   C20       1.0  0.75087  0.29962  0.83483  1.0000
  C   C21       1.0  0.06447  0.44337  0.24970  1.0000
  C   C22       1.0  0.56447  0.24970  0.44337  1.0000
  C   C23       1.0  0.11957  0.27642  0.25606  1.0000
  C   C24       1.0  0.61958  0.25606  0.27642  1.0000
  C   C25       1.0  0.16811  0.22389  0.10707  1.0000
  C   C26       1.0  0.66811  0.10707  0.22389  1.0000
  C   C27       1.0  0.30560  0.27235  0.99145  1.0000
  C   C28       1.0  0.80560  0.99145  0.27235  1.0000
  N   N1        1.0  0.21863  0.73304  0.25376  1.0000
  N   N2        1.0  0.71863  0.25376  0.73304  1.0000
  N   N3        1.0  0.68115  0.76921  0.10982  1.0000
  N   N4        1.0  0.18115  0.10982  0.76922  1.0000
  N   N5        1.0  0.80888  0.66772  0.02317  1.0000
  N   N6        1.0  0.30888  0.02317  0.66772  1.0000
  N   N7        1.0  0.93837  0.72456  0.56415  1.0000
  N   N8        1.0  0.43838  0.56415  0.72456  1.0000
  O   O1        1.0  0.02949  0.49583  0.37027  1.0000
  O   O2        1.0  0.52949  0.37027  0.49583  1.0000
  O   O3        1.0  0.05673  0.52361  0.12965  1.0000
  O   O4        1.0  0.55673  0.12965  0.52361  1.0000
  O   O5        1.0  0.40168  0.30683  0.02509  1.0000
  O   O6        1.0  0.90168  0.02509  0.30683  1.0000
  O   O7        1.0  0.31586  0.27288  0.85380  1.0000
  O   O8        1.0  0.81586  0.85380  0.27288  1.0000
