data_image0
_chemical_formula_structural       Cu8H32C16S8Cl8
_chemical_formula_sum              "Cu8 H32 C16 S8 Cl8"
_cell_length_a       6.64702
_cell_length_b       10.4004
_cell_length_c       11.9265
_cell_angle_alpha    90
_cell_angle_beta     97.4858
_cell_angle_gamma    90.0002

_space_group_name_H-M_alt    "P 1"
_space_group_IT_number       1

loop_
  _space_group_symop_operation_xyz
  'x, y, z'

loop_
  _atom_site_type_symbol
  _atom_site_label
  _atom_site_symmetry_multiplicity
  _atom_site_fract_x
  _atom_site_fract_y
  _atom_site_fract_z
  _atom_site_occupancy
  Cu  Cu1       1.0  0.96495  0.44946  0.60189  1.0000
  Cu  Cu2       1.0  0.53505  0.94946  0.39811  1.0000
  Cu  Cu3       1.0  0.03505  0.55054  0.39811  1.0000
  Cu  Cu4       1.0  0.46495  0.05054  0.60189  1.0000
  Cu  Cu5       1.0  0.25824  0.24569  0.82330  1.0000
  Cu  Cu6       1.0  0.24176  0.74569  0.17670  1.0000
  Cu  Cu7       1.0  0.74176  0.75431  0.17670  1.0000
  Cu  Cu8       1.0  0.75824  0.25431  0.82330  1.0000
  H   H1        1.0  0.29721  0.65083  0.75109  1.0000
  H   H2        1.0  0.20280  0.15083  0.24891  1.0000
  H   H3        1.0  0.70279  0.34917  0.24891  1.0000
  H   H4        1.0  0.79720  0.84917  0.75109  1.0000
  H   H5        1.0  0.21902  0.56799  0.86974  1.0000
  H   H6        1.0  0.28097  0.06799  0.13026  1.0000
  H   H7        1.0  0.78098  0.43201  0.13026  1.0000
  H   H8        1.0  0.71902  0.93201  0.86974  1.0000
  H   H9        1.0  0.56648  0.64871  0.92250  1.0000
  H   H10       1.0  0.93352  0.14871  0.07750  1.0000
  H   H11       1.0  0.43352  0.35129  0.07750  1.0000
  H   H12       1.0  0.06648  0.85129  0.92250  1.0000
  H   H13       1.0  0.56923  0.47879  0.92010  1.0000
  H   H14       1.0  0.93077  0.97879  0.07990  1.0000
  H   H15       1.0  0.43077  0.52121  0.07990  1.0000
  H   H16       1.0  0.06922  0.02121  0.92010  1.0000
  H   H17       1.0  0.43799  0.52917  0.58389  1.0000
  H   H18       1.0  0.06202  0.02917  0.41611  1.0000
  H   H19       1.0  0.56201  0.47083  0.41611  1.0000
  H   H20       1.0  0.93798  0.97083  0.58389  1.0000
  H   H21       1.0  0.42910  0.35603  0.56781  1.0000
  H   H22       1.0  0.07090  0.85603  0.43219  1.0000
  H   H23       1.0  0.57090  0.64396  0.43220  1.0000
  H   H24       1.0  0.92910  0.14397  0.56780  1.0000
  H   H25       1.0  0.85811  0.57337  0.83608  1.0000
  H   H26       1.0  0.64189  0.07337  0.16392  1.0000
  H   H27       1.0  0.14189  0.42663  0.16392  1.0000
  H   H28       1.0  0.35810  0.92663  0.83608  1.0000
  H   H29       1.0  0.68774  0.64876  0.72674  1.0000
  H   H30       1.0  0.81227  0.14876  0.27326  1.0000
  H   H31       1.0  0.31227  0.35125  0.27326  1.0000
  H   H32       1.0  0.18773  0.85124  0.72674  1.0000
  C   C1        1.0  0.32757  0.56767  0.80770  1.0000
  C   C2        1.0  0.17243  0.06767  0.19230  1.0000
  C   C3        1.0  0.67243  0.43233  0.19230  1.0000
  C   C4        1.0  0.82757  0.93233  0.80770  1.0000
  C   C5        1.0  0.54499  0.56461  0.86615  1.0000
  C   C6        1.0  0.95501  0.06461  0.13385  1.0000
  C   C7        1.0  0.45501  0.43539  0.13385  1.0000
  C   C8        1.0  0.04499  0.93539  0.86615  1.0000
  C   C9        1.0  0.45375  0.43625  0.62801  1.0000
  C   C10       1.0  0.04625  0.93625  0.37199  1.0000
  C   C11       1.0  0.54625  0.56375  0.37199  1.0000
  C   C12       1.0  0.95375  0.06375  0.62801  1.0000
  C   C13       1.0  0.70657  0.56851  0.78732  1.0000
  C   C14       1.0  0.79344  0.06851  0.21268  1.0000
  C   C15       1.0  0.29344  0.43149  0.21268  1.0000
  C   C16       1.0  0.20656  0.93149  0.78732  1.0000
  S   S1        1.0  0.70907  0.42252  0.70308  1.0000
  S   S2        1.0  0.79093  0.92252  0.29692  1.0000
  S   S3        1.0  0.29093  0.57748  0.29692  1.0000
  S   S4        1.0  0.20907  0.07748  0.70308  1.0000
  S   S5        1.0  0.26030  0.42608  0.72076  1.0000
  S   S6        1.0  0.23971  0.92608  0.27924  1.0000
  S   S7        1.0  0.73970  0.57392  0.27924  1.0000
  S   S8        1.0  0.76030  0.07392  0.72076  1.0000
  Cl  Cl1       1.0  0.53473  0.17579  0.94525  1.0000
  Cl  Cl2       1.0  0.96527  0.67579  0.05475  1.0000
  Cl  Cl3       1.0  0.46527  0.82421  0.05475  1.0000
  Cl  Cl4       1.0  0.03474  0.32421  0.94525  1.0000
  Cl  Cl5       1.0  0.01559  0.32746  0.44716  1.0000
  Cl  Cl6       1.0  0.48442  0.82746  0.55284  1.0000
  Cl  Cl7       1.0  0.98442  0.67253  0.55284  1.0000
  Cl  Cl8       1.0  0.51558  0.17254  0.44716  1.0000
