data_image0
_chemical_formula_structural       Cu8H64C32S16I8
_chemical_formula_sum              "Cu8 H64 C32 S16 I8"
_cell_length_a       7.69448
_cell_length_b       12.7942
_cell_length_c       15.4536
_cell_angle_alpha    90.0002
_cell_angle_beta     89.9996
_cell_angle_gamma    90

_space_group_name_H-M_alt    "P 1"
_space_group_IT_number       1

loop_
  _space_group_symop_operation_xyz
  'x, y, z'

loop_
  _atom_site_type_symbol
  _atom_site_label
  _atom_site_symmetry_multiplicity
  _atom_site_fract_x
  _atom_site_fract_y
  _atom_site_fract_z
  _atom_site_occupancy
  Cu  Cu1       1.0  0.83808  0.49676  0.53729  1.0000
  Cu  Cu2       1.0  0.66192  0.50324  0.03729  1.0000
  Cu  Cu3       1.0  0.16192  0.99676  0.46271  1.0000
  Cu  Cu4       1.0  0.33808  0.00324  0.96271  1.0000
  Cu  Cu5       1.0  0.16192  0.50324  0.46271  1.0000
  Cu  Cu6       1.0  0.33808  0.49676  0.96271  1.0000
  Cu  Cu7       1.0  0.83808  0.00324  0.53729  1.0000
  Cu  Cu8       1.0  0.66192  0.99676  0.03729  1.0000
  H   H1        1.0  0.97919  0.35716  0.69359  1.0000
  H   H2        1.0  0.52080  0.64284  0.19359  1.0000
  H   H3        1.0  0.02080  0.85716  0.30641  1.0000
  H   H4        1.0  0.47919  0.14284  0.80641  1.0000
  H   H5        1.0  0.02080  0.64284  0.30641  1.0000
  H   H6        1.0  0.47919  0.35716  0.80641  1.0000
  H   H7        1.0  0.97919  0.14284  0.69359  1.0000
  H   H8        1.0  0.52081  0.85716  0.19359  1.0000
  H   H9        1.0  0.81510  0.41917  0.75502  1.0000
  H   H10       1.0  0.68490  0.58083  0.25502  1.0000
  H   H11       1.0  0.18490  0.91917  0.24498  1.0000
  H   H12       1.0  0.31510  0.08083  0.74498  1.0000
  H   H13       1.0  0.18490  0.58083  0.24498  1.0000
  H   H14       1.0  0.31510  0.41917  0.74498  1.0000
  H   H15       1.0  0.81510  0.08083  0.75502  1.0000
  H   H16       1.0  0.68490  0.91917  0.25503  1.0000
  H   H17       1.0  0.67421  0.25000  0.78831  1.0000
  H   H18       1.0  0.82578  0.75000  0.28832  1.0000
  H   H19       1.0  0.32578  0.75000  0.21169  1.0000
  H   H20       1.0  0.17422  0.25000  0.71168  1.0000
  H   H21       1.0  0.89461  0.25000  0.82084  1.0000
  H   H22       1.0  0.60539  0.75000  0.32085  1.0000
  H   H23       1.0  0.10539  0.75000  0.17916  1.0000
  H   H24       1.0  0.39461  0.25000  0.67915  1.0000
  H   H25       1.0  0.90162  0.25000  0.54513  1.0000
  H   H26       1.0  0.59838  0.75000  0.04514  1.0000
  H   H27       1.0  0.09838  0.75000  0.45487  1.0000
  H   H28       1.0  0.40162  0.25000  0.95487  1.0000
  H   H29       1.0  0.68777  0.25000  0.50145  1.0000
  H   H30       1.0  0.81223  0.75000  0.00145  1.0000
  H   H31       1.0  0.31222  0.75000  0.49855  1.0000
  H   H32       1.0  0.18777  0.25000  0.99855  1.0000
  H   H33       1.0  0.53187  0.58113  0.67275  1.0000
  H   H34       1.0  0.96813  0.41887  0.17275  1.0000
  H   H35       1.0  0.46814  0.08112  0.32726  1.0000
  H   H36       1.0  0.03186  0.91888  0.82726  1.0000
  H   H37       1.0  0.46814  0.41888  0.32725  1.0000
  H   H38       1.0  0.03186  0.58112  0.82725  1.0000
  H   H39       1.0  0.53186  0.91888  0.67274  1.0000
  H   H40       1.0  0.96813  0.08112  0.17275  1.0000
  H   H41       1.0  0.73429  0.64655  0.68457  1.0000
  H   H42       1.0  0.76571  0.35346  0.18457  1.0000
  H   H43       1.0  0.26572  0.14654  0.31543  1.0000
  H   H44       1.0  0.23428  0.85346  0.81543  1.0000
  H   H45       1.0  0.26572  0.35346  0.31543  1.0000
  H   H46       1.0  0.23428  0.64654  0.81542  1.0000
  H   H47       1.0  0.73428  0.85347  0.68457  1.0000
  H   H48       1.0  0.76572  0.14654  0.18457  1.0000
  H   H49       1.0  0.48999  0.75001  0.74670  1.0000
  H   H50       1.0  0.01000  0.24999  0.24670  1.0000
  H   H51       1.0  0.51001  0.25000  0.25330  1.0000
  H   H52       1.0  0.98999  0.75000  0.75330  1.0000
  H   H53       1.0  0.37963  0.75000  0.64607  1.0000
  H   H54       1.0  0.12037  0.25000  0.14607  1.0000
  H   H55       1.0  0.62038  0.25000  0.35393  1.0000
  H   H56       1.0  0.87962  0.75000  0.85393  1.0000
  H   H57       1.0  0.80127  0.75000  0.44872  1.0000
  H   H58       1.0  0.69874  0.25000  0.94872  1.0000
  H   H59       1.0  0.19874  0.25000  0.55128  1.0000
  H   H60       1.0  0.30127  0.74999  0.05128  1.0000
  H   H61       1.0  0.88407  0.75000  0.55750  1.0000
  H   H62       1.0  0.61593  0.25000  0.05750  1.0000
  H   H63       1.0  0.11594  0.25000  0.44250  1.0000
  H   H64       1.0  0.38407  0.75000  0.94250  1.0000
  C   C1        1.0  0.84310  0.35066  0.71434  1.0000
  C   C2        1.0  0.65689  0.64934  0.21434  1.0000
  C   C3        1.0  0.15689  0.85066  0.28566  1.0000
  C   C4        1.0  0.34310  0.14934  0.78566  1.0000
  C   C5        1.0  0.15689  0.64934  0.28566  1.0000
  C   C6        1.0  0.34310  0.35066  0.78566  1.0000
  C   C7        1.0  0.84310  0.14935  0.71434  1.0000
  C   C8        1.0  0.65690  0.85066  0.21434  1.0000
  C   C9        1.0  0.80819  0.25000  0.76391  1.0000
  C   C10       1.0  0.69181  0.75000  0.26391  1.0000
  C   C11       1.0  0.19181  0.75000  0.23609  1.0000
  C   C12       1.0  0.30818  0.25000  0.73609  1.0000
  C   C13       1.0  0.76312  0.25000  0.56163  1.0000
  C   C14       1.0  0.73688  0.75000  0.06163  1.0000
  C   C15       1.0  0.23688  0.75000  0.43837  1.0000
  C   C16       1.0  0.26312  0.25000  0.93837  1.0000
  C   C17       1.0  0.60635  0.65028  0.65290  1.0000
  C   C18       1.0  0.89365  0.34972  0.15289  1.0000
  C   C19       1.0  0.39366  0.15027  0.34711  1.0000
  C   C20       1.0  0.10635  0.84972  0.84711  1.0000
  C   C21       1.0  0.39365  0.34973  0.34710  1.0000
  C   C22       1.0  0.10635  0.65027  0.84711  1.0000
  C   C23       1.0  0.60635  0.84973  0.65289  1.0000
  C   C24       1.0  0.89365  0.15027  0.15289  1.0000
  C   C25       1.0  0.50937  0.75001  0.67592  1.0000
  C   C26       1.0  0.99063  0.25000  0.17592  1.0000
  C   C27       1.0  0.49064  0.25000  0.32408  1.0000
  C   C28       1.0  0.00937  0.75000  0.82408  1.0000
  C   C29       1.0  0.76563  0.75000  0.51739  1.0000
  C   C30       1.0  0.73438  0.25000  0.01740  1.0000
  C   C31       1.0  0.23438  0.25000  0.48260  1.0000
  C   C32       1.0  0.26563  0.75000  0.98260  1.0000
  S   S1        1.0  0.70739  0.36841  0.61912  1.0000
  S   S2        1.0  0.79261  0.63159  0.11912  1.0000
  S   S3        1.0  0.29261  0.86841  0.38088  1.0000
  S   S4        1.0  0.20739  0.13159  0.88088  1.0000
  S   S5        1.0  0.29260  0.63159  0.38088  1.0000
  S   S6        1.0  0.20739  0.36841  0.88088  1.0000
  S   S7        1.0  0.70739  0.13158  0.61912  1.0000
  S   S8        1.0  0.79261  0.86841  0.11912  1.0000
  S   S9        1.0  0.64140  0.63219  0.53739  1.0000
  S   S10       1.0  0.85861  0.36781  0.03739  1.0000
  S   S11       1.0  0.35861  0.13219  0.46261  1.0000
  S   S12       1.0  0.14140  0.86781  0.96261  1.0000
  S   S13       1.0  0.35860  0.36782  0.46261  1.0000
  S   S14       1.0  0.14140  0.63218  0.96261  1.0000
  S   S15       1.0  0.64140  0.86782  0.53738  1.0000
  S   S16       1.0  0.85860  0.13218  0.03739  1.0000
  I   I1        1.0  0.88366  0.43593  0.37841  1.0000
  I   I2        1.0  0.61635  0.56407  0.87841  1.0000
  I   I3        1.0  0.11634  0.93593  0.62159  1.0000
  I   I4        1.0  0.38365  0.06407  0.12159  1.0000
  I   I5        1.0  0.11635  0.56406  0.62159  1.0000
  I   I6        1.0  0.38365  0.43593  0.12159  1.0000
  I   I7        1.0  0.88366  0.06407  0.37841  1.0000
  I   I8        1.0  0.61635  0.93594  0.87841  1.0000
