data_image0
_chemical_formula_structural       Cu6H64C32S8I6
_chemical_formula_sum              "Cu6 H64 C32 S8 I6"
_cell_length_a       8.51562
_cell_length_b       9.87637
_cell_length_c       15.8678
_cell_angle_alpha    76.3488
_cell_angle_beta     74.5805
_cell_angle_gamma    84.6041

_space_group_name_H-M_alt    "P 1"
_space_group_IT_number       1

loop_
  _space_group_symop_operation_xyz
  'x, y, z'

loop_
  _atom_site_type_symbol
  _atom_site_label
  _atom_site_symmetry_multiplicity
  _atom_site_fract_x
  _atom_site_fract_y
  _atom_site_fract_z
  _atom_site_occupancy
  Cu  Cu1       1.0  0.97788  0.87952  0.25135  1.0000
  Cu  Cu2       1.0  0.02212  0.12047  0.74865  1.0000
  Cu  Cu3       1.0  0.96318  0.54978  0.25692  1.0000
  Cu  Cu4       1.0  0.03681  0.45021  0.74309  1.0000
  Cu  Cu5       1.0  0.23728  0.68940  0.21294  1.0000
  Cu  Cu6       1.0  0.76272  0.31060  0.78706  1.0000
  H   H1        1.0  0.00279  0.23923  0.22003  1.0000
  H   H2        1.0  0.99721  0.76077  0.77997  1.0000
  H   H3        1.0  0.14865  0.93315  0.38699  1.0000
  H   H4        1.0  0.85136  0.06685  0.61301  1.0000
  H   H5        1.0  0.20668  0.06606  0.28924  1.0000
  H   H6        1.0  0.79332  0.93393  0.71076  1.0000
  H   H7        1.0  0.04669  0.11756  0.47888  1.0000
  H   H8        1.0  0.95332  0.88244  0.52112  1.0000
  H   H9        1.0  0.25690  0.12501  0.42684  1.0000
  H   H10       1.0  0.74311  0.87499  0.57315  1.0000
  H   H11       1.0  0.20416  0.32137  0.30266  1.0000
  H   H12       1.0  0.79584  0.67864  0.69734  1.0000
  H   H13       1.0  0.13022  0.36279  0.40989  1.0000
  H   H14       1.0  0.86978  0.63721  0.59011  1.0000
  H   H15       1.0  0.72650  0.36121  0.22885  1.0000
  H   H16       1.0  0.27350  0.63879  0.77115  1.0000
  H   H17       1.0  0.63861  0.22878  0.32115  1.0000
  H   H18       1.0  0.36139  0.77121  0.67885  1.0000
  H   H19       1.0  0.70663  0.05560  0.22316  1.0000
  H   H20       1.0  0.29336  0.94440  0.77684  1.0000
  H   H21       1.0  0.51710  0.31878  0.15039  1.0000
  H   H22       1.0  0.48290  0.68123  0.84961  1.0000
  H   H23       1.0  0.43760  0.18920  0.24703  1.0000
  H   H24       1.0  0.56239  0.81080  0.75297  1.0000
  H   H25       1.0  0.49462  0.14691  0.13999  1.0000
  H   H26       1.0  0.50537  0.85310  0.86002  1.0000
  H   H27       1.0  0.83333  0.30877  0.07304  1.0000
  H   H28       1.0  0.16667  0.69123  0.92696  1.0000
  H   H29       1.0  0.79070  0.14744  0.05513  1.0000
  H   H30       1.0  0.20929  0.85256  0.94487  1.0000
  H   H31       1.0  0.94723  0.15445  0.10859  1.0000
  H   H32       1.0  0.05277  0.84554  0.89141  1.0000
  H   H33       1.0  0.54842  0.84719  0.23156  1.0000
  H   H34       1.0  0.45158  0.15281  0.76844  1.0000
  H   H35       1.0  0.54586  0.63504  0.04656  1.0000
  H   H36       1.0  0.45414  0.36497  0.95344  1.0000
  H   H37       1.0  0.54711  0.80639  0.06327  1.0000
  H   H38       1.0  0.45289  0.19362  0.93673  1.0000
  H   H39       1.0  0.83064  0.58697  0.07174  1.0000
  H   H40       1.0  0.16935  0.41303  0.92826  1.0000
  H   H41       1.0  0.82075  0.72627  0.97988  1.0000
  H   H42       1.0  0.17925  0.27373  0.02012  1.0000
  H   H43       1.0  0.80927  0.89980  0.07426  1.0000
  H   H44       1.0  0.19074  0.10020  0.92574  1.0000
  H   H45       1.0  0.98863  0.79086  0.06894  1.0000
  H   H46       1.0  0.01137  0.20914  0.93106  1.0000
  H   H47       1.0  0.41479  0.66312  0.37110  1.0000
  H   H48       1.0  0.58521  0.33688  0.62890  1.0000
  H   H49       1.0  0.60639  0.57360  0.36285  1.0000
  H   H50       1.0  0.39361  0.42640  0.63715  1.0000
  H   H51       1.0  0.72056  0.78710  0.38569  1.0000
  H   H52       1.0  0.27944  0.21290  0.61431  1.0000
  H   H53       1.0  0.43885  0.64171  0.53324  1.0000
  H   H54       1.0  0.56114  0.35829  0.46676  1.0000
  H   H55       1.0  0.58935  0.73605  0.55122  1.0000
  H   H56       1.0  0.41065  0.26395  0.44877  1.0000
  H   H57       1.0  0.64721  0.58289  0.50890  1.0000
  H   H58       1.0  0.35279  0.41711  0.49110  1.0000
  H   H59       1.0  0.36317  0.88069  0.44681  1.0000
  H   H60       1.0  0.63683  0.11931  0.55319  1.0000
  H   H61       1.0  0.49115  0.95824  0.34117  1.0000
  H   H62       1.0  0.50885  0.04176  0.65883  1.0000
  H   H63       1.0  0.53985  0.96890  0.44094  1.0000
  H   H64       1.0  0.46016  0.03110  0.55906  1.0000
  C   C1        1.0  0.90021  0.21888  0.28014  1.0000
  C   C2        1.0  0.09979  0.78112  0.71986  1.0000
  C   C3        1.0  0.12221  0.04164  0.35626  1.0000
  C   C4        1.0  0.87780  0.95836  0.64374  1.0000
  C   C5        1.0  0.13532  0.14128  0.41338  1.0000
  C   C6        1.0  0.86469  0.85872  0.58662  1.0000
  C   C7        1.0  0.11590  0.29291  0.36816  1.0000
  C   C8        1.0  0.88410  0.70709  0.63184  1.0000
  C   C9        1.0  0.73491  0.24841  0.25807  1.0000
  C   C10       1.0  0.26509  0.75158  0.74193  1.0000
  C   C11       1.0  0.70047  0.16844  0.19320  1.0000
  C   C12       1.0  0.29952  0.83156  0.80680  1.0000
  C   C13       1.0  0.52819  0.20769  0.18194  1.0000
  C   C14       1.0  0.47181  0.79232  0.81806  1.0000
  C   C15       1.0  0.82551  0.19630  0.10276  1.0000
  C   C16       1.0  0.17448  0.80370  0.89725  1.0000
  C   C17       1.0  0.59552  0.73976  0.25069  1.0000
  C   C18       1.0  0.40448  0.26024  0.74930  1.0000
  C   C19       1.0  0.59665  0.69922  0.08017  1.0000
  C   C20       1.0  0.40335  0.30079  0.91983  1.0000
  C   C21       1.0  0.78158  0.69387  0.05344  1.0000
  C   C22       1.0  0.21842  0.30613  0.94656  1.0000
  C   C23       1.0  0.85519  0.79178  0.09191  1.0000
  C   C24       1.0  0.14481  0.20822  0.90809  1.0000
  C   C25       1.0  0.54749  0.67815  0.35132  1.0000
  C   C26       1.0  0.45252  0.32185  0.64868  1.0000
  C   C27       1.0  0.59014  0.76348  0.41090  1.0000
  C   C28       1.0  0.40986  0.23652  0.58910  1.0000
  C   C29       1.0  0.56520  0.67571  0.50637  1.0000
  C   C30       1.0  0.43480  0.32430  0.49363  1.0000
  C   C31       1.0  0.49059  0.90058  0.40951  1.0000
  C   C32       1.0  0.50941  0.09941  0.59049  1.0000
  S   S1        1.0  0.91892  0.03806  0.34057  1.0000
  S   S2        1.0  0.08109  0.96194  0.65943  1.0000
  S   S3        1.0  0.91302  0.33808  0.35077  1.0000
  S   S4        1.0  0.08698  0.66192  0.64923  1.0000
  S   S5        1.0  0.82049  0.74307  0.21289  1.0000
  S   S6        1.0  0.17951  0.25693  0.78711  1.0000
  S   S7        1.0  0.51140  0.62796  0.19859  1.0000
  S   S8        1.0  0.48860  0.37205  0.80141  1.0000
  I   I1        1.0  0.23511  0.95244  0.12150  1.0000
  I   I2        1.0  0.76489  0.04756  0.87850  1.0000
  I   I3        1.0  0.06767  0.66155  0.38158  1.0000
  I   I4        1.0  0.93233  0.33844  0.61842  1.0000
  I   I5        1.0  0.19271  0.51117  0.11886  1.0000
  I   I6        1.0  0.80729  0.48883  0.88114  1.0000
