data_image0
_chemical_formula_structural       Tb2Ag2H24C48N8O16
_chemical_formula_sum              "Tb2 Ag2 H24 C48 N8 O16"
_cell_length_a       7.37785
_cell_length_b       12.114
_cell_length_c       13.6534
_cell_angle_alpha    116.331
_cell_angle_beta     92.2152
_cell_angle_gamma    90.0291

_space_group_name_H-M_alt    "P 1"
_space_group_IT_number       1

loop_
  _space_group_symop_operation_xyz
  'x, y, z'

loop_
  _atom_site_type_symbol
  _atom_site_label
  _atom_site_symmetry_multiplicity
  _atom_site_fract_x
  _atom_site_fract_y
  _atom_site_fract_z
  _atom_site_occupancy
  Tb  Tb1       1.0  0.74997  0.94377  0.99995  1.0000
  Tb  Tb2       1.0  0.25003  0.05623  0.00005  1.0000
  Ag  Ag1       1.0  1.00000  0.50000  0.50000  1.0000
  Ag  Ag2       1.0  0.50000  1.00000  0.50000  1.0000
  H   H1        1.0  0.98733  0.32427  0.69888  1.0000
  H   H2        1.0  0.51295  0.62548  0.30111  1.0000
  H   H3        1.0  0.01267  0.67573  0.30112  1.0000
  H   H4        1.0  0.48704  0.37452  0.69889  1.0000
  H   H5        1.0  0.87362  0.46157  0.88034  1.0000
  H   H6        1.0  0.62650  0.58146  0.11959  1.0000
  H   H7        1.0  0.12638  0.53843  0.11966  1.0000
  H   H8        1.0  0.37350  0.41854  0.88041  1.0000
  H   H9        1.0  0.94694  0.68789  0.96029  1.0000
  H   H10       1.0  0.55303  0.72778  0.03967  1.0000
  H   H11       1.0  0.05306  0.31211  0.03971  1.0000
  H   H12       1.0  0.44697  0.27222  0.96033  1.0000
  H   H13       1.0  0.73205  0.73563  0.67203  1.0000
  H   H14       1.0  0.76834  0.06376  0.32801  1.0000
  H   H15       1.0  0.26794  0.26437  0.32797  1.0000
  H   H16       1.0  0.23167  0.93624  0.67199  1.0000
  H   H17       1.0  0.30684  0.60578  0.41784  1.0000
  H   H18       1.0  0.19371  0.18774  0.58210  1.0000
  H   H19       1.0  0.69316  0.39422  0.58215  1.0000
  H   H20       1.0  0.80630  0.81226  0.41790  1.0000
  H   H21       1.0  0.61891  0.69638  0.48196  1.0000
  H   H22       1.0  0.88184  0.21451  0.51805  1.0000
  H   H23       1.0  0.38110  0.30362  0.51804  1.0000
  H   H24       1.0  0.11816  0.78548  0.48196  1.0000
  C   C1        1.0  0.02303  0.42223  0.73640  1.0000
  C   C2        1.0  0.47710  0.68589  0.26359  1.0000
  C   C3        1.0  0.97697  0.57777  0.26360  1.0000
  C   C4        1.0  0.52289  0.31411  0.73641  1.0000
  C   C5        1.0  0.14515  0.80330  0.87026  1.0000
  C   C6        1.0  0.35499  0.93315  0.12982  1.0000
  C   C7        1.0  0.85485  0.19670  0.12974  1.0000
  C   C8        1.0  0.64500  0.06685  0.87018  1.0000
  C   C9        1.0  0.95683  0.49935  0.83799  1.0000
  C   C10       1.0  0.54326  0.66151  0.16198  1.0000
  C   C11       1.0  0.04317  0.50065  0.16201  1.0000
  C   C12       1.0  0.45674  0.33849  0.83802  1.0000
  C   C13       1.0  0.99781  0.62450  0.88165  1.0000
  C   C14       1.0  0.50222  0.74295  0.11831  1.0000
  C   C15       1.0  0.00219  0.37550  0.11834  1.0000
  C   C16       1.0  0.49778  0.25705  0.88169  1.0000
  C   C17       1.0  0.31277  0.61513  0.66321  1.0000
  C   C18       1.0  0.18722  0.95172  0.33674  1.0000
  C   C19       1.0  0.68723  0.38487  0.33678  1.0000
  C   C20       1.0  0.81278  0.04828  0.66326  1.0000
  C   C21       1.0  0.48878  0.66162  0.70362  1.0000
  C   C22       1.0  0.01128  0.95794  0.29637  1.0000
  C   C23       1.0  0.51122  0.33838  0.29638  1.0000
  C   C24       1.0  0.98872  0.04207  0.70364  1.0000
  C   C25       1.0  0.59826  0.69454  0.63934  1.0000
  C   C26       1.0  0.90202  0.05522  0.36069  1.0000
  C   C27       1.0  0.40174  0.30545  0.36066  1.0000
  C   C28       1.0  0.09798  0.94478  0.63932  1.0000
  C   C29       1.0  0.10965  0.66829  0.82522  1.0000
  C   C30       1.0  0.39038  0.84308  0.17478  1.0000
  C   C31       1.0  0.89035  0.33171  0.17478  1.0000
  C   C32       1.0  0.60963  0.15692  0.82522  1.0000
  C   C33       1.0  0.36191  0.62468  0.49911  1.0000
  C   C34       1.0  0.13849  0.12540  0.50086  1.0000
  C   C35       1.0  0.63809  0.37532  0.50089  1.0000
  C   C36       1.0  0.86151  0.87460  0.49914  1.0000
  C   C37       1.0  0.18225  0.58153  0.72731  1.0000
  C   C38       1.0  0.31768  0.85408  0.27263  1.0000
  C   C39       1.0  0.81775  0.41847  0.27269  1.0000
  C   C40       1.0  0.68232  0.14592  0.72737  1.0000
  C   C41       1.0  0.55816  0.67360  0.81365  1.0000
  C   C42       1.0  0.94176  0.86005  0.18629  1.0000
  C   C43       1.0  0.44184  0.32640  0.18635  1.0000
  C   C44       1.0  0.05824  0.13996  0.81372  1.0000
  C   C45       1.0  0.53463  0.67516  0.53530  1.0000
  C   C46       1.0  0.96587  0.13984  0.46470  1.0000
  C   C47       1.0  0.46537  0.32484  0.46470  1.0000
  C   C48       1.0  0.03413  0.86016  0.53530  1.0000
  N   N1        1.0  0.13290  0.46132  0.68130  1.0000
  N   N2        1.0  0.36710  0.77991  0.31865  1.0000
  N   N3        1.0  0.86710  0.53868  0.31870  1.0000
  N   N4        1.0  0.63290  0.22009  0.68135  1.0000
  N   N5        1.0  0.25268  0.59624  0.56222  1.0000
  N   N6        1.0  0.24746  0.03379  0.43771  1.0000
  N   N7        1.0  0.74732  0.40375  0.43777  1.0000
  N   N8        1.0  0.75254  0.96621  0.56229  1.0000
  O   O1        1.0  0.27117  0.84830  0.83870  1.0000
  O   O2        1.0  0.22921  0.00980  0.16150  1.0000
  O   O3        1.0  0.72882  0.15170  0.16130  1.0000
  O   O4        1.0  0.77079  0.99020  0.83850  1.0000
  O   O5        1.0  0.50431  0.59805  0.84528  1.0000
  O   O6        1.0  0.99546  0.75283  0.15444  1.0000
  O   O7        1.0  0.49569  0.40195  0.15472  1.0000
  O   O8        1.0  0.00454  0.24717  0.84556  1.0000
  O   O9        1.0  0.67453  0.76204  0.86512  1.0000
  O   O10       1.0  0.82542  0.89718  0.13498  1.0000
  O   O11       1.0  0.32546  0.23796  0.13489  1.0000
  O   O12       1.0  0.17458  0.10283  0.86502  1.0000
  O   O13       1.0  0.04424  0.87672  0.94790  1.0000
  O   O14       1.0  0.45578  0.92884  0.05209  1.0000
  O   O15       1.0  0.95575  0.12328  0.05210  1.0000
  O   O16       1.0  0.54421  0.07116  0.94791  1.0000
