data_image0
_chemical_formula_structural       Cd2H28C36N12O10
_chemical_formula_sum              "Cd2 H28 C36 N12 O10"
_cell_length_a       7.97566
_cell_length_b       9.22005
_cell_length_c       13.2957
_cell_angle_alpha    104.295
_cell_angle_beta     107.541
_cell_angle_gamma    92.4649

_space_group_name_H-M_alt    "P 1"
_space_group_IT_number       1

loop_
  _space_group_symop_operation_xyz
  'x, y, z'

loop_
  _atom_site_type_symbol
  _atom_site_label
  _atom_site_symmetry_multiplicity
  _atom_site_fract_x
  _atom_site_fract_y
  _atom_site_fract_z
  _atom_site_occupancy
  Cd  Cd1       1.0  0.44994  0.01378  0.27054  1.0000
  Cd  Cd2       1.0  0.55005  0.98622  0.72946  1.0000
  H   H1        1.0  0.91010  0.80680  0.84289  1.0000
  H   H2        1.0  0.08991  0.19321  0.15712  1.0000
  H   H3        1.0  0.91293  0.96294  0.05176  1.0000
  H   H4        1.0  0.08709  0.03706  0.94825  1.0000
  H   H5        1.0  0.80785  0.74388  0.13269  1.0000
  H   H6        1.0  0.19216  0.25611  0.86732  1.0000
  H   H7        1.0  0.71576  0.53092  0.14486  1.0000
  H   H8        1.0  0.28422  0.46908  0.85513  1.0000
  H   H9        1.0  0.57926  0.05880  0.97812  1.0000
  H   H10       1.0  0.42075  0.94120  0.02187  1.0000
  H   H11       1.0  0.72522  0.34402  0.81363  1.0000
  H   H12       1.0  0.27478  0.65598  0.18637  1.0000
  H   H13       1.0  0.84314  0.01577  0.26546  1.0000
  H   H14       1.0  0.15686  0.98423  0.73455  1.0000
  H   H15       1.0  0.58151  0.79320  0.42136  1.0000
  H   H16       1.0  0.41849  0.20679  0.57865  1.0000
  H   H17       1.0  0.14153  0.75878  0.47110  1.0000
  H   H18       1.0  0.85847  0.24122  0.52890  1.0000
  H   H19       1.0  0.13785  0.66814  0.60329  1.0000
  H   H20       1.0  0.86215  0.33185  0.39670  1.0000
  H   H21       1.0  0.01554  0.50912  0.72198  1.0000
  H   H22       1.0  0.98446  0.49088  0.27802  1.0000
  H   H23       1.0  0.65291  0.49935  0.64265  1.0000
  H   H24       1.0  0.34709  0.50064  0.35735  1.0000
  H   H25       1.0  0.57727  0.30778  0.34700  1.0000
  H   H26       1.0  0.42273  0.69223  0.65299  1.0000
  H   H27       1.0  0.48607  0.28795  0.43582  1.0000
  H   H28       1.0  0.51394  0.71205  0.56417  1.0000
  C   C1        1.0  0.87880  0.76384  0.90515  1.0000
  C   C2        1.0  0.12120  0.23617  0.09485  1.0000
  C   C3        1.0  0.87873  0.84351  0.01102  1.0000
  C   C4        1.0  0.12128  0.15649  0.98898  1.0000
  C   C5        1.0  0.82620  0.73480  0.05403  1.0000
  C   C6        1.0  0.17380  0.26520  0.94597  1.0000
  C   C7        1.0  0.73636  0.45691  0.98000  1.0000
  C   C8        1.0  0.26363  0.54310  0.02000  1.0000
  C   C9        1.0  0.70156  0.43734  0.07315  1.0000
  C   C10       1.0  0.29843  0.56266  0.92684  1.0000
  C   C11       1.0  0.64522  0.29298  0.07430  1.0000
  C   C12       1.0  0.35478  0.70702  0.92570  1.0000
  C   C13       1.0  0.60549  0.26440  0.17229  1.0000
  C   C14       1.0  0.39450  0.73561  0.82770  1.0000
  C   C15       1.0  0.62316  0.17348  0.98149  1.0000
  C   C16       1.0  0.37685  0.82652  0.01851  1.0000
  C   C17       1.0  0.70565  0.33182  0.88883  1.0000
  C   C18       1.0  0.29435  0.66818  0.11117  1.0000
  C   C19       1.0  0.17218  0.92714  0.33541  1.0000
  C   C20       1.0  0.82782  0.07287  0.66459  1.0000
  C   C21       1.0  0.01051  0.88850  0.36401  1.0000
  C   C22       1.0  0.98949  0.11149  0.63599  1.0000
  C   C23       1.0  0.85155  0.94225  0.31920  1.0000
  C   C24       1.0  0.14845  0.05775  0.68080  1.0000
  C   C25       1.0  0.70569  0.81809  0.40724  1.0000
  C   C26       1.0  0.29432  0.18191  0.59276  1.0000
  C   C27       1.0  0.86116  0.76331  0.45749  1.0000
  C   C28       1.0  0.13884  0.23669  0.54250  1.0000
  C   C29       1.0  0.01624  0.79815  0.43483  1.0000
  C   C30       1.0  0.98376  0.20184  0.56517  1.0000
  C   C31       1.0  0.00382  0.63696  0.60041  1.0000
  C   C32       1.0  0.99618  0.36304  0.39959  1.0000
  C   C33       1.0  0.93936  0.55625  0.65841  1.0000
  C   C34       1.0  0.06064  0.44375  0.34159  1.0000
  C   C35       1.0  0.75335  0.55115  0.61809  1.0000
  C   C36       1.0  0.24666  0.44885  0.38191  1.0000
  N   N1        1.0  0.83032  0.61609  0.88397  1.0000
  N   N2        1.0  0.16968  0.38392  0.11603  1.0000
  N   N3        1.0  0.79750  0.59967  0.97564  1.0000
  N   N4        1.0  0.20249  0.40033  0.02436  1.0000
  N   N5        1.0  0.64921  0.19346  0.89050  1.0000
  N   N6        1.0  0.35079  0.80654  0.10950  1.0000
  N   N7        1.0  0.70328  0.90607  0.34028  1.0000
  N   N8        1.0  0.29672  0.09393  0.65972  1.0000
  N   N9        1.0  0.86002  0.67673  0.53052  1.0000
  N   N10       1.0  0.13999  0.32326  0.46948  1.0000
  N   N11       1.0  0.70487  0.62442  0.54088  1.0000
  N   N12       1.0  0.29513  0.37557  0.45912  1.0000
  O   O1        1.0  0.60728  0.37655  0.24970  1.0000
  O   O2        1.0  0.39271  0.62345  0.75029  1.0000
  O   O3        1.0  0.57383  0.12496  0.16741  1.0000
  O   O4        1.0  0.42616  0.87504  0.83259  1.0000
  O   O5        1.0  0.57112  0.24481  0.39874  1.0000
  O   O6        1.0  0.42889  0.75520  0.60126  1.0000
  O   O7        1.0  0.16556  0.02778  0.28326  1.0000
  O   O8        1.0  0.83444  0.97223  0.71675  1.0000
  O   O9        1.0  0.30539  0.85841  0.36300  1.0000
  O   O10       1.0  0.69462  0.14161  0.63701  1.0000
