data_image0
_chemical_formula_structural       Cd4H32C36N12Cl4O12
_chemical_formula_sum              "Cd4 H32 C36 N12 Cl4 O12"
_cell_length_a       8.09643
_cell_length_b       10.8436
_cell_length_c       13.2248
_cell_angle_alpha    90.0002
_cell_angle_beta     89.9998
_cell_angle_gamma    105.455

_space_group_name_H-M_alt    "P 1"
_space_group_IT_number       1

loop_
  _space_group_symop_operation_xyz
  'x, y, z'

loop_
  _atom_site_type_symbol
  _atom_site_label
  _atom_site_symmetry_multiplicity
  _atom_site_fract_x
  _atom_site_fract_y
  _atom_site_fract_z
  _atom_site_occupancy
  Cd  Cd1       1.0  0.51804  0.92879  0.37224  1.0000
  Cd  Cd2       1.0  0.48196  0.57121  0.87224  1.0000
  Cd  Cd3       1.0  0.48196  0.07121  0.62776  1.0000
  Cd  Cd4       1.0  0.51804  0.42879  0.12776  1.0000
  H   H1        1.0  0.12205  0.94358  0.35767  1.0000
  H   H2        1.0  0.87795  0.55641  0.85767  1.0000
  H   H3        1.0  0.87796  0.05641  0.64233  1.0000
  H   H4        1.0  0.12205  0.44359  0.14233  1.0000
  H   H5        1.0  0.78938  0.56033  0.35956  1.0000
  H   H6        1.0  0.21061  0.93967  0.85956  1.0000
  H   H7        1.0  0.21061  0.43967  0.64044  1.0000
  H   H8        1.0  0.78939  0.06033  0.14044  1.0000
  H   H9        1.0  0.34121  0.63946  0.37517  1.0000
  H   H10       1.0  0.65879  0.86054  0.87517  1.0000
  H   H11       1.0  0.65879  0.36054  0.62483  1.0000
  H   H12       1.0  0.34121  0.13946  0.12483  1.0000
  H   H13       1.0  0.77486  0.36547  0.38229  1.0000
  H   H14       1.0  0.22513  0.13453  0.88229  1.0000
  H   H15       1.0  0.22514  0.63453  0.61771  1.0000
  H   H16       1.0  0.77487  0.86547  0.11771  1.0000
  H   H17       1.0  0.87186  0.14287  0.40156  1.0000
  H   H18       1.0  0.12814  0.35713  0.90156  1.0000
  H   H19       1.0  0.12814  0.85713  0.59844  1.0000
  H   H20       1.0  0.87186  0.64287  0.09844  1.0000
  H   H21       1.0  0.22526  0.22104  0.39567  1.0000
  H   H22       1.0  0.77473  0.27896  0.89567  1.0000
  H   H23       1.0  0.77474  0.77896  0.60433  1.0000
  H   H24       1.0  0.22526  0.72104  0.10433  1.0000
  H   H25       1.0  0.56456  0.07838  0.19100  1.0000
  H   H26       1.0  0.43544  0.42161  0.69100  1.0000
  H   H27       1.0  0.43544  0.92162  0.80900  1.0000
  H   H28       1.0  0.56456  0.57838  0.30900  1.0000
  H   H29       1.0  0.40396  0.95871  0.17036  1.0000
  H   H30       1.0  0.59604  0.54130  0.67036  1.0000
  H   H31       1.0  0.59604  0.04129  0.82964  1.0000
  H   H32       1.0  0.40396  0.45870  0.32964  1.0000
  C   C1        1.0  0.10203  0.84014  0.35880  1.0000
  C   C2        1.0  0.89797  0.65986  0.85880  1.0000
  C   C3        1.0  0.89797  0.15986  0.64120  1.0000
  C   C4        1.0  0.10203  0.34014  0.14120  1.0000
  C   C5        1.0  0.93676  0.75755  0.35701  1.0000
  C   C6        1.0  0.06324  0.74245  0.85701  1.0000
  C   C7        1.0  0.06324  0.24245  0.64299  1.0000
  C   C8        1.0  0.93676  0.25755  0.14299  1.0000
  C   C9        1.0  0.91701  0.62590  0.36064  1.0000
  C   C10       1.0  0.08298  0.87410  0.86065  1.0000
  C   C11       1.0  0.08299  0.37410  0.63936  1.0000
  C   C12       1.0  0.91702  0.12590  0.13935  1.0000
  C   C13       1.0  0.06268  0.58076  0.36746  1.0000
  C   C14       1.0  0.93732  0.91925  0.86746  1.0000
  C   C15       1.0  0.93732  0.41924  0.63254  1.0000
  C   C16       1.0  0.06268  0.08075  0.13254  1.0000
  C   C17       1.0  0.22387  0.66934  0.36836  1.0000
  C   C18       1.0  0.77613  0.83066  0.86836  1.0000
  C   C19       1.0  0.77613  0.33066  0.63164  1.0000
  C   C20       1.0  0.22387  0.16934  0.13164  1.0000
  C   C21       1.0  0.90212  0.35060  0.38423  1.0000
  C   C22       1.0  0.09788  0.14940  0.88423  1.0000
  C   C23       1.0  0.09789  0.64940  0.61577  1.0000
  C   C24       1.0  0.90211  0.85060  0.11577  1.0000
  C   C25       1.0  0.95303  0.23939  0.39390  1.0000
  C   C26       1.0  0.04696  0.26061  0.89390  1.0000
  C   C27       1.0  0.04697  0.76061  0.60610  1.0000
  C   C28       1.0  0.95303  0.73938  0.10610  1.0000
  C   C29       1.0  0.13371  0.27830  0.39040  1.0000
  C   C30       1.0  0.86629  0.22170  0.89040  1.0000
  C   C31       1.0  0.86629  0.72170  0.60960  1.0000
  C   C32       1.0  0.13371  0.77830  0.10960  1.0000
  C   C33       1.0  0.78314  0.81017  0.35341  1.0000
  C   C34       1.0  0.21686  0.68983  0.85341  1.0000
  C   C35       1.0  0.21686  0.18983  0.64659  1.0000
  C   C36       1.0  0.78314  0.31017  0.14659  1.0000
  N   N1        1.0  0.24129  0.79560  0.36292  1.0000
  N   N2        1.0  0.75871  0.70440  0.86292  1.0000
  N   N3        1.0  0.75871  0.20440  0.63708  1.0000
  N   N4        1.0  0.24129  0.29560  0.13708  1.0000
  N   N5        1.0  0.04873  0.44898  0.37525  1.0000
  N   N6        1.0  0.95126  0.05102  0.87525  1.0000
  N   N7        1.0  0.95127  0.55102  0.62475  1.0000
  N   N8        1.0  0.04874  0.94898  0.12475  1.0000
  N   N9        1.0  0.19209  0.40499  0.37939  1.0000
  N   N10       1.0  0.80791  0.09501  0.87939  1.0000
  N   N11       1.0  0.80792  0.59501  0.62061  1.0000
  N   N12       1.0  0.19209  0.90499  0.12061  1.0000
  Cl  Cl1       1.0  0.48369  0.14289  0.43097  1.0000
  Cl  Cl2       1.0  0.51631  0.35711  0.93097  1.0000
  Cl  Cl3       1.0  0.51631  0.85711  0.56903  1.0000
  Cl  Cl4       1.0  0.48369  0.64289  0.06903  1.0000
  O   O1        1.0  0.52060  0.98390  0.20179  1.0000
  O   O2        1.0  0.47940  0.51610  0.70179  1.0000
  O   O3        1.0  0.47940  0.01610  0.79821  1.0000
  O   O4        1.0  0.52060  0.48390  0.29821  1.0000
  O   O5        1.0  0.63474  0.73403  0.34102  1.0000
  O   O6        1.0  0.36526  0.76598  0.84102  1.0000
  O   O7        1.0  0.36526  0.26597  0.65898  1.0000
  O   O8        1.0  0.63474  0.23403  0.15898  1.0000
  O   O9        1.0  0.80751  0.93047  0.36463  1.0000
  O   O10       1.0  0.19249  0.56953  0.86463  1.0000
  O   O11       1.0  0.19249  0.06953  0.63538  1.0000
  O   O12       1.0  0.80751  0.43047  0.13537  1.0000
