data_image0
_chemical_formula_structural       H24Ru2C44S2N8Cl4O12
_chemical_formula_sum              "H24 Ru2 C44 S2 N8 Cl4 O12"
_cell_length_a       10.4953
_cell_length_b       10.7269
_cell_length_c       11.732
_cell_angle_alpha    114.873
_cell_angle_beta     94.218
_cell_angle_gamma    93.4272

_space_group_name_H-M_alt    "P 1"
_space_group_IT_number       1

loop_
  _space_group_symop_operation_xyz
  'x, y, z'

loop_
  _atom_site_type_symbol
  _atom_site_label
  _atom_site_symmetry_multiplicity
  _atom_site_fract_x
  _atom_site_fract_y
  _atom_site_fract_z
  _atom_site_occupancy
  H   H1        1.0  0.62561  0.26329  0.66010  1.0000
  H   H2        1.0  0.37433  0.73673  0.33984  1.0000
  H   H3        1.0  0.59935  0.09352  0.53044  1.0000
  H   H4        1.0  0.40059  0.90649  0.46951  1.0000
  H   H5        1.0  0.65556  0.11243  0.68415  1.0000
  H   H6        1.0  0.34442  0.88760  0.31579  1.0000
  H   H7        1.0  0.61911  0.28467  0.86220  1.0000
  H   H8        1.0  0.38090  0.71529  0.13777  1.0000
  H   H9        1.0  0.32121  0.35034  0.10967  1.0000
  H   H10       1.0  0.67889  0.64953  0.89036  1.0000
  H   H11       1.0  0.16112  0.21746  0.92306  1.0000
  H   H12       1.0  0.83894  0.78249  0.07700  1.0000
  H   H13       1.0  0.97395  0.38660  0.77666  1.0000
  H   H14       1.0  0.02600  0.61335  0.22333  1.0000
  H   H15       1.0  0.88503  0.46891  0.90762  1.0000
  H   H16       1.0  0.11494  0.53113  0.09238  1.0000
  H   H17       1.0  0.96717  0.57175  0.84246  1.0000
  H   H18       1.0  0.03283  0.42822  0.15750  1.0000
  H   H19       1.0  0.67767  0.61706  0.67532  1.0000
  H   H20       1.0  0.32230  0.38295  0.32466  1.0000
  H   H21       1.0  0.81044  0.48514  0.30661  1.0000
  H   H22       1.0  0.18959  0.51491  0.69340  1.0000
  H   H23       1.0  0.93254  0.31397  0.34606  1.0000
  H   H24       1.0  0.06750  0.68608  0.65394  1.0000
  Ru  Ru1       1.0  0.06717  0.00354  0.42726  1.0000
  Ru  Ru2       1.0  0.93283  0.99651  0.57277  1.0000
  C   C1        1.0  0.20492  0.98754  0.17456  1.0000
  C   C2        1.0  0.79507  0.01249  0.82544  1.0000
  C   C3        1.0  0.23730  0.95172  0.05154  1.0000
  C   C4        1.0  0.76268  0.04828  0.94847  1.0000
  C   C5        1.0  0.13355  0.87569  0.95840  1.0000
  C   C6        1.0  0.86641  0.12434  0.04161  1.0000
  C   C7        1.0  0.36301  0.97887  0.02600  1.0000
  C   C8        1.0  0.63698  0.02110  0.97400  1.0000
  C   C9        1.0  0.40224  0.92766  0.90131  1.0000
  C   C10       1.0  0.59776  0.07231  0.09869  1.0000
  C   C11       1.0  0.53430  0.94551  0.87653  1.0000
  C   C12       1.0  0.46569  0.05447  0.12348  1.0000
  C   C13       1.0  0.19364  0.10912  0.68170  1.0000
  C   C14       1.0  0.80636  0.89091  0.31834  1.0000
  C   C15       1.0  0.29660  0.17794  0.78634  1.0000
  C   C16       1.0  0.70342  0.82206  0.21368  1.0000
  C   C17       1.0  0.42817  0.19463  0.76859  1.0000
  C   C18       1.0  0.57184  0.80537  0.23142  1.0000
  C   C19       1.0  0.59432  0.15386  0.63143  1.0000
  C   C20       1.0  0.40563  0.84616  0.36852  1.0000
  C   C21       1.0  0.51863  0.26864  0.87395  1.0000
  C   C22       1.0  0.48140  0.73132  0.12604  1.0000
  C   C23       1.0  0.47874  0.32284  0.99452  1.0000
  C   C24       1.0  0.52133  0.67709  0.00549  1.0000
  C   C25       1.0  0.35065  0.30545  0.01483  1.0000
  C   C26       1.0  0.64944  0.69445  0.98520  1.0000
  C   C27       1.0  0.26164  0.23287  0.91019  1.0000
  C   C28       1.0  0.73841  0.76708  0.08985  1.0000
  C   C29       1.0  0.92988  0.24468  0.53425  1.0000
  C   C30       1.0  0.07011  0.75536  0.46575  1.0000
  C   C31       1.0  0.87393  0.36610  0.53167  1.0000
  C   C32       1.0  0.12606  0.63394  0.46833  1.0000
  C   C33       1.0  0.80393  0.45570  0.62677  1.0000
  C   C34       1.0  0.19606  0.54433  0.37322  1.0000
  C   C35       1.0  0.91441  0.47129  0.82071  1.0000
  C   C36       1.0  0.08557  0.52870  0.17926  1.0000
  C   C37       1.0  0.73229  0.54937  0.60263  1.0000
  C   C38       1.0  0.26769  0.45066  0.39736  1.0000
  C   C39       1.0  0.73266  0.55679  0.48685  1.0000
  C   C40       1.0  0.26734  0.44323  0.51314  1.0000
  C   C41       1.0  0.80863  0.47655  0.39564  1.0000
  C   C42       1.0  0.19140  0.52349  0.60436  1.0000
  C   C43       1.0  0.87797  0.38214  0.41876  1.0000
  C   C44       1.0  0.12205  0.61791  0.58124  1.0000
  S   S1        1.0  0.40934  0.81102  0.67847  1.0000
  S   S2        1.0  0.59066  0.18893  0.32153  1.0000
  N   N1        1.0  0.17140  0.00556  0.27296  1.0000
  N   N2        1.0  0.82859  0.99448  0.72705  1.0000
  N   N3        1.0  0.04157  0.81270  0.89091  1.0000
  N   N4        1.0  0.95839  0.18735  0.10910  1.0000
  N   N5        1.0  0.32295  0.85412  0.79500  1.0000
  N   N6        1.0  0.67705  0.14583  0.20500  1.0000
  N   N7        1.0  0.54910  0.88287  0.75258  1.0000
  N   N8        1.0  0.45089  0.11710  0.24742  1.0000
  Cl  Cl1       1.0  0.59131  0.41457  0.12326  1.0000
  Cl  Cl2       1.0  0.40878  0.58533  0.87673  1.0000
  Cl  Cl3       1.0  0.63969  0.66791  0.45577  1.0000
  Cl  Cl4       1.0  0.36029  0.33207  0.54420  1.0000
  O   O1        1.0  0.21403  0.08221  0.56725  1.0000
  O   O2        1.0  0.78595  0.91781  0.43279  1.0000
  O   O3        1.0  0.08238  0.08102  0.71011  1.0000
  O   O4        1.0  0.91761  0.91905  0.28992  1.0000
  O   O5        1.0  0.46148  0.13567  0.64985  1.0000
  O   O6        1.0  0.53849  0.86432  0.35014  1.0000
  O   O7        1.0  0.01731  0.19431  0.46131  1.0000
  O   O8        1.0  0.98270  0.80574  0.53872  1.0000
  O   O9        1.0  0.88423  0.18749  0.60174  1.0000
  O   O10       1.0  0.11575  0.81255  0.39825  1.0000
  O   O11       1.0  0.79604  0.45476  0.74252  1.0000
  O   O12       1.0  0.20394  0.54526  0.25746  1.0000
