data_image0
_chemical_formula_structural       Ag4H24C48N20O12
_chemical_formula_sum              "Ag4 H24 C48 N20 O12"
_cell_length_a       7.51346
_cell_length_b       8.15696
_cell_length_c       20.0852
_cell_angle_alpha    93.8392
_cell_angle_beta     89.9998
_cell_angle_gamma    89.9998

_space_group_name_H-M_alt    "P 1"
_space_group_IT_number       1

loop_
  _space_group_symop_operation_xyz
  'x, y, z'

loop_
  _atom_site_type_symbol
  _atom_site_label
  _atom_site_symmetry_multiplicity
  _atom_site_fract_x
  _atom_site_fract_y
  _atom_site_fract_z
  _atom_site_occupancy
  Ag  Ag1       1.0  0.58991  0.68665  0.92489  1.0000
  Ag  Ag2       1.0  0.91008  0.18665  0.42489  1.0000
  Ag  Ag3       1.0  0.41008  0.31335  0.07511  1.0000
  Ag  Ag4       1.0  0.08992  0.81335  0.57511  1.0000
  H   H1        1.0  0.74683  0.83305  0.06325  1.0000
  H   H2        1.0  0.75316  0.33305  0.56325  1.0000
  H   H3        1.0  0.25317  0.16695  0.93675  1.0000
  H   H4        1.0  0.24684  0.66695  0.43675  1.0000
  H   H5        1.0  0.93421  0.32846  0.04374  1.0000
  H   H6        1.0  0.56579  0.82846  0.54374  1.0000
  H   H7        1.0  0.06579  0.67154  0.95627  1.0000
  H   H8        1.0  0.43421  0.17154  0.45627  1.0000
  H   H9        1.0  0.79712  0.31740  0.93132  1.0000
  H   H10       1.0  0.70288  0.81741  0.43132  1.0000
  H   H11       1.0  0.20288  0.68260  0.06868  1.0000
  H   H12       1.0  0.29712  0.18260  0.56868  1.0000
  H   H13       1.0  0.63375  0.31040  0.84938  1.0000
  H   H14       1.0  0.86625  0.81040  0.34938  1.0000
  H   H15       1.0  0.36625  0.68960  0.15062  1.0000
  H   H16       1.0  0.13375  0.18960  0.65062  1.0000
  H   H17       1.0  0.50440  0.26737  0.73589  1.0000
  H   H18       1.0  0.99560  0.76738  0.23590  1.0000
  H   H19       1.0  0.49560  0.73262  0.26410  1.0000
  H   H20       1.0  0.00440  0.23263  0.76411  1.0000
  H   H21       1.0  0.44201  0.75272  0.77301  1.0000
  H   H22       1.0  0.05800  0.25272  0.27301  1.0000
  H   H23       1.0  0.55800  0.24728  0.22699  1.0000
  H   H24       1.0  0.94201  0.74729  0.72699  1.0000
  C   C1        1.0  0.75709  0.94267  0.03505  1.0000
  C   C2        1.0  0.74291  0.44268  0.53505  1.0000
  C   C3        1.0  0.24291  0.05733  0.96495  1.0000
  C   C4        1.0  0.25709  0.55732  0.46495  1.0000
  C   C5        1.0  0.84650  0.08262  0.06271  1.0000
  C   C6        1.0  0.65350  0.58262  0.56271  1.0000
  C   C7        1.0  0.15350  0.91738  0.93729  1.0000
  C   C8        1.0  0.34650  0.41738  0.43729  1.0000
  C   C9        1.0  0.86190  0.21967  0.02455  1.0000
  C   C10       1.0  0.63810  0.71967  0.52455  1.0000
  C   C11       1.0  0.13810  0.78033  0.97545  1.0000
  C   C12       1.0  0.36191  0.28033  0.47545  1.0000
  C   C13       1.0  0.78529  0.21206  0.96143  1.0000
  C   C14       1.0  0.71472  0.71206  0.46143  1.0000
  C   C15       1.0  0.21472  0.78794  0.03857  1.0000
  C   C16       1.0  0.28529  0.28794  0.53857  1.0000
  C   C17       1.0  0.69721  0.06857  0.93710  1.0000
  C   C18       1.0  0.80279  0.56857  0.43710  1.0000
  C   C19       1.0  0.30279  0.93143  0.06290  1.0000
  C   C20       1.0  0.19722  0.43143  0.56290  1.0000
  C   C21       1.0  0.61406  0.05311  0.86996  1.0000
  C   C22       1.0  0.88595  0.55311  0.36996  1.0000
  C   C23       1.0  0.38594  0.94689  0.13004  1.0000
  C   C24       1.0  0.11406  0.44689  0.63004  1.0000
  C   C25       1.0  0.59372  0.18786  0.83072  1.0000
  C   C26       1.0  0.90628  0.68786  0.33072  1.0000
  C   C27       1.0  0.40628  0.81214  0.16928  1.0000
  C   C28       1.0  0.09372  0.31214  0.66928  1.0000
  C   C29       1.0  0.51913  0.16494  0.76756  1.0000
  C   C30       1.0  0.98087  0.66494  0.26756  1.0000
  C   C31       1.0  0.48087  0.83506  0.23243  1.0000
  C   C32       1.0  0.01913  0.33506  0.73244  1.0000
  C   C33       1.0  0.46498  0.00578  0.74544  1.0000
  C   C34       1.0  0.03502  0.50578  0.24544  1.0000
  C   C35       1.0  0.53502  0.99422  0.25456  1.0000
  C   C36       1.0  0.96498  0.49422  0.75456  1.0000
  C   C37       1.0  0.48477  0.87733  0.78825  1.0000
  C   C38       1.0  0.01523  0.37733  0.28825  1.0000
  C   C39       1.0  0.51523  0.12267  0.21175  1.0000
  C   C40       1.0  0.98477  0.62267  0.71175  1.0000
  C   C41       1.0  0.91964  0.07523  0.12779  1.0000
  C   C42       1.0  0.58036  0.57523  0.62779  1.0000
  C   C43       1.0  0.08036  0.92477  0.87221  1.0000
  C   C44       1.0  0.41964  0.42476  0.37221  1.0000
  C   C45       1.0  0.39062  0.97137  0.68124  1.0000
  C   C46       1.0  0.10938  0.47137  0.18125  1.0000
  C   C47       1.0  0.60937  0.02863  0.31875  1.0000
  C   C48       1.0  0.89062  0.52863  0.81876  1.0000
  N   N1        1.0  0.68609  0.93606  0.97413  1.0000
  N   N2        1.0  0.81391  0.43606  0.47413  1.0000
  N   N3        1.0  0.31391  0.06394  0.02587  1.0000
  N   N4        1.0  0.18609  0.56394  0.52587  1.0000
  N   N5        1.0  0.55747  0.90166  0.84842  1.0000
  N   N6        1.0  0.94254  0.40166  0.34843  1.0000
  N   N7        1.0  0.44254  0.09834  0.15157  1.0000
  N   N8        1.0  0.05746  0.59834  0.65158  1.0000
  N   N9        1.0  0.97806  0.05861  0.18081  1.0000
  N   N10       1.0  0.52194  0.55861  0.68081  1.0000
  N   N11       1.0  0.02194  0.94139  0.81919  1.0000
  N   N12       1.0  0.47806  0.44139  0.31919  1.0000
  N   N13       1.0  0.32695  0.94093  0.62874  1.0000
  N   N14       1.0  0.17305  0.44093  0.12874  1.0000
  N   N15       1.0  0.67305  0.05907  0.37126  1.0000
  N   N16       1.0  0.82695  0.55907  0.87126  1.0000
  N   N17       1.0  0.29584  0.45768  0.88458  1.0000
  N   N18       1.0  0.20416  0.95768  0.38458  1.0000
  N   N19       1.0  0.70416  0.54232  0.11542  1.0000
  N   N20       1.0  0.79584  0.04232  0.61542  1.0000
  O   O1        1.0  0.40241  0.45977  0.93543  1.0000
  O   O2        1.0  0.09758  0.95977  0.43543  1.0000
  O   O3        1.0  0.59758  0.54022  0.06457  1.0000
  O   O4        1.0  0.90242  0.04022  0.56457  1.0000
  O   O5        1.0  0.30804  0.56897  0.84431  1.0000
  O   O6        1.0  0.19196  0.06897  0.34431  1.0000
  O   O7        1.0  0.69196  0.43103  0.15569  1.0000
  O   O8        1.0  0.80804  0.93103  0.65569  1.0000
  O   O9        1.0  0.18259  0.34445  0.87688  1.0000
  O   O10       1.0  0.31741  0.84445  0.37688  1.0000
  O   O11       1.0  0.81741  0.65555  0.12312  1.0000
  O   O12       1.0  0.68259  0.15555  0.62312  1.0000
