data_image0
_chemical_formula_structural       Tl4H24Pt2C40N4O4F20
_chemical_formula_sum              "Tl4 H24 Pt2 C40 N4 O4 F20"
_cell_length_a       7.78825
_cell_length_b       12.2994
_cell_length_c       13.6521
_cell_angle_alpha    101.433
_cell_angle_beta     89.9992
_cell_angle_gamma    89.9998

_space_group_name_H-M_alt    "P 1"
_space_group_IT_number       1

loop_
  _space_group_symop_operation_xyz
  'x, y, z'

loop_
  _atom_site_type_symbol
  _atom_site_label
  _atom_site_symmetry_multiplicity
  _atom_site_fract_x
  _atom_site_fract_y
  _atom_site_fract_z
  _atom_site_occupancy
  Tl  Tl1       1.0  0.13112  0.99994  0.36012  1.0000
  Tl  Tl2       1.0  0.63112  0.00006  0.13988  1.0000
  Tl  Tl3       1.0  0.86890  0.00006  0.63988  1.0000
  Tl  Tl4       1.0  0.36890  0.99994  0.86012  1.0000
  H   H1        1.0  0.19227  0.65605  0.31203  1.0000
  H   H2        1.0  0.69226  0.34395  0.18796  1.0000
  H   H3        1.0  0.80772  0.34395  0.68797  1.0000
  H   H4        1.0  0.30772  0.65604  0.81204  1.0000
  H   H5        1.0  0.99126  0.59430  0.31998  1.0000
  H   H6        1.0  0.49125  0.40570  0.18002  1.0000
  H   H7        1.0  0.00873  0.40570  0.68003  1.0000
  H   H8        1.0  0.50873  0.59430  0.81998  1.0000
  H   H9        1.0  0.00263  0.72423  0.27945  1.0000
  H   H10       1.0  0.50262  0.27577  0.22055  1.0000
  H   H11       1.0  0.99736  0.27577  0.72055  1.0000
  H   H12       1.0  0.49736  0.72422  0.77944  1.0000
  H   H13       1.0  0.10121  0.73128  0.59075  1.0000
  H   H14       1.0  0.60120  0.26871  0.90924  1.0000
  H   H15       1.0  0.89879  0.26873  0.40925  1.0000
  H   H16       1.0  0.39880  0.73128  0.09075  1.0000
  H   H17       1.0  0.01820  0.60399  0.51942  1.0000
  H   H18       1.0  0.51819  0.39601  0.98058  1.0000
  H   H19       1.0  0.98180  0.39602  0.48059  1.0000
  H   H20       1.0  0.48180  0.60399  0.01941  1.0000
  H   H21       1.0  0.23134  0.64219  0.49967  1.0000
  H   H22       1.0  0.73133  0.35780  0.00033  1.0000
  H   H23       1.0  0.76866  0.35782  0.50034  1.0000
  H   H24       1.0  0.26866  0.64219  0.99967  1.0000
  Pt  Pt1       1.0  0.00005  0.99998  0.00001  1.0000
  Pt  Pt2       1.0  0.50005  0.00001  0.49998  1.0000
  C   C1        1.0  0.16999  0.97734  0.10038  1.0000
  C   C2        1.0  0.66999  0.02265  0.39962  1.0000
  C   C3        1.0  0.83004  0.02266  0.89962  1.0000
  C   C4        1.0  0.33002  0.97734  0.60040  1.0000
  C   C5        1.0  0.96250  0.82907  0.96326  1.0000
  C   C6        1.0  0.46249  0.17094  0.53675  1.0000
  C   C7        1.0  0.03753  0.17095  0.03675  1.0000
  C   C8        1.0  0.53753  0.82906  0.46326  1.0000
  C   C9        1.0  0.97574  0.77003  0.86517  1.0000
  C   C10       1.0  0.47573  0.22997  0.63482  1.0000
  C   C11       1.0  0.02430  0.22997  0.13483  1.0000
  C   C12       1.0  0.52429  0.77003  0.36517  1.0000
  C   C13       1.0  0.93843  0.65742  0.83594  1.0000
  C   C14       1.0  0.43843  0.34258  0.66407  1.0000
  C   C15       1.0  0.06156  0.34258  0.16406  1.0000
  C   C16       1.0  0.56155  0.65742  0.33594  1.0000
  C   C17       1.0  0.88420  0.59821  0.90745  1.0000
  C   C18       1.0  0.38420  0.40179  0.59255  1.0000
  C   C19       1.0  0.11577  0.40180  0.09254  1.0000
  C   C20       1.0  0.61577  0.59820  0.40745  1.0000
  C   C21       1.0  0.87246  0.65271  0.00698  1.0000
  C   C22       1.0  0.37247  0.34730  0.49303  1.0000
  C   C23       1.0  0.12751  0.34731  0.99303  1.0000
  C   C24       1.0  0.62753  0.65269  0.50697  1.0000
  C   C25       1.0  0.91328  0.76519  0.03226  1.0000
  C   C26       1.0  0.41328  0.23482  0.46773  1.0000
  C   C27       1.0  0.08674  0.23484  0.96773  1.0000
  C   C28       1.0  0.58674  0.76517  0.53227  1.0000
  C   C29       1.0  0.05666  0.67502  0.33064  1.0000
  C   C30       1.0  0.55665  0.32498  0.16935  1.0000
  C   C31       1.0  0.94333  0.32498  0.66936  1.0000
  C   C32       1.0  0.44334  0.67502  0.83064  1.0000
  C   C33       1.0  0.04101  0.73478  0.43761  1.0000
  C   C34       1.0  0.54100  0.26523  0.06239  1.0000
  C   C35       1.0  0.95899  0.26523  0.56240  1.0000
  C   C36       1.0  0.45899  0.73477  0.93760  1.0000
  C   C37       1.0  0.10174  0.67572  0.51748  1.0000
  C   C38       1.0  0.60173  0.32428  0.98252  1.0000
  C   C39       1.0  0.89826  0.32429  0.48253  1.0000
  C   C40       1.0  0.39826  0.67572  0.01748  1.0000
  N   N1        1.0  0.27190  0.96170  0.15979  1.0000
  N   N2        1.0  0.77191  0.03828  0.34020  1.0000
  N   N3        1.0  0.72811  0.03829  0.84020  1.0000
  N   N4        1.0  0.22812  0.96172  0.65980  1.0000
  O   O1        1.0  0.98026  0.82949  0.45850  1.0000
  O   O2        1.0  0.48025  0.17050  0.04150  1.0000
  O   O3        1.0  0.01976  0.17052  0.54150  1.0000
  O   O4        1.0  0.51976  0.82948  0.95849  1.0000
  F   F1        1.0  0.02869  0.82203  0.79064  1.0000
  F   F2        1.0  0.52867  0.17797  0.70936  1.0000
  F   F3        1.0  0.97136  0.17796  0.20937  1.0000
  F   F4        1.0  0.47134  0.82203  0.29064  1.0000
  F   F5        1.0  0.95350  0.60476  0.73904  1.0000
  F   F6        1.0  0.45350  0.39524  0.76096  1.0000
  F   F7        1.0  0.04648  0.39524  0.26095  1.0000
  F   F8        1.0  0.54646  0.60476  0.23905  1.0000
  F   F9        1.0  0.84155  0.48968  0.88046  1.0000
  F   F10       1.0  0.34157  0.51032  0.61954  1.0000
  F   F11       1.0  0.15837  0.51034  0.11953  1.0000
  F   F12       1.0  0.65838  0.48966  0.38046  1.0000
  F   F13       1.0  0.81773  0.59601  0.07693  1.0000
  F   F14       1.0  0.31775  0.40399  0.42307  1.0000
  F   F15       1.0  0.18222  0.40401  0.92307  1.0000
  F   F16       1.0  0.68224  0.59599  0.57693  1.0000
  F   F17       1.0  0.89614  0.81247  0.13169  1.0000
  F   F18       1.0  0.39614  0.18753  0.36831  1.0000
  F   F19       1.0  0.10388  0.18754  0.86831  1.0000
  F   F20       1.0  0.60389  0.81246  0.63170  1.0000
