data_image0
_chemical_formula_structural       Co3H28C32N6O10
_chemical_formula_sum              "Co3 H28 C32 N6 O10"
_cell_length_a       8.17068
_cell_length_b       9.90792
_cell_length_c       10.3429
_cell_angle_alpha    89.7196
_cell_angle_beta     87.5071
_cell_angle_gamma    69.3214

_space_group_name_H-M_alt    "P 1"
_space_group_IT_number       1

loop_
  _space_group_symop_operation_xyz
  'x, y, z'

loop_
  _atom_site_type_symbol
  _atom_site_label
  _atom_site_symmetry_multiplicity
  _atom_site_fract_x
  _atom_site_fract_y
  _atom_site_fract_z
  _atom_site_occupancy
  Co  Co1       1.0  0.50140  0.99873  0.99839  1.0000
  Co  Co2       1.0  0.85759  0.92077  0.80459  1.0000
  Co  Co3       1.0  0.13984  0.07990  0.19703  1.0000
  H   H1        1.0  0.77330  0.08639  0.99780  1.0000
  H   H2        1.0  0.23049  0.91681  0.00305  1.0000
  H   H3        1.0  0.23463  0.08955  0.48372  1.0000
  H   H4        1.0  0.76492  0.91034  0.51680  1.0000
  H   H5        1.0  0.54010  0.72711  0.59546  1.0000
  H   H6        1.0  0.45922  0.27287  0.40441  1.0000
  H   H7        1.0  0.46138  0.88629  0.50766  1.0000
  H   H8        1.0  0.53779  0.11382  0.49257  1.0000
  H   H9        1.0  0.23342  0.77353  0.57852  1.0000
  H   H10       1.0  0.76612  0.22615  0.42140  1.0000
  H   H11       1.0  0.26460  0.80651  0.74116  1.0000
  H   H12       1.0  0.73470  0.19295  0.25882  1.0000
  H   H13       1.0  0.01445  0.38127  0.44418  1.0000
  H   H14       1.0  0.98516  0.61848  0.55633  1.0000
  H   H15       1.0  0.71595  0.55036  0.50946  1.0000
  H   H16       1.0  0.28358  0.44937  0.49094  1.0000
  H   H17       1.0  0.53046  0.48237  0.67528  1.0000
  H   H18       1.0  0.46905  0.51738  0.32515  1.0000
  H   H19       1.0  0.63859  0.23963  0.77991  1.0000
  H   H20       1.0  0.36081  0.76004  0.22042  1.0000
  H   H21       1.0  0.34492  0.55340  0.05631  1.0000
  H   H22       1.0  0.65693  0.44479  0.94376  1.0000
  H   H23       1.0  0.50306  0.28789  0.09078  1.0000
  H   H24       1.0  0.49876  0.70944  0.90656  1.0000
  H   H25       1.0  0.19769  0.17920  0.83176  1.0000
  H   H26       1.0  0.80122  0.82230  0.16534  1.0000
  H   H27       1.0  0.03880  0.43957  0.77731  1.0000
  H   H28       1.0  0.96015  0.56283  0.22256  1.0000
  C   C1        1.0  0.53189  0.90855  0.70400  1.0000
  C   C2        1.0  0.46756  0.09101  0.29624  1.0000
  C   C3        1.0  0.45318  0.84071  0.60389  1.0000
  C   C4        1.0  0.54607  0.15923  0.39629  1.0000
  C   C5        1.0  0.26878  0.84627  0.64231  1.0000
  C   C6        1.0  0.73051  0.15341  0.35777  1.0000
  C   C7        1.0  0.13200  0.99263  0.63879  1.0000
  C   C8        1.0  0.86712  0.00700  0.36145  1.0000
  C   C9        1.0  0.99353  0.21928  0.57971  1.0000
  C   C10       1.0  0.00590  0.78044  0.42072  1.0000
  C   C11       1.0  0.93566  0.35333  0.51989  1.0000
  C   C12       1.0  0.06388  0.64643  0.48058  1.0000
  C   C13       1.0  0.76728  0.44608  0.55659  1.0000
  C   C14       1.0  0.23226  0.55366  0.44385  1.0000
  C   C15       1.0  0.66157  0.40663  0.64974  1.0000
  C   C16       1.0  0.33792  0.59311  0.35067  1.0000
  C   C17       1.0  0.71973  0.27198  0.70881  1.0000
  C   C18       1.0  0.27966  0.72772  0.29154  1.0000
  C   C19       1.0  0.88793  0.17755  0.67199  1.0000
  C   C20       1.0  0.11144  0.82210  0.32835  1.0000
  C   C21       1.0  0.09662  0.67497  0.88685  1.0000
  C   C22       1.0  0.90459  0.32569  0.11430  1.0000
  C   C23       1.0  0.18361  0.51671  0.91160  1.0000
  C   C24       1.0  0.81707  0.48355  0.08842  1.0000
  C   C25       1.0  0.31255  0.47262  0.00295  1.0000
  C   C26       1.0  0.68871  0.52628  0.99652  1.0000
  C   C27       1.0  0.39755  0.32635  0.02376  1.0000
  C   C28       1.0  0.60380  0.67213  0.97406  1.0000
  C   C29       1.0  0.22910  0.26577  0.87675  1.0000
  C   C30       1.0  0.77082  0.73495  0.12093  1.0000
  C   C31       1.0  0.14086  0.41007  0.84752  1.0000
  C   C32       1.0  0.85887  0.59115  0.15172  1.0000
  N   N1        1.0  0.97850  0.03515  0.70695  1.0000
  N   N2        1.0  0.02066  0.96442  0.29326  1.0000
  N   N3        1.0  0.14619  0.10096  0.56240  1.0000
  N   N4        1.0  0.85317  0.89876  0.43801  1.0000
  N   N5        1.0  0.35734  0.22367  0.96207  1.0000
  N   N6        1.0  0.64361  0.77578  0.03459  1.0000
  O   O1        1.0  0.72461  0.02716  0.94739  1.0000
  O   O2        1.0  0.27695  0.97645  0.05518  1.0000
  O   O3        1.0  0.45242  0.94229  0.81229  1.0000
  O   O4        1.0  0.54706  0.05707  0.18819  1.0000
  O   O5        1.0  0.68013  0.92144  0.67171  1.0000
  O   O6        1.0  0.31914  0.07841  0.32901  1.0000
  O   O7        1.0  0.97142  0.71052  0.80665  1.0000
  O   O8        1.0  0.02843  0.29074  0.19562  1.0000
  O   O9        1.0  0.14754  0.76488  0.94218  1.0000
  O   O10       1.0  0.85569  0.23488  0.05848  1.0000
