data_image0
_chemical_formula_structural       CoH8C10N4O6
_chemical_formula_sum              "Co1 H8 C10 N4 O6"
_cell_length_a       6.16896
_cell_length_b       6.1846
_cell_length_c       9.5355
_cell_angle_alpha    79.3901
_cell_angle_beta     79.3225
_cell_angle_gamma    64.62

_space_group_name_H-M_alt    "P 1"
_space_group_IT_number       1

loop_
  _space_group_symop_operation_xyz
  'x, y, z'

loop_
  _atom_site_type_symbol
  _atom_site_label
  _atom_site_symmetry_multiplicity
  _atom_site_fract_x
  _atom_site_fract_y
  _atom_site_fract_z
  _atom_site_occupancy
  Co  Co1       1.0  1.00000  0.00000  0.00000  1.0000
  H   H1        1.0  0.47293  0.85815  0.98203  1.0000
  H   H2        1.0  0.14437  0.52787  0.01868  1.0000
  H   H3        1.0  0.52706  0.14183  0.01797  1.0000
  H   H4        1.0  0.85565  0.47212  0.98132  1.0000
  H   H5        1.0  0.39961  0.75859  0.14294  1.0000
  H   H6        1.0  0.23768  0.60234  0.85655  1.0000
  H   H7        1.0  0.60040  0.24141  0.85706  1.0000
  H   H8        1.0  0.76231  0.39767  0.14345  1.0000
  C   C1        1.0  0.18606  0.18642  0.69150  1.0000
  C   C2        1.0  0.81393  0.81358  0.30850  1.0000
  C   C3        1.0  0.26043  0.26068  0.55006  1.0000
  C   C4        1.0  0.73956  0.73932  0.44993  1.0000
  C   C5        1.0  0.49679  0.49788  0.60849  1.0000
  C   C6        1.0  0.50320  0.50211  0.39150  1.0000
  C   C7        1.0  0.39737  0.39748  0.52159  1.0000
  C   C8        1.0  0.60263  0.60252  0.47840  1.0000
  C   C9        1.0  0.18964  0.19029  0.43902  1.0000
  C   C10       1.0  0.81036  0.80971  0.56099  1.0000
  N   N1        1.0  0.12145  0.12210  0.80858  1.0000
  N   N2        1.0  0.87855  0.87790  0.19143  1.0000
  N   N3        1.0  0.12844  0.12976  0.34941  1.0000
  N   N4        1.0  0.87156  0.87022  0.65060  1.0000
  O   O1        1.0  0.34541  0.89187  0.06314  1.0000
  O   O2        1.0  0.10683  0.65558  0.93809  1.0000
  O   O3        1.0  0.65460  0.10814  0.93686  1.0000
  O   O4        1.0  0.89318  0.34442  0.06192  1.0000
  O   O5        1.0  0.49447  0.49699  0.74093  1.0000
  O   O6        1.0  0.50552  0.50301  0.25906  1.0000
