data_image0
_chemical_formula_structural       Zn2H16C20N8O12
_chemical_formula_sum              "Zn2 H16 C20 N8 O12"
_cell_length_a       6.60763
_cell_length_b       9.74497
_cell_length_c       10.4393
_cell_angle_alpha    103.556
_cell_angle_beta     89.9996
_cell_angle_gamma    90.001

_space_group_name_H-M_alt    "P 1"
_space_group_IT_number       1

loop_
  _space_group_symop_operation_xyz
  'x, y, z'

loop_
  _atom_site_type_symbol
  _atom_site_label
  _atom_site_symmetry_multiplicity
  _atom_site_fract_x
  _atom_site_fract_y
  _atom_site_fract_z
  _atom_site_occupancy
  Zn  Zn1       1.0  0.00000  0.50000  1.00000  1.0000
  Zn  Zn2       1.0  0.50000  0.50000  0.50000  1.0000
  H   H1        1.0  0.88613  0.31774  0.13483  1.0000
  H   H2        1.0  0.38614  0.68226  0.36517  1.0000
  H   H3        1.0  0.11387  0.68226  0.86517  1.0000
  H   H4        1.0  0.61387  0.31775  0.63483  1.0000
  H   H5        1.0  0.68254  0.36161  0.08027  1.0000
  H   H6        1.0  0.18255  0.63839  0.41973  1.0000
  H   H7        1.0  0.31746  0.63839  0.91973  1.0000
  H   H8        1.0  0.81746  0.36162  0.58027  1.0000
  H   H9        1.0  0.67540  0.62422  0.91364  1.0000
  H   H10       1.0  0.17541  0.37579  0.58637  1.0000
  H   H11       1.0  0.32460  0.37578  0.08637  1.0000
  H   H12       1.0  0.82461  0.62422  0.41363  1.0000
  H   H13       1.0  0.73543  0.49409  0.79202  1.0000
  H   H14       1.0  0.23543  0.50591  0.70799  1.0000
  H   H15       1.0  0.26458  0.50591  0.20798  1.0000
  H   H16       1.0  0.76458  0.49409  0.29202  1.0000
  C   C1        1.0  0.00590  0.10772  0.50565  1.0000
  C   C2        1.0  0.50589  0.89228  0.99435  1.0000
  C   C3        1.0  0.99409  0.89228  0.49435  1.0000
  C   C4        1.0  0.49408  0.10772  0.00565  1.0000
  C   C5        1.0  0.99366  0.98041  0.39782  1.0000
  C   C6        1.0  0.49365  0.01959  0.10217  1.0000
  C   C7        1.0  0.00633  0.01959  0.60217  1.0000
  C   C8        1.0  0.50632  0.98040  0.89783  1.0000
  C   C9        1.0  0.98518  0.95378  0.26049  1.0000
  C   C10       1.0  0.48517  0.04622  0.23951  1.0000
  C   C11       1.0  0.01482  0.04622  0.73951  1.0000
  C   C12       1.0  0.51482  0.95378  0.76048  1.0000
  C   C13       1.0  0.97167  0.81452  0.18520  1.0000
  C   C14       1.0  0.47167  0.18549  0.31480  1.0000
  C   C15       1.0  0.02833  0.18548  0.81480  1.0000
  C   C16       1.0  0.52834  0.81452  0.68520  1.0000
  C   C17       1.0  0.98877  0.06520  0.19570  1.0000
  C   C18       1.0  0.48877  0.93480  0.30430  1.0000
  C   C19       1.0  0.01123  0.93480  0.80430  1.0000
  C   C20       1.0  0.51123  0.06520  0.69571  1.0000
  N   N1        1.0  0.95947  0.69772  0.12506  1.0000
  N   N2        1.0  0.45947  0.30228  0.37494  1.0000
  N   N3        1.0  0.04055  0.30229  0.87494  1.0000
  N   N4        1.0  0.54054  0.69772  0.62506  1.0000
  N   N5        1.0  0.99325  0.15994  0.14462  1.0000
  N   N6        1.0  0.49325  0.84006  0.35537  1.0000
  N   N7        1.0  0.00676  0.84006  0.85537  1.0000
  N   N8        1.0  0.50676  0.15995  0.64463  1.0000
  O   O1        1.0  0.01172  0.23709  0.51064  1.0000
  O   O2        1.0  0.51171  0.76291  0.98936  1.0000
  O   O3        1.0  0.98828  0.76291  0.48935  1.0000
  O   O4        1.0  0.48827  0.23708  0.01064  1.0000
  O   O5        1.0  0.80746  0.40320  0.12613  1.0000
  O   O6        1.0  0.30747  0.59680  0.37387  1.0000
  O   O7        1.0  0.19254  0.59680  0.87387  1.0000
  O   O8        1.0  0.69254  0.40321  0.62614  1.0000
  O   O9        1.0  0.74893  0.53356  0.88838  1.0000
  O   O10       1.0  0.24893  0.46644  0.61163  1.0000
  O   O11       1.0  0.25108  0.46644  0.11162  1.0000
  O   O12       1.0  0.75108  0.53356  0.38838  1.0000
