data_image0
_chemical_formula_structural       Mn2H34C40N14O14
_chemical_formula_sum              "Mn2 H34 C40 N14 O14"
_cell_length_a       7.39469
_cell_length_b       11.8888
_cell_length_c       11.8887
_cell_angle_alpha    91.8863
_cell_angle_beta     93.8733
_cell_angle_gamma    93.8738

_space_group_name_H-M_alt    "P 1"
_space_group_IT_number       1

loop_
  _space_group_symop_operation_xyz
  'x, y, z'

loop_
  _atom_site_type_symbol
  _atom_site_label
  _atom_site_symmetry_multiplicity
  _atom_site_fract_x
  _atom_site_fract_y
  _atom_site_fract_z
  _atom_site_occupancy
  Mn  Mn1       1.0  0.15886  0.95132  0.57074  1.0000
  Mn  Mn2       1.0  0.65891  0.57078  0.95136  1.0000
  H   H1        1.0  0.16729  0.28559  0.36362  1.0000
  H   H2        1.0  0.66724  0.36356  0.28558  1.0000
  H   H3        1.0  0.39451  0.32298  0.70612  1.0000
  H   H4        1.0  0.89453  0.70607  0.32292  1.0000
  H   H5        1.0  0.80675  0.19623  0.22738  1.0000
  H   H6        1.0  0.30676  0.22739  0.19623  1.0000
  H   H7        1.0  0.73849  0.82075  0.61154  1.0000
  H   H8        1.0  0.23857  0.61155  0.82075  1.0000
  H   H9        1.0  0.62405  0.89551  0.93336  1.0000
  H   H10       1.0  0.12401  0.93336  0.89550  1.0000
  H   H11       1.0  0.40599  0.88258  0.72628  1.0000
  H   H12       1.0  0.90609  0.72630  0.88258  1.0000
  H   H13       1.0  0.23297  0.78956  0.69540  1.0000
  H   H14       1.0  0.73304  0.69544  0.78958  1.0000
  H   H15       1.0  0.73987  0.24789  0.02963  1.0000
  H   H16       1.0  0.23987  0.02962  0.24788  1.0000
  H   H17       1.0  0.48022  0.09766  0.82615  1.0000
  H   H18       1.0  0.98023  0.82614  0.09766  1.0000
  H   H19       1.0  0.67112  0.19691  0.83647  1.0000
  H   H20       1.0  0.17114  0.83649  0.19692  1.0000
  H   H21       1.0  0.69200  0.84559  0.13048  1.0000
  H   H22       1.0  0.19198  0.13049  0.84559  1.0000
  H   H23       1.0  0.45103  0.60103  0.48554  1.0000
  H   H24       1.0  0.95100  0.48551  0.60099  1.0000
  H   H25       1.0  0.56098  0.07682  0.47447  1.0000
  H   H26       1.0  0.06097  0.47446  0.07684  1.0000
  H   H27       1.0  0.30901  0.75385  0.39132  1.0000
  H   H28       1.0  0.80902  0.39136  0.75386  1.0000
  H   H29       1.0  0.88477  0.91863  0.31946  1.0000
  H   H30       1.0  0.38477  0.31947  0.91863  1.0000
  H   H31       1.0  0.84697  0.05738  0.36693  1.0000
  H   H32       1.0  0.34697  0.36693  0.05739  1.0000
  H   H33       1.0  0.95342  0.14288  0.73288  1.0000
  H   H34       1.0  0.45344  0.73289  0.14291  1.0000
  C   C1        1.0  0.43105  0.46998  0.60604  1.0000
  C   C2        1.0  0.93103  0.60599  0.46993  1.0000
  C   C3        1.0  0.22330  0.16917  0.55163  1.0000
  C   C4        1.0  0.72323  0.55159  0.16914  1.0000
  C   C5        1.0  0.67400  0.07566  0.96775  1.0000
  C   C6        1.0  0.17401  0.96775  0.07565  1.0000
  C   C7        1.0  0.24182  0.33657  0.43133  1.0000
  C   C8        1.0  0.74175  0.43127  0.33655  1.0000
  C   C9        1.0  0.36951  0.35837  0.62382  1.0000
  C   C10       1.0  0.86950  0.62376  0.35831  1.0000
  C   C11       1.0  0.76493  0.13041  0.16299  1.0000
  C   C12       1.0  0.26492  0.16299  0.13041  1.0000
  C   C13       1.0  0.27773  0.29101  0.53630  1.0000
  C   C14       1.0  0.77767  0.53624  0.29100  1.0000
  C   C15       1.0  0.75736  0.90206  0.65644  1.0000
  C   C16       1.0  0.25743  0.65646  0.90206  1.0000
  C   C17       1.0  0.66028  0.96246  0.99742  1.0000
  C   C18       1.0  0.16026  0.99742  0.96245  1.0000
  C   C19       1.0  0.30359  0.44793  0.41510  1.0000
  C   C20       1.0  0.80356  0.41505  0.44791  1.0000
  C   C21       1.0  0.72794  0.15919  0.05120  1.0000
  C   C22       1.0  0.22794  0.05120  0.15918  1.0000
  C   C23       1.0  0.62712  0.10834  0.84794  1.0000
  C   C24       1.0  0.12713  0.84795  0.10835  1.0000
  C   C25       1.0  0.74987  0.01760  0.19292  1.0000
  C   C26       1.0  0.24985  0.19293  0.01760  1.0000
  C   C27       1.0  0.53369  0.54127  0.69976  1.0000
  C   C28       1.0  0.03370  0.69973  0.54121  1.0000
  C   C29       1.0  0.69911  0.93410  0.10867  1.0000
  C   C30       1.0  0.19908  0.10868  0.93410  1.0000
  C   C31       1.0  0.39980  0.51526  0.50018  1.0000
  C   C32       1.0  0.89975  0.50014  0.51522  1.0000
  C   C33       1.0  0.52574  0.99223  0.43926  1.0000
  C   C34       1.0  0.02575  0.43926  0.99225  1.0000
  C   C35       1.0  0.40230  0.82825  0.39494  1.0000
  C   C36       1.0  0.90230  0.39496  0.82825  1.0000
  C   C37       1.0  0.78888  0.98522  0.31359  1.0000
  C   C38       1.0  0.28888  0.31360  0.98523  1.0000
  C   C39       1.0  0.86967  0.06480  0.71669  1.0000
  C   C40       1.0  0.36972  0.71671  0.06482  1.0000
  N   N1        1.0  0.26447  0.49397  0.30495  1.0000
  N   N2        1.0  0.76448  0.30493  0.49396  1.0000
  N   N3        1.0  0.71186  0.04159  0.76342  1.0000
  N   N4        1.0  0.21189  0.76343  0.04161  1.0000
  N   N5        1.0  0.54777  0.83570  0.33516  1.0000
  N   N6        1.0  0.04777  0.33518  0.83570  1.0000
  N   N7        1.0  0.90254  0.97791  0.64825  1.0000
  N   N8        1.0  0.40262  0.64827  0.97793  1.0000
  N   N9        1.0  0.63828  0.93788  0.72563  1.0000
  N   N10       1.0  0.13835  0.72564  0.93788  1.0000
  N   N11       1.0  0.62467  0.94083  0.36463  1.0000
  N   N12       1.0  0.12468  0.36464  0.94084  1.0000
  N   N13       1.0  0.38270  0.92283  0.46028  1.0000
  N   N14       1.0  0.88271  0.46029  0.92285  1.0000
  O   O1        1.0  0.28335  0.12224  0.64065  1.0000
  O   O2        1.0  0.78334  0.64063  0.12221  1.0000
  O   O3        1.0  0.61403  0.63354  0.67588  1.0000
  O   O4        1.0  0.11403  0.67584  0.63349  1.0000
  O   O5        1.0  0.18044  0.43021  0.23076  1.0000
  O   O6        1.0  0.68050  0.23068  0.43023  1.0000
  O   O7        1.0  0.53099  0.49992  0.79838  1.0000
  O   O8        1.0  0.03101  0.79835  0.49985  1.0000
  O   O9        1.0  0.27125  0.87082  0.71604  1.0000
  O   O10       1.0  0.77134  0.71607  0.87083  1.0000
  O   O11       1.0  0.31450  0.59398  0.28963  1.0000
  O   O12       1.0  0.81450  0.28962  0.59399  1.0000
  O   O13       1.0  0.12403  0.11449  0.47356  1.0000
  O   O14       1.0  0.62394  0.47354  0.11446  1.0000
