data_image0
_chemical_formula_structural       Co2H32C40N12O10
_chemical_formula_sum              "Co2 H32 C40 N12 O10"
_cell_length_a       8.38857
_cell_length_b       10.0337
_cell_length_c       11.4369
_cell_angle_alpha    81.6336
_cell_angle_beta     88.8336
_cell_angle_gamma    85.0341

_space_group_name_H-M_alt    "P 1"
_space_group_IT_number       1

loop_
  _space_group_symop_operation_xyz
  'x, y, z'

loop_
  _atom_site_type_symbol
  _atom_site_label
  _atom_site_symmetry_multiplicity
  _atom_site_fract_x
  _atom_site_fract_y
  _atom_site_fract_z
  _atom_site_occupancy
  Co  Co1       1.0  0.98832  0.69778  0.89007  1.0000
  Co  Co2       1.0  0.01168  0.30222  0.10994  1.0000
  H   H1        1.0  0.01824  0.24297  0.39637  1.0000
  H   H2        1.0  0.98175  0.75703  0.60363  1.0000
  H   H3        1.0  0.05861  0.14202  0.90170  1.0000
  H   H4        1.0  0.94139  0.85798  0.09830  1.0000
  H   H5        1.0  0.06527  0.46448  0.60853  1.0000
  H   H6        1.0  0.93473  0.53552  0.39147  1.0000
  H   H7        1.0  0.03388  0.05378  0.54608  1.0000
  H   H8        1.0  0.96612  0.94622  0.45392  1.0000
  H   H9        1.0  0.19673  0.90334  0.02268  1.0000
  H   H10       1.0  0.80327  0.09666  0.97732  1.0000
  H   H11       1.0  0.31812  0.49863  0.97629  1.0000
  H   H12       1.0  0.68188  0.50137  0.02372  1.0000
  H   H13       1.0  0.67250  0.88177  0.91136  1.0000
  H   H14       1.0  0.32750  0.11823  0.08864  1.0000
  H   H15       1.0  0.73391  0.57332  0.70059  1.0000
  H   H16       1.0  0.26609  0.42667  0.29941  1.0000
  H   H17       1.0  0.46435  0.93584  0.13116  1.0000
  H   H18       1.0  0.53566  0.06416  0.86884  1.0000
  H   H19       1.0  0.61537  0.80063  0.13594  1.0000
  H   H20       1.0  0.38463  0.19937  0.86405  1.0000
  H   H21       1.0  0.62322  0.92815  0.33395  1.0000
  H   H22       1.0  0.37679  0.07185  0.66605  1.0000
  H   H23       1.0  0.26265  0.57512  0.48876  1.0000
  H   H24       1.0  0.73735  0.42488  0.51124  1.0000
  H   H25       1.0  0.28821  0.64451  0.27336  1.0000
  H   H26       1.0  0.71179  0.35549  0.72664  1.0000
  H   H27       1.0  0.59212  0.86419  0.54891  1.0000
  H   H28       1.0  0.40788  0.13581  0.45109  1.0000
  H   H29       1.0  0.29086  0.72060  0.69686  1.0000
  H   H30       1.0  0.70914  0.27940  0.30314  1.0000
  H   H31       1.0  0.39592  0.56155  0.68558  1.0000
  H   H32       1.0  0.60408  0.43845  0.31442  1.0000
  C   C1        1.0  0.06820  0.31275  0.76306  1.0000
  C   C2        1.0  0.93180  0.68725  0.23694  1.0000
  C   C3        1.0  0.05668  0.17608  0.80703  1.0000
  C   C4        1.0  0.94332  0.82392  0.19297  1.0000
  C   C5        1.0  0.06362  0.35701  0.64123  1.0000
  C   C6        1.0  0.93638  0.64299  0.35877  1.0000
  C   C7        1.0  0.04035  0.08371  0.72836  1.0000
  C   C8        1.0  0.95966  0.91629  0.27164  1.0000
  C   C9        1.0  0.02056  0.93926  0.77528  1.0000
  C   C10       1.0  0.97943  0.06074  0.22472  1.0000
  C   C11       1.0  0.05129  0.26370  0.56244  1.0000
  C   C12       1.0  0.94870  0.73630  0.43756  1.0000
  C   C13       1.0  0.07727  0.41217  0.84783  1.0000
  C   C14       1.0  0.92273  0.58783  0.15217  1.0000
  C   C15       1.0  0.04131  0.12703  0.60654  1.0000
  C   C16       1.0  0.95869  0.87296  0.39346  1.0000
  C   C17       1.0  0.25712  0.80282  0.02516  1.0000
  C   C18       1.0  0.74289  0.19719  0.97484  1.0000
  C   C19       1.0  0.32096  0.59713  0.00397  1.0000
  C   C20       1.0  0.67904  0.40287  0.99603  1.0000
  C   C21       1.0  0.46041  0.78863  0.28855  1.0000
  C   C22       1.0  0.53960  0.21137  0.71145  1.0000
  C   C23       1.0  0.64673  0.81261  0.85120  1.0000
  C   C24       1.0  0.35327  0.18738  0.14880  1.0000
  C   C25       1.0  0.68267  0.65373  0.74687  1.0000
  C   C26       1.0  0.31733  0.34627  0.25313  1.0000
  C   C27       1.0  0.48908  0.82659  0.15729  1.0000
  C   C28       1.0  0.51092  0.17341  0.84271  1.0000
  C   C29       1.0  0.42620  0.71367  0.53436  1.0000
  C   C30       1.0  0.57380  0.28633  0.46564  1.0000
  C   C31       1.0  0.54348  0.85084  0.36757  1.0000
  C   C32       1.0  0.45652  0.14916  0.63243  1.0000
  C   C33       1.0  0.34196  0.65280  0.45511  1.0000
  C   C34       1.0  0.65805  0.34720  0.54489  1.0000
  C   C35       1.0  0.35743  0.69104  0.33354  1.0000
  C   C36       1.0  0.64257  0.30896  0.66646  1.0000
  C   C37       1.0  0.52595  0.81414  0.48920  1.0000
  C   C38       1.0  0.47405  0.18586  0.51080  1.0000
  C   C39       1.0  0.40272  0.67145  0.66559  1.0000
  C   C40       1.0  0.59728  0.32855  0.33441  1.0000
  N   N1        1.0  0.20797  0.70226  0.97340  1.0000
  N   N2        1.0  0.79203  0.29774  0.02660  1.0000
  N   N3        1.0  0.75982  0.71812  0.81967  1.0000
  N   N4        1.0  0.24018  0.28188  0.18033  1.0000
  N   N5        1.0  0.39354  0.75849  0.08378  1.0000
  N   N6        1.0  0.60646  0.24152  0.91622  1.0000
  N   N7        1.0  0.53004  0.70788  0.73644  1.0000
  N   N8        1.0  0.46996  0.29211  0.26356  1.0000
  N   N9        1.0  0.43600  0.62710  0.07141  1.0000
  N   N10       1.0  0.56400  0.37290  0.92860  1.0000
  N   N11       1.0  0.50524  0.81106  0.80197  1.0000
  N   N12       1.0  0.49476  0.18894  0.19803  1.0000
  O   O1        1.0  0.97250  0.91140  0.88257  1.0000
  O   O2        1.0  0.02750  0.08860  0.11743  1.0000
  O   O3        1.0  0.05204  0.84578  0.71155  1.0000
  O   O4        1.0  0.94796  0.15422  0.28846  1.0000
  O   O5        1.0  0.10939  0.36620  0.95586  1.0000
  O   O6        1.0  0.89062  0.63381  0.04414  1.0000
  O   O7        1.0  0.05426  0.53743  0.80759  1.0000
  O   O8        1.0  0.94574  0.46257  0.19241  1.0000
  O   O9        1.0  0.04795  0.31144  0.44500  1.0000
  O   O10       1.0  0.95205  0.68856  0.55500  1.0000
