data_image0
_chemical_formula_structural       Mn4P4H44C32I8
_chemical_formula_sum              "Mn4 P4 H44 C32 I8"
_cell_length_a       7.28551
_cell_length_b       12.7865
_cell_length_c       13.1445
_cell_angle_alpha    90.001
_cell_angle_beta     92.3056
_cell_angle_gamma    89.9994

_space_group_name_H-M_alt    "P 1"
_space_group_IT_number       1

loop_
  _space_group_symop_operation_xyz
  'x, y, z'

loop_
  _atom_site_type_symbol
  _atom_site_label
  _atom_site_symmetry_multiplicity
  _atom_site_fract_x
  _atom_site_fract_y
  _atom_site_fract_z
  _atom_site_occupancy
  Mn  Mn1       1.0  0.73947  0.98240  0.94899  1.0000
  Mn  Mn2       1.0  0.76052  0.48240  0.55101  1.0000
  Mn  Mn3       1.0  0.26053  0.01760  0.05100  1.0000
  Mn  Mn4       1.0  0.23947  0.51759  0.44899  1.0000
  P   P1        1.0  0.70549  0.91323  0.77142  1.0000
  P   P2        1.0  0.79451  0.41325  0.72858  1.0000
  P   P3        1.0  0.29453  0.08677  0.22858  1.0000
  P   P4        1.0  0.20550  0.58674  0.27141  1.0000
  H   H1        1.0  0.77312  0.72850  0.78973  1.0000
  H   H2        1.0  0.72690  0.22851  0.71028  1.0000
  H   H3        1.0  0.22692  0.27151  0.21028  1.0000
  H   H4        1.0  0.27311  0.77149  0.28972  1.0000
  H   H5        1.0  0.79574  0.77217  0.66134  1.0000
  H   H6        1.0  0.70427  0.27219  0.83867  1.0000
  H   H7        1.0  0.20428  0.22784  0.33866  1.0000
  H   H8        1.0  0.29573  0.72781  0.16133  1.0000
  H   H9        1.0  0.97110  0.80112  0.75706  1.0000
  H   H10       1.0  0.52891  0.30113  0.74295  1.0000
  H   H11       1.0  0.02893  0.19890  0.24294  1.0000
  H   H12       1.0  0.47109  0.69886  0.25705  1.0000
  H   H13       1.0  0.39227  0.95874  0.71417  1.0000
  H   H14       1.0  0.10772  0.45876  0.78583  1.0000
  H   H15       1.0  0.60773  0.04125  0.28583  1.0000
  H   H16       1.0  0.89227  0.54124  0.21417  1.0000
  H   H17       1.0  0.48326  0.85103  0.64293  1.0000
  H   H18       1.0  0.01673  0.35105  0.85707  1.0000
  H   H19       1.0  0.51674  0.14895  0.35708  1.0000
  H   H20       1.0  0.98326  0.64894  0.14293  1.0000
  H   H21       1.0  0.40813  0.83186  0.76922  1.0000
  H   H22       1.0  0.09185  0.33187  0.73078  1.0000
  H   H23       1.0  0.59189  0.16814  0.23079  1.0000
  H   H24       1.0  0.90814  0.66813  0.26922  1.0000
  H   H25       1.0  0.58037  0.02477  0.57728  1.0000
  H   H26       1.0  0.91961  0.52477  0.92275  1.0000
  H   H27       1.0  0.41962  0.97523  0.42271  1.0000
  H   H28       1.0  0.08038  0.47522  0.07726  1.0000
  H   H29       1.0  0.74430  0.15061  0.46909  1.0000
  H   H30       1.0  0.75570  0.65062  0.03094  1.0000
  H   H31       1.0  0.25569  0.84939  0.53090  1.0000
  H   H32       1.0  0.24429  0.34937  0.96906  1.0000
  H   H33       1.0  0.06351  0.20412  0.51532  1.0000
  H   H34       1.0  0.43650  0.70415  0.98471  1.0000
  H   H35       1.0  0.93649  0.79588  0.48467  1.0000
  H   H36       1.0  0.56348  0.29584  0.01529  1.0000
  H   H37       1.0  0.22118  0.13305  0.67240  1.0000
  H   H38       1.0  0.27883  0.63309  0.82761  1.0000
  H   H39       1.0  0.77882  0.86696  0.32758  1.0000
  H   H40       1.0  0.72116  0.36691  0.17239  1.0000
  H   H41       1.0  0.05950  0.00924  0.78218  1.0000
  H   H42       1.0  0.44051  0.50928  0.71782  1.0000
  H   H43       1.0  0.94050  0.99077  0.21782  1.0000
  H   H44       1.0  0.55949  0.49071  0.28217  1.0000
  C   C1        1.0  0.82307  0.79183  0.74178  1.0000
  C   C2        1.0  0.67694  0.29184  0.75823  1.0000
  C   C3        1.0  0.17696  0.20818  0.25822  1.0000
  C   C4        1.0  0.32307  0.70816  0.24178  1.0000
  C   C5        1.0  0.47465  0.88714  0.71844  1.0000
  C   C6        1.0  0.02535  0.38716  0.78156  1.0000
  C   C7        1.0  0.52536  0.11285  0.28156  1.0000
  C   C8        1.0  0.97464  0.61284  0.21844  1.0000
  C   C9        1.0  0.80987  0.00654  0.68623  1.0000
  C   C10       1.0  0.69013  0.50655  0.81379  1.0000
  C   C11       1.0  0.19013  0.99347  0.31377  1.0000
  C   C12       1.0  0.30988  0.49344  0.18621  1.0000
  C   C13       1.0  0.72148  0.04719  0.59805  1.0000
  C   C14       1.0  0.77852  0.54721  0.90197  1.0000
  C   C15       1.0  0.27852  0.95281  0.40194  1.0000
  C   C16       1.0  0.22146  0.45279  0.09803  1.0000
  C   C17       1.0  0.81342  0.11786  0.53691  1.0000
  C   C18       1.0  0.68657  0.61788  0.96312  1.0000
  C   C19       1.0  0.18657  0.88213  0.46308  1.0000
  C   C20       1.0  0.31340  0.38212  0.03689  1.0000
  C   C21       1.0  0.99326  0.14823  0.56280  1.0000
  C   C22       1.0  0.50675  0.64826  0.93721  1.0000
  C   C23       1.0  0.00674  0.85178  0.43718  1.0000
  C   C24       1.0  0.49323  0.35174  0.06279  1.0000
  C   C25       1.0  0.08147  0.10851  0.65086  1.0000
  C   C26       1.0  0.41853  0.60854  0.84916  1.0000
  C   C27       1.0  0.91853  0.89149  0.34913  1.0000
  C   C28       1.0  0.58145  0.39146  0.15085  1.0000
  C   C29       1.0  0.99037  0.03857  0.71253  1.0000
  C   C30       1.0  0.50964  0.53860  0.78748  1.0000
  C   C31       1.0  0.00963  0.96144  0.28746  1.0000
  C   C32       1.0  0.49036  0.46140  0.21252  1.0000
  I   I1        1.0  0.41669  0.10853  0.89361  1.0000
  I   I2        1.0  0.08331  0.60854  0.60638  1.0000
  I   I3        1.0  0.58332  0.89147  0.10638  1.0000
  I   I4        1.0  0.91668  0.39146  0.39362  1.0000
  I   I5        1.0  0.92829  0.15175  0.01684  1.0000
  I   I6        1.0  0.57171  0.65175  0.48316  1.0000
  I   I7        1.0  0.07171  0.84825  0.98316  1.0000
  I   I8        1.0  0.42829  0.34825  0.51684  1.0000
