data_image0
_chemical_formula_structural       Nd4H28C44N12O28
_chemical_formula_sum              "Nd4 H28 C44 N12 O28"
_cell_length_a       8.15019
_cell_length_b       11.678
_cell_length_c       15.422
_cell_angle_alpha    90.0002
_cell_angle_beta     89.9999
_cell_angle_gamma    91.5279

_space_group_name_H-M_alt    "P 1"
_space_group_IT_number       1

loop_
  _space_group_symop_operation_xyz
  'x, y, z'

loop_
  _atom_site_type_symbol
  _atom_site_label
  _atom_site_symmetry_multiplicity
  _atom_site_fract_x
  _atom_site_fract_y
  _atom_site_fract_z
  _atom_site_occupancy
  Nd  Nd1       1.0  0.71374  0.57559  0.87046  1.0000
  Nd  Nd2       1.0  0.28624  0.92442  0.37047  1.0000
  Nd  Nd3       1.0  0.28625  0.42442  0.12954  1.0000
  Nd  Nd4       1.0  0.71374  0.07558  0.62954  1.0000
  H   H1        1.0  0.02827  0.66256  0.77209  1.0000
  H   H2        1.0  0.97174  0.83744  0.27208  1.0000
  H   H3        1.0  0.97174  0.33744  0.22792  1.0000
  H   H4        1.0  0.02826  0.16256  0.72792  1.0000
  H   H5        1.0  0.96391  0.53951  0.72935  1.0000
  H   H6        1.0  0.03609  0.96049  0.22935  1.0000
  H   H7        1.0  0.03609  0.46049  0.27065  1.0000
  H   H8        1.0  0.96391  0.03950  0.77065  1.0000
  H   H9        1.0  0.33762  0.64236  0.55739  1.0000
  H   H10       1.0  0.66237  0.85764  0.05739  1.0000
  H   H11       1.0  0.66237  0.35764  0.44261  1.0000
  H   H12       1.0  0.33762  0.14236  0.94261  1.0000
  H   H13       1.0  0.39810  0.40597  0.56451  1.0000
  H   H14       1.0  0.60190  0.09403  0.06451  1.0000
  H   H15       1.0  0.60190  0.59403  0.43549  1.0000
  H   H16       1.0  0.39811  0.90597  0.93549  1.0000
  H   H17       1.0  0.23285  0.22637  0.58701  1.0000
  H   H18       1.0  0.76715  0.27363  0.08701  1.0000
  H   H19       1.0  0.76716  0.77363  0.41299  1.0000
  H   H20       1.0  0.23286  0.72637  0.91300  1.0000
  H   H21       1.0  0.08898  0.32798  0.83263  1.0000
  H   H22       1.0  0.91103  0.17202  0.33262  1.0000
  H   H23       1.0  0.91102  0.67202  0.16737  1.0000
  H   H24       1.0  0.08898  0.82798  0.66738  1.0000
  H   H25       1.0  0.24930  0.51335  0.82054  1.0000
  H   H26       1.0  0.75071  0.98665  0.32054  1.0000
  H   H27       1.0  0.75070  0.48664  0.17946  1.0000
  H   H28       1.0  0.24930  0.01335  0.67947  1.0000
  C   C1        1.0  0.67483  0.82061  0.76059  1.0000
  C   C2        1.0  0.32517  0.67938  0.26059  1.0000
  C   C3        1.0  0.32517  0.17938  0.23941  1.0000
  C   C4        1.0  0.67483  0.32062  0.73941  1.0000
  C   C5        1.0  0.56187  0.74482  0.70816  1.0000
  C   C6        1.0  0.43813  0.75518  0.20817  1.0000
  C   C7        1.0  0.43813  0.25518  0.29183  1.0000
  C   C8        1.0  0.56186  0.24482  0.79184  1.0000
  C   C9        1.0  0.49094  0.75708  0.62654  1.0000
  C   C10       1.0  0.50906  0.74292  0.12655  1.0000
  C   C11       1.0  0.50906  0.24292  0.37345  1.0000
  C   C12       1.0  0.49094  0.25708  0.87345  1.0000
  C   C13       1.0  0.46460  0.85143  0.56399  1.0000
  C   C14       1.0  0.53540  0.64856  0.06400  1.0000
  C   C15       1.0  0.53540  0.14857  0.43600  1.0000
  C   C16       1.0  0.46460  0.35144  0.93601  1.0000
  C   C17       1.0  0.42384  0.58552  0.68162  1.0000
  C   C18       1.0  0.57616  0.91448  0.18162  1.0000
  C   C19       1.0  0.57616  0.41448  0.31838  1.0000
  C   C20       1.0  0.42385  0.08552  0.81838  1.0000
  C   C21       1.0  0.33562  0.47540  0.69103  1.0000
  C   C22       1.0  0.66438  0.02461  0.19103  1.0000
  C   C23       1.0  0.66438  0.52460  0.30897  1.0000
  C   C24       1.0  0.33563  0.97539  0.80897  1.0000
  C   C25       1.0  0.33012  0.39323  0.62471  1.0000
  C   C26       1.0  0.66988  0.10678  0.12471  1.0000
  C   C27       1.0  0.66989  0.60677  0.37529  1.0000
  C   C28       1.0  0.33013  0.89323  0.87530  1.0000
  C   C29       1.0  0.24011  0.29157  0.63762  1.0000
  C   C30       1.0  0.75989  0.20843  0.13762  1.0000
  C   C31       1.0  0.75989  0.70843  0.36238  1.0000
  C   C32       1.0  0.24012  0.79157  0.86238  1.0000
  C   C33       1.0  0.16100  0.34836  0.77466  1.0000
  C   C34       1.0  0.83901  0.15164  0.27465  1.0000
  C   C35       1.0  0.83900  0.65164  0.22534  1.0000
  C   C36       1.0  0.16100  0.84836  0.72535  1.0000
  C   C37       1.0  0.24858  0.45177  0.76770  1.0000
  C   C38       1.0  0.75142  0.04823  0.26770  1.0000
  C   C39       1.0  0.75142  0.54823  0.23230  1.0000
  C   C40       1.0  0.24858  0.95177  0.73231  1.0000
  C   C41       1.0  0.03181  0.56362  0.00254  1.0000
  C   C42       1.0  0.96817  0.93638  0.50255  1.0000
  C   C43       1.0  0.96818  0.43638  0.99745  1.0000
  C   C44       1.0  0.03181  0.06362  0.49746  1.0000
  N   N1        1.0  0.51821  0.63824  0.74106  1.0000
  N   N2        1.0  0.48178  0.86177  0.24106  1.0000
  N   N3        1.0  0.48179  0.36176  0.25894  1.0000
  N   N4        1.0  0.51822  0.13824  0.75894  1.0000
  N   N5        1.0  0.40905  0.65449  0.61104  1.0000
  N   N6        1.0  0.59095  0.84551  0.11104  1.0000
  N   N7        1.0  0.59095  0.34551  0.38896  1.0000
  N   N8        1.0  0.40906  0.15449  0.88896  1.0000
  N   N9        1.0  0.15721  0.26932  0.71130  1.0000
  N   N10       1.0  0.84279  0.23068  0.21130  1.0000
  N   N11       1.0  0.84279  0.73067  0.28870  1.0000
  N   N12       1.0  0.15722  0.76932  0.78871  1.0000
  O   O1        1.0  0.72227  0.77917  0.83223  1.0000
  O   O2        1.0  0.27773  0.72083  0.33223  1.0000
  O   O3        1.0  0.27773  0.22083  0.16777  1.0000
  O   O4        1.0  0.72227  0.27917  0.66777  1.0000
  O   O5        1.0  0.71749  0.91892  0.73271  1.0000
  O   O6        1.0  0.28252  0.58108  0.23272  1.0000
  O   O7        1.0  0.28251  0.08108  0.26728  1.0000
  O   O8        1.0  0.71749  0.41892  0.76729  1.0000
  O   O9        1.0  0.48747  0.95394  0.58840  1.0000
  O   O10       1.0  0.51253  0.54605  0.08840  1.0000
  O   O11       1.0  0.51252  0.04606  0.41160  1.0000
  O   O12       1.0  0.48747  0.45395  0.91160  1.0000
  O   O13       1.0  0.40690  0.81933  0.49107  1.0000
  O   O14       1.0  0.59310  0.68066  0.99107  1.0000
  O   O15       1.0  0.59310  0.18067  0.50893  1.0000
  O   O16       1.0  0.40690  0.31933  0.00893  1.0000
  O   O17       1.0  0.15695  0.58353  0.04951  1.0000
  O   O18       1.0  0.84305  0.91647  0.54953  1.0000
  O   O19       1.0  0.84305  0.41647  0.95047  1.0000
  O   O20       1.0  0.15694  0.08353  0.45049  1.0000
  O   O21       1.0  0.95355  0.63651  0.95942  1.0000
  O   O22       1.0  0.04643  0.86348  0.45943  1.0000
  O   O23       1.0  0.04644  0.36349  0.04057  1.0000
  O   O24       1.0  0.95355  0.13652  0.54058  1.0000
  O   O25       1.0  0.93131  0.60607  0.76225  1.0000
  O   O26       1.0  0.06870  0.89393  0.26224  1.0000
  O   O27       1.0  0.06869  0.39393  0.23775  1.0000
  O   O28       1.0  0.93131  0.10607  0.73776  1.0000
