data_image0
_chemical_formula_structural       Ag4H24C16N12O20
_chemical_formula_sum              "Ag4 H24 C16 N12 O20"
_cell_length_a       4.9762
_cell_length_b       10.175
_cell_length_c       15.3947
_cell_angle_alpha    89.9809
_cell_angle_beta     94.6721
_cell_angle_gamma    89.9945

_space_group_name_H-M_alt    "P 1"
_space_group_IT_number       1

loop_
  _space_group_symop_operation_xyz
  'x, y, z'

loop_
  _atom_site_type_symbol
  _atom_site_label
  _atom_site_symmetry_multiplicity
  _atom_site_fract_x
  _atom_site_fract_y
  _atom_site_fract_z
  _atom_site_occupancy
  Ag  Ag1       1.0  0.41287  0.64741  0.26689  1.0000
  Ag  Ag2       1.0  0.91305  0.85257  0.76693  1.0000
  Ag  Ag3       1.0  0.58713  0.35258  0.73309  1.0000
  Ag  Ag4       1.0  0.08701  0.14742  0.23309  1.0000
  H   H1        1.0  0.08571  0.46064  0.35104  1.0000
  H   H2        1.0  0.50030  0.02617  0.65547  1.0000
  H   H3        1.0  0.00007  0.52610  0.84451  1.0000
  H   H4        1.0  0.41445  0.96058  0.14899  1.0000
  H   H5        1.0  0.91428  0.53938  0.64895  1.0000
  H   H6        1.0  0.49955  0.97385  0.34453  1.0000
  H   H7        1.0  0.99989  0.47385  0.15546  1.0000
  H   H8        1.0  0.58569  0.03945  0.85104  1.0000
  H   H9        1.0  0.35193  0.58408  0.58779  1.0000
  H   H10       1.0  0.88554  0.91795  0.44671  1.0000
  H   H11       1.0  0.61431  0.41784  0.05322  1.0000
  H   H12       1.0  0.14803  0.08413  0.91221  1.0000
  H   H13       1.0  0.64805  0.41594  0.41220  1.0000
  H   H14       1.0  0.11437  0.08213  0.55330  1.0000
  H   H15       1.0  0.38570  0.58208  0.94675  1.0000
  H   H16       1.0  0.85202  0.91582  0.08782  1.0000
  H   H17       1.0  0.10518  0.70475  0.55510  1.0000
  H   H18       1.0  0.62515  0.79961  0.45253  1.0000
  H   H19       1.0  0.87491  0.29956  0.04750  1.0000
  H   H20       1.0  0.39473  0.20478  0.94486  1.0000
  H   H21       1.0  0.89480  0.29527  0.44489  1.0000
  H   H22       1.0  0.37483  0.20044  0.54747  1.0000
  H   H23       1.0  0.12514  0.70038  0.95246  1.0000
  H   H24       1.0  0.60523  0.79522  0.05514  1.0000
  C   C1        1.0  0.20103  0.57059  0.45607  1.0000
  C   C2        1.0  0.67696  0.92574  0.56132  1.0000
  C   C3        1.0  0.82316  0.42570  0.93866  1.0000
  C   C4        1.0  0.29900  0.07057  0.04393  1.0000
  C   C5        1.0  0.79896  0.42943  0.54392  1.0000
  C   C6        1.0  0.32294  0.07429  0.43869  1.0000
  C   C7        1.0  0.17681  0.57426  0.06131  1.0000
  C   C8        1.0  0.70108  0.92944  0.95610  1.0000
  C   C9        1.0  0.15786  0.59995  0.54972  1.0000
  C   C10       1.0  0.67799  0.90366  0.46454  1.0000
  C   C11       1.0  0.82194  0.40361  0.03545  1.0000
  C   C12       1.0  0.34211  0.09997  0.95027  1.0000
  C   C13       1.0  0.84213  0.40007  0.45027  1.0000
  C   C14       1.0  0.32194  0.09638  0.53547  1.0000
  C   C15       1.0  0.17806  0.59633  0.96452  1.0000
  C   C16       1.0  0.65793  0.90002  0.04976  1.0000
  N   N1        1.0  0.95142  0.85197  0.26283  1.0000
  N   N2        1.0  0.45160  0.64804  0.76282  1.0000
  N   N3        1.0  0.04859  0.14802  0.73719  1.0000
  N   N4        1.0  0.54846  0.35196  0.23718  1.0000
  N   N5        1.0  0.04948  0.47891  0.41439  1.0000
  N   N6        1.0  0.50460  0.01329  0.58954  1.0000
  N   N7        1.0  0.99558  0.51322  0.91044  1.0000
  N   N8        1.0  0.45060  0.97886  0.08563  1.0000
  N   N9        1.0  0.95052  0.52112  0.58560  1.0000
  N   N10       1.0  0.49529  0.98674  0.41047  1.0000
  N   N11       1.0  0.00441  0.48672  0.08953  1.0000
  N   N12       1.0  0.54949  0.02116  0.91440  1.0000
  O   O1        1.0  0.88504  0.73915  0.28796  1.0000
  O   O2        1.0  0.38522  0.76080  0.78803  1.0000
  O   O3        1.0  0.11497  0.26083  0.71204  1.0000
  O   O4        1.0  0.61484  0.23921  0.21197  1.0000
  O   O5        1.0  0.19391  0.87283  0.24494  1.0000
  O   O6        1.0  0.69405  0.62723  0.74488  1.0000
  O   O7        1.0  0.80611  0.12716  0.75508  1.0000
  O   O8        1.0  0.30601  0.37278  0.25512  1.0000
  O   O9        1.0  0.78179  0.94532  0.25539  1.0000
  O   O10       1.0  0.28197  0.55471  0.75535  1.0000
  O   O11       1.0  0.21824  0.05467  0.74464  1.0000
  O   O12       1.0  0.71807  0.44531  0.24463  1.0000
  O   O13       1.0  0.38158  0.63330  0.42097  1.0000
  O   O14       1.0  0.83814  0.85928  0.61071  1.0000
  O   O15       1.0  0.66207  0.35924  0.88927  1.0000
  O   O16       1.0  0.11845  0.13327  0.07902  1.0000
  O   O17       1.0  0.61842  0.36671  0.57902  1.0000
  O   O18       1.0  0.16173  0.14075  0.38929  1.0000
  O   O19       1.0  0.33786  0.64073  0.11070  1.0000
  O   O20       1.0  0.88165  0.86674  0.92101  1.0000
