data_image0
_chemical_formula_structural       H32Pb4C24N8Cl8O8
_chemical_formula_sum              "H32 Pb4 C24 N8 Cl8 O8"
_cell_length_a       7.7763
_cell_length_b       7.96163
_cell_length_c       18.0454
_cell_angle_alpha    90.0087
_cell_angle_beta     90.0009
_cell_angle_gamma    112.166

_space_group_name_H-M_alt    "P 1"
_space_group_IT_number       1

loop_
  _space_group_symop_operation_xyz
  'x, y, z'

loop_
  _atom_site_type_symbol
  _atom_site_label
  _atom_site_symmetry_multiplicity
  _atom_site_fract_x
  _atom_site_fract_y
  _atom_site_fract_z
  _atom_site_occupancy
  H   H1        1.0  0.02684  0.87018  0.29458  1.0000
  H   H2        1.0  0.47325  0.12980  0.79458  1.0000
  H   H3        1.0  0.97315  0.12972  0.70541  1.0000
  H   H4        1.0  0.52677  0.87019  0.20542  1.0000
  H   H5        1.0  0.85787  0.88634  0.35719  1.0000
  H   H6        1.0  0.64215  0.11364  0.85722  1.0000
  H   H7        1.0  0.14208  0.11356  0.64277  1.0000
  H   H8        1.0  0.35779  0.88627  0.14281  1.0000
  H   H9        1.0  0.85760  0.76444  0.49410  1.0000
  H   H10       1.0  0.64241  0.23564  0.99410  1.0000
  H   H11       1.0  0.14239  0.23567  0.50589  1.0000
  H   H12       1.0  0.35765  0.76461  0.00588  1.0000
  H   H13       1.0  0.14501  0.71947  0.57396  1.0000
  H   H14       1.0  0.35507  0.28071  0.07396  1.0000
  H   H15       1.0  0.85503  0.28074  0.42605  1.0000
  H   H16       1.0  0.64506  0.71961  0.92603  1.0000
  H   H17       1.0  0.28490  0.77413  0.34524  1.0000
  H   H18       1.0  0.21510  0.22584  0.84524  1.0000
  H   H19       1.0  0.71498  0.22567  0.65476  1.0000
  H   H20       1.0  0.78483  0.77402  0.15478  1.0000
  H   H21       1.0  0.55492  0.84672  0.45997  1.0000
  H   H22       1.0  0.94505  0.15346  0.95999  1.0000
  H   H23       1.0  0.44501  0.15337  0.54003  1.0000
  H   H24       1.0  0.05495  0.84669  0.04003  1.0000
  H   H25       1.0  0.44442  0.60423  0.45934  1.0000
  H   H26       1.0  0.05573  0.39595  0.95937  1.0000
  H   H27       1.0  0.55562  0.39586  0.54067  1.0000
  H   H28       1.0  0.94432  0.60419  0.04065  1.0000
  H   H29       1.0  0.45436  0.72831  0.54369  1.0000
  H   H30       1.0  0.04578  0.27189  0.04371  1.0000
  H   H31       1.0  0.54564  0.27178  0.45631  1.0000
  H   H32       1.0  0.95428  0.72821  0.95630  1.0000
  Pb  Pb1       1.0  0.49846  0.29299  0.24858  1.0000
  Pb  Pb2       1.0  0.00160  0.70669  0.74847  1.0000
  Pb  Pb3       1.0  0.50159  0.70686  0.75154  1.0000
  Pb  Pb4       1.0  0.99844  0.29300  0.25139  1.0000
  C   C1        1.0  0.79416  0.62247  0.30950  1.0000
  C   C2        1.0  0.70584  0.37749  0.80954  1.0000
  C   C3        1.0  0.20580  0.37743  0.69048  1.0000
  C   C4        1.0  0.29415  0.62245  0.19049  1.0000
  C   C5        1.0  0.93316  0.80051  0.34017  1.0000
  C   C6        1.0  0.56689  0.19947  0.84019  1.0000
  C   C7        1.0  0.06681  0.19938  0.65981  1.0000
  C   C8        1.0  0.43312  0.80051  0.15983  1.0000
  C   C9        1.0  0.98850  0.76063  0.47567  1.0000
  C   C10       1.0  0.51152  0.23943  0.97568  1.0000
  C   C11       1.0  0.01149  0.23946  0.52433  1.0000
  C   C12       1.0  0.48847  0.76066  0.02432  1.0000
  C   C13       1.0  0.12835  0.73870  0.51537  1.0000
  C   C14       1.0  0.37167  0.26138  0.01537  1.0000
  C   C15       1.0  0.87162  0.26138  0.48464  1.0000
  C   C16       1.0  0.62843  0.73888  0.98461  1.0000
  C   C17       1.0  0.20965  0.76715  0.39646  1.0000
  C   C18       1.0  0.29034  0.23282  0.89647  1.0000
  C   C19       1.0  0.79030  0.23277  0.60353  1.0000
  C   C20       1.0  0.70960  0.76712  0.10354  1.0000
  C   C21       1.0  0.44139  0.72975  0.48334  1.0000
  C   C22       1.0  0.05869  0.27038  0.98336  1.0000
  C   C23       1.0  0.55862  0.27031  0.51666  1.0000
  C   C24       1.0  0.94135  0.72972  0.01665  1.0000
  N   N1        1.0  0.04238  0.77862  0.40206  1.0000
  N   N2        1.0  0.45764  0.22138  0.90207  1.0000
  N   N3        1.0  0.95758  0.22132  0.59792  1.0000
  N   N4        1.0  0.54238  0.77868  0.09793  1.0000
  N   N5        1.0  0.26470  0.74448  0.46499  1.0000
  N   N6        1.0  0.23531  0.25557  0.96499  1.0000
  N   N7        1.0  0.73524  0.25553  0.53500  1.0000
  N   N8        1.0  0.76467  0.74444  0.03500  1.0000
  Cl  Cl1       1.0  0.62203  0.04034  0.32212  1.0000
  Cl  Cl2       1.0  0.87779  0.95941  0.82210  1.0000
  Cl  Cl3       1.0  0.37785  0.95952  0.67790  1.0000
  Cl  Cl4       1.0  0.12211  0.04036  0.17787  1.0000
  Cl  Cl5       1.0  0.27219  0.31450  0.36804  1.0000
  Cl  Cl6       1.0  0.22796  0.68544  0.86803  1.0000
  Cl  Cl7       1.0  0.72799  0.68557  0.63200  1.0000
  Cl  Cl8       1.0  0.77222  0.31451  0.13193  1.0000
  O   O1        1.0  0.67963  0.63705  0.26247  1.0000
  O   O2        1.0  0.82042  0.36289  0.76252  1.0000
  O   O3        1.0  0.32031  0.36286  0.73753  1.0000
  O   O4        1.0  0.17958  0.63702  0.23752  1.0000
  O   O5        1.0  0.79891  0.47190  0.33110  1.0000
  O   O6        1.0  0.70112  0.52806  0.83114  1.0000
  O   O7        1.0  0.20110  0.52801  0.66888  1.0000
  O   O8        1.0  0.29890  0.47185  0.16890  1.0000
