data_image0
_chemical_formula_structural       H32Pb4C24Br8N8O8
_chemical_formula_sum              "H32 Pb4 C24 Br8 N8 O8"
_cell_length_a       7.94507
_cell_length_b       8.14264
_cell_length_c       18.4696
_cell_angle_alpha    89.9933
_cell_angle_beta     90.0025
_cell_angle_gamma    113.003

_space_group_name_H-M_alt    "P 1"
_space_group_IT_number       1

loop_
  _space_group_symop_operation_xyz
  'x, y, z'

loop_
  _atom_site_type_symbol
  _atom_site_label
  _atom_site_symmetry_multiplicity
  _atom_site_fract_x
  _atom_site_fract_y
  _atom_site_fract_z
  _atom_site_occupancy
  H   H1        1.0  0.03739  0.82025  0.28681  1.0000
  H   H2        1.0  0.46261  0.17988  0.78675  1.0000
  H   H3        1.0  0.96292  0.17997  0.71323  1.0000
  H   H4        1.0  0.53725  0.82016  0.21321  1.0000
  H   H5        1.0  0.86906  0.85002  0.34250  1.0000
  H   H6        1.0  0.63082  0.14995  0.84239  1.0000
  H   H7        1.0  0.13115  0.15015  0.65760  1.0000
  H   H8        1.0  0.36913  0.85017  0.15758  1.0000
  H   H9        1.0  0.86562  0.78987  0.47834  1.0000
  H   H10       1.0  0.63421  0.20957  0.97824  1.0000
  H   H11       1.0  0.13432  0.20957  0.52173  1.0000
  H   H12       1.0  0.36570  0.79039  0.02170  1.0000
  H   H13       1.0  0.12560  0.74409  0.56932  1.0000
  H   H14       1.0  0.37427  0.25515  0.06927  1.0000
  H   H15       1.0  0.87421  0.25499  0.43072  1.0000
  H   H16       1.0  0.62575  0.74486  0.93071  1.0000
  H   H17       1.0  0.26231  0.69668  0.34976  1.0000
  H   H18       1.0  0.23773  0.30339  0.84975  1.0000
  H   H19       1.0  0.73792  0.30344  0.65024  1.0000
  H   H20       1.0  0.76220  0.69676  0.15025  1.0000
  H   H21       1.0  0.50010  0.82071  0.51438  1.0000
  H   H22       1.0  0.99997  0.17917  0.01443  1.0000
  H   H23       1.0  0.49998  0.17912  0.48559  1.0000
  H   H24       1.0  0.00009  0.82095  0.98566  1.0000
  H   H25       1.0  0.46601  0.65057  0.44738  1.0000
  H   H26       1.0  0.03406  0.34929  0.94742  1.0000
  H   H27       1.0  0.53412  0.34921  0.55261  1.0000
  H   H28       1.0  0.96588  0.65071  0.05263  1.0000
  H   H29       1.0  0.36645  0.59394  0.53597  1.0000
  H   H30       1.0  0.13379  0.40591  0.03597  1.0000
  H   H31       1.0  0.63378  0.40589  0.46404  1.0000
  H   H32       1.0  0.86632  0.59423  0.96405  1.0000
  Pb  Pb1       1.0  0.49943  0.25454  0.25053  1.0000
  Pb  Pb2       1.0  0.00032  0.74562  0.75054  1.0000
  Pb  Pb3       1.0  0.50027  0.74574  0.74945  1.0000
  Pb  Pb4       1.0  0.99959  0.25449  0.24947  1.0000
  C   C1        1.0  0.80055  0.58240  0.30445  1.0000
  C   C2        1.0  0.69941  0.41770  0.80444  1.0000
  C   C3        1.0  0.19958  0.41782  0.69554  1.0000
  C   C4        1.0  0.30039  0.58240  0.19551  1.0000
  C   C5        1.0  0.93997  0.76085  0.33119  1.0000
  C   C6        1.0  0.55996  0.23912  0.83112  1.0000
  C   C7        1.0  0.06023  0.23932  0.66883  1.0000
  C   C8        1.0  0.43990  0.76090  0.16883  1.0000
  C   C9        1.0  0.98600  0.76367  0.46607  1.0000
  C   C10       1.0  0.51387  0.23586  0.96601  1.0000
  C   C11       1.0  0.01395  0.23582  0.53397  1.0000
  C   C12       1.0  0.48610  0.76422  0.03395  1.0000
  C   C13       1.0  0.11258  0.74173  0.51089  1.0000
  C   C14       1.0  0.38740  0.25789  0.01086  1.0000
  C   C15       1.0  0.88739  0.25775  0.48913  1.0000
  C   C16       1.0  0.61259  0.74211  0.98912  1.0000
  C   C17       1.0  0.19234  0.71705  0.39720  1.0000
  C   C18       1.0  0.30767  0.28286  0.89718  1.0000
  C   C19       1.0  0.80782  0.28290  0.60281  1.0000
  C   C20       1.0  0.69227  0.71725  0.10282  1.0000
  C   C21       1.0  0.40390  0.69334  0.49257  1.0000
  C   C22       1.0  0.09621  0.30648  0.99258  1.0000
  C   C23       1.0  0.59623  0.30643  0.50742  1.0000
  C   C24       1.0  0.90384  0.69358  0.00746  1.0000
  Br  Br1       1.0  0.62367  0.99986  0.33262  1.0000
  Br  Br2       1.0  0.87618  0.00023  0.83267  1.0000
  Br  Br3       1.0  0.37633  0.00035  0.66733  1.0000
  Br  Br4       1.0  0.12362  0.99974  0.16737  1.0000
  Br  Br5       1.0  0.26192  0.27445  0.37271  1.0000
  Br  Br6       1.0  0.23805  0.72566  0.87281  1.0000
  Br  Br7       1.0  0.73800  0.72588  0.62726  1.0000
  Br  Br8       1.0  0.76197  0.27461  0.12718  1.0000
  N   N1        1.0  0.03865  0.74851  0.39580  1.0000
  N   N2        1.0  0.46125  0.25127  0.89574  1.0000
  N   N3        1.0  0.96144  0.25133  0.60423  1.0000
  N   N4        1.0  0.53866  0.74881  0.10423  1.0000
  N   N5        1.0  0.23973  0.71370  0.46678  1.0000
  N   N6        1.0  0.26027  0.28601  0.96677  1.0000
  N   N7        1.0  0.76037  0.28601  0.53323  1.0000
  N   N8        1.0  0.73970  0.71402  0.03324  1.0000
  O   O1        1.0  0.68531  0.59185  0.25871  1.0000
  O   O2        1.0  0.81456  0.40833  0.75864  1.0000
  O   O3        1.0  0.31472  0.40849  0.74134  1.0000
  O   O4        1.0  0.18518  0.59173  0.24128  1.0000
  O   O5        1.0  0.80484  0.43678  0.32742  1.0000
  O   O6        1.0  0.69518  0.56329  0.82747  1.0000
  O   O7        1.0  0.19525  0.56339  0.67251  1.0000
  O   O8        1.0  0.30469  0.43683  0.17249  1.0000
