data_image0
_chemical_formula_structural       Cd2H56C56N16Cl4
_chemical_formula_sum              "Cd2 H56 C56 N16 Cl4"
_cell_length_a       7.68692
_cell_length_b       12.6784
_cell_length_c       14.4628
_cell_angle_alpha    89.9999
_cell_angle_beta     104.968
_cell_angle_gamma    90.0001

_space_group_name_H-M_alt    "P 1"
_space_group_IT_number       1

loop_
  _space_group_symop_operation_xyz
  'x, y, z'

loop_
  _atom_site_type_symbol
  _atom_site_label
  _atom_site_symmetry_multiplicity
  _atom_site_fract_x
  _atom_site_fract_y
  _atom_site_fract_z
  _atom_site_occupancy
  Cd  Cd1       1.0  1.00000  0.50000  1.00000  1.0000
  Cd  Cd2       1.0  0.00000  1.00000  0.50000  1.0000
  H   H1        1.0  0.45655  0.59492  0.06236  1.0000
  H   H2        1.0  0.54344  0.09492  0.43764  1.0000
  H   H3        1.0  0.54345  0.40508  0.93764  1.0000
  H   H4        1.0  0.45656  0.90508  0.56235  1.0000
  H   H5        1.0  0.08249  0.59791  0.23086  1.0000
  H   H6        1.0  0.91750  0.09791  0.26914  1.0000
  H   H7        1.0  0.91750  0.40209  0.76914  1.0000
  H   H8        1.0  0.08250  0.90209  0.73086  1.0000
  H   H9        1.0  0.62349  0.67390  0.24179  1.0000
  H   H10       1.0  0.37651  0.17390  0.25821  1.0000
  H   H11       1.0  0.37651  0.32610  0.75821  1.0000
  H   H12       1.0  0.62349  0.82610  0.74179  1.0000
  H   H13       1.0  0.26078  0.70619  0.37442  1.0000
  H   H14       1.0  0.73922  0.20619  0.12558  1.0000
  H   H15       1.0  0.73922  0.29381  0.62559  1.0000
  H   H16       1.0  0.26078  0.79381  0.87442  1.0000
  H   H17       1.0  0.48858  0.73825  0.38344  1.0000
  H   H18       1.0  0.51142  0.23825  0.11655  1.0000
  H   H19       1.0  0.51142  0.26175  0.61656  1.0000
  H   H20       1.0  0.48858  0.76175  0.88345  1.0000
  H   H21       1.0  0.30941  0.46136  0.33693  1.0000
  H   H22       1.0  0.69060  0.96136  0.16307  1.0000
  H   H23       1.0  0.69059  0.53864  0.66307  1.0000
  H   H24       1.0  0.30941  0.03864  0.83693  1.0000
  H   H25       1.0  0.60093  0.68334  0.54586  1.0000
  H   H26       1.0  0.39907  0.18334  0.95415  1.0000
  H   H27       1.0  0.39907  0.31666  0.45415  1.0000
  H   H28       1.0  0.60094  0.81666  0.04585  1.0000
  H   H29       1.0  0.81239  0.69664  0.84218  1.0000
  H   H30       1.0  0.18760  0.19663  0.65782  1.0000
  H   H31       1.0  0.18760  0.30336  0.15782  1.0000
  H   H32       1.0  0.81240  0.80336  0.34218  1.0000
  H   H33       1.0  0.90279  0.73262  0.66716  1.0000
  H   H34       1.0  0.09720  0.23261  0.83284  1.0000
  H   H35       1.0  0.09720  0.26739  0.33284  1.0000
  H   H36       1.0  0.90280  0.76739  0.16716  1.0000
  H   H37       1.0  0.28600  0.52944  0.84517  1.0000
  H   H38       1.0  0.71400  0.02943  0.65483  1.0000
  H   H39       1.0  0.71400  0.47056  0.15483  1.0000
  H   H40       1.0  0.28601  0.97056  0.34517  1.0000
  H   H41       1.0  0.24316  0.69973  0.63592  1.0000
  H   H42       1.0  0.75684  0.19973  0.86408  1.0000
  H   H43       1.0  0.75684  0.30027  0.36408  1.0000
  H   H44       1.0  0.24316  0.80027  0.13592  1.0000
  H   H45       1.0  0.34592  0.58214  0.69067  1.0000
  H   H46       1.0  0.65409  0.08214  0.80933  1.0000
  H   H47       1.0  0.65409  0.41786  0.30934  1.0000
  H   H48       1.0  0.34592  0.91786  0.19066  1.0000
  H   H49       1.0  0.15077  0.40949  0.65167  1.0000
  H   H50       1.0  0.84923  0.90948  0.84833  1.0000
  H   H51       1.0  0.84923  0.59052  0.34833  1.0000
  H   H52       1.0  0.15077  0.09052  0.15167  1.0000
  H   H53       1.0  0.03254  0.69418  0.48500  1.0000
  H   H54       1.0  0.96745  0.19418  0.01500  1.0000
  H   H55       1.0  0.96746  0.30582  0.51501  1.0000
  H   H56       1.0  0.03255  0.80582  0.98500  1.0000
  C   C1        1.0  0.40189  0.60606  0.12378  1.0000
  C   C2        1.0  0.59811  0.10606  0.37621  1.0000
  C   C3        1.0  0.59811  0.39394  0.87622  1.0000
  C   C4        1.0  0.40189  0.89394  0.62378  1.0000
  C   C5        1.0  0.20528  0.60668  0.20795  1.0000
  C   C6        1.0  0.79471  0.10669  0.29205  1.0000
  C   C7        1.0  0.79471  0.39331  0.79205  1.0000
  C   C8        1.0  0.20529  0.89331  0.70795  1.0000
  C   C9        1.0  0.48777  0.64509  0.21277  1.0000
  C   C10       1.0  0.51223  0.14510  0.28723  1.0000
  C   C11       1.0  0.51223  0.35490  0.78723  1.0000
  C   C12       1.0  0.48777  0.85490  0.71277  1.0000
  C   C13       1.0  0.38908  0.67417  0.36607  1.0000
  C   C14       1.0  0.61091  0.17418  0.13393  1.0000
  C   C15       1.0  0.61092  0.32582  0.63393  1.0000
  C   C16       1.0  0.38909  0.82582  0.86607  1.0000
  C   C17       1.0  0.44860  0.58259  0.43382  1.0000
  C   C18       1.0  0.55140  0.08259  0.06618  1.0000
  C   C19       1.0  0.55140  0.41741  0.56618  1.0000
  C   C20       1.0  0.44860  0.91741  0.93382  1.0000
  C   C21       1.0  0.39395  0.47907  0.40824  1.0000
  C   C22       1.0  0.60606  0.97908  0.09176  1.0000
  C   C23       1.0  0.60605  0.52093  0.59176  1.0000
  C   C24       1.0  0.39395  0.02092  0.90824  1.0000
  C   C25       1.0  0.55514  0.60290  0.52618  1.0000
  C   C26       1.0  0.44486  0.10290  0.97382  1.0000
  C   C27       1.0  0.44486  0.39710  0.47382  1.0000
  C   C28       1.0  0.55515  0.89710  0.02618  1.0000
  C   C29       1.0  0.92483  0.66903  0.81618  1.0000
  C   C30       1.0  0.07516  0.16903  0.68382  1.0000
  C   C31       1.0  0.07516  0.33097  0.18382  1.0000
  C   C32       1.0  0.92484  0.83097  0.31618  1.0000
  C   C33       1.0  0.96706  0.68677  0.73051  1.0000
  C   C34       1.0  0.03294  0.18677  0.76949  1.0000
  C   C35       1.0  0.03293  0.31323  0.26949  1.0000
  C   C36       1.0  0.96707  0.81323  0.23051  1.0000
  C   C37       1.0  0.17001  0.58096  0.82231  1.0000
  C   C38       1.0  0.82999  0.08095  0.67769  1.0000
  C   C39       1.0  0.82999  0.41905  0.17769  1.0000
  C   C40       1.0  0.17001  0.91905  0.32231  1.0000
  C   C41       1.0  0.21603  0.62066  0.65957  1.0000
  C   C42       1.0  0.78397  0.12065  0.84043  1.0000
  C   C43       1.0  0.78397  0.37935  0.34043  1.0000
  C   C44       1.0  0.21604  0.87935  0.15957  1.0000
  C   C45       1.0  0.10559  0.55806  0.57650  1.0000
  C   C46       1.0  0.89441  0.05805  0.92350  1.0000
  C   C47       1.0  0.89441  0.44195  0.42350  1.0000
  C   C48       1.0  0.10559  0.94195  0.07650  1.0000
  C   C49       1.0  0.08418  0.44922  0.58495  1.0000
  C   C50       1.0  0.91582  0.94921  0.91505  1.0000
  C   C51       1.0  0.91582  0.55079  0.41505  1.0000
  C   C52       1.0  0.08418  0.05078  0.08495  1.0000
  C   C53       1.0  0.97976  0.39118  0.50901  1.0000
  C   C54       1.0  0.02024  0.89118  0.99099  1.0000
  C   C55       1.0  0.02024  0.60883  0.49099  1.0000
  C   C56       1.0  0.97976  0.10882  0.00901  1.0000
  N   N1        1.0  0.22593  0.58258  0.12199  1.0000
  N   N2        1.0  0.77407  0.08259  0.37801  1.0000
  N   N3        1.0  0.77407  0.41741  0.87801  1.0000
  N   N4        1.0  0.22593  0.91742  0.62199  1.0000
  N   N5        1.0  0.36078  0.64557  0.26548  1.0000
  N   N6        1.0  0.63921  0.14557  0.23452  1.0000
  N   N7        1.0  0.63921  0.35443  0.73453  1.0000
  N   N8        1.0  0.36079  0.85443  0.76548  1.0000
  N   N9        1.0  0.05225  0.60322  0.87259  1.0000
  N   N10       1.0  0.94774  0.10321  0.62741  1.0000
  N   N11       1.0  0.94774  0.39679  0.12741  1.0000
  N   N12       1.0  0.05226  0.89678  0.37259  1.0000
  N   N13       1.0  0.12385  0.63068  0.73605  1.0000
  N   N14       1.0  0.87615  0.13068  0.76395  1.0000
  N   N15       1.0  0.87615  0.36932  0.26395  1.0000
  N   N16       1.0  0.12385  0.86932  0.23605  1.0000
  Cl  Cl1       1.0  0.23798  0.35922  0.97523  1.0000
  Cl  Cl2       1.0  0.76202  0.85921  0.52477  1.0000
  Cl  Cl3       1.0  0.76201  0.64078  0.02477  1.0000
  Cl  Cl4       1.0  0.23799  0.14078  0.47523  1.0000
