data_image0
_chemical_formula_structural       Cu2H36C34I2N12
_chemical_formula_sum              "Cu2 H36 C34 I2 N12"
_cell_length_a       9.30427
_cell_length_b       10.2682
_cell_length_c       10.3681
_cell_angle_alpha    82.8762
_cell_angle_beta     81.9586
_cell_angle_gamma    63.9102

_space_group_name_H-M_alt    "P 1"
_space_group_IT_number       1

loop_
  _space_group_symop_operation_xyz
  'x, y, z'

loop_
  _atom_site_type_symbol
  _atom_site_label
  _atom_site_symmetry_multiplicity
  _atom_site_fract_x
  _atom_site_fract_y
  _atom_site_fract_z
  _atom_site_occupancy
  Cu  Cu1       1.0  0.90972  0.11137  0.08826  1.0000
  Cu  Cu2       1.0  0.09028  0.88863  0.91174  1.0000
  H   H1        1.0  0.65132  0.31202  0.85978  1.0000
  H   H2        1.0  0.34868  0.68798  0.14022  1.0000
  H   H3        1.0  0.48648  0.54083  0.72823  1.0000
  H   H4        1.0  0.51351  0.45917  0.27177  1.0000
  H   H5        1.0  0.48015  0.77516  0.76281  1.0000
  H   H6        1.0  0.51985  0.22484  0.23719  1.0000
  H   H7        1.0  0.63788  0.79746  0.92777  1.0000
  H   H8        1.0  0.36212  0.20255  0.07223  1.0000
  H   H9        1.0  0.88029  0.71364  0.06818  1.0000
  H   H10       1.0  0.11970  0.28636  0.93182  1.0000
  H   H11       1.0  0.95765  0.58216  0.20029  1.0000
  H   H12       1.0  0.04236  0.41784  0.79971  1.0000
  H   H13       1.0  0.72439  0.82891  0.25612  1.0000
  H   H14       1.0  0.27561  0.17109  0.74388  1.0000
  H   H15       1.0  0.59824  0.78071  0.18130  1.0000
  H   H16       1.0  0.40176  0.21929  0.81870  1.0000
  H   H17       1.0  0.79691  0.60507  0.40868  1.0000
  H   H18       1.0  0.20309  0.39493  0.59132  1.0000
  H   H19       1.0  0.66140  0.55921  0.34399  1.0000
  H   H20       1.0  0.33860  0.44079  0.65601  1.0000
  H   H21       1.0  0.56240  0.68895  0.55727  1.0000
  H   H22       1.0  0.43760  0.31105  0.44272  1.0000
  H   H23       1.0  0.56639  0.84580  0.46931  1.0000
  H   H24       1.0  0.43361  0.15420  0.53069  1.0000
  H   H25       1.0  0.35665  0.85351  0.33005  1.0000
  H   H26       1.0  0.64334  0.14649  0.66994  1.0000
  H   H27       1.0  0.35911  0.69441  0.42025  1.0000
  H   H28       1.0  0.64089  0.30559  0.57975  1.0000
  H   H29       1.0  0.18699  0.11465  0.31326  1.0000
  H   H30       1.0  0.81301  0.88535  0.68674  1.0000
  H   H31       1.0  0.99434  0.36284  0.36917  1.0000
  H   H32       1.0  0.00567  0.63716  0.63084  1.0000
  H   H33       1.0  0.86775  0.41669  0.59603  1.0000
  H   H34       1.0  0.13225  0.58331  0.40397  1.0000
  H   H35       1.0  0.92844  0.21704  0.77527  1.0000
  H   H36       1.0  0.07156  0.78296  0.22473  1.0000
  C   C1        1.0  0.73799  0.42862  0.96580  1.0000
  C   C2        1.0  0.26201  0.57138  0.03420  1.0000
  C   C3        1.0  0.65050  0.41633  0.87165  1.0000
  C   C4        1.0  0.34950  0.58367  0.12835  1.0000
  C   C5        1.0  0.56067  0.54308  0.79978  1.0000
  C   C6        1.0  0.43933  0.45692  0.20022  1.0000
  C   C7        1.0  0.55651  0.67877  0.81934  1.0000
  C   C8        1.0  0.44349  0.32123  0.18066  1.0000
  C   C9        1.0  0.64189  0.69303  0.91155  1.0000
  C   C10       1.0  0.35811  0.30697  0.08845  1.0000
  C   C11       1.0  0.73160  0.56503  0.98439  1.0000
  C   C12       1.0  0.26840  0.43496  0.01561  1.0000
  C   C13       1.0  0.85184  0.64328  0.14599  1.0000
  C   C14       1.0  0.14816  0.35672  0.85401  1.0000
  C   C15       1.0  0.70589  0.73523  0.23519  1.0000
  C   C16       1.0  0.29411  0.26476  0.76481  1.0000
  C   C17       1.0  0.68323  0.65212  0.36285  1.0000
  C   C18       1.0  0.31677  0.34788  0.63715  1.0000
  C   C19       1.0  0.55074  0.74704  0.46020  1.0000
  C   C20       1.0  0.44926  0.25296  0.53980  1.0000
  C   C21       1.0  0.38054  0.79074  0.42486  1.0000
  C   C22       1.0  0.61945  0.20926  0.57514  1.0000
  C   C23       1.0  0.16714  0.02740  0.51540  1.0000
  C   C24       1.0  0.83286  0.97260  0.48460  1.0000
  C   C25       1.0  0.13511  0.13702  0.41360  1.0000
  C   C26       1.0  0.86489  0.86298  0.58641  1.0000
  C   C27       1.0  0.02643  0.27582  0.44655  1.0000
  C   C28       1.0  0.97358  0.72419  0.55345  1.0000
  C   C29       1.0  0.95293  0.30572  0.57545  1.0000
  C   C30       1.0  0.04707  0.69428  0.42455  1.0000
  C   C31       1.0  0.98441  0.19690  0.67585  1.0000
  C   C32       1.0  0.01559  0.80310  0.32415  1.0000
  C   C33       1.0  0.09286  0.05598  0.64383  1.0000
  C   C34       1.0  0.90714  0.94402  0.35617  1.0000
  I   I1        1.0  0.76886  0.01043  0.95054  1.0000
  I   I2        1.0  0.23114  0.98957  0.04946  1.0000
  N   N1        1.0  0.83627  0.32799  0.05435  1.0000
  N   N2        1.0  0.16373  0.67201  0.94565  1.0000
  N   N3        1.0  0.88682  0.39507  0.12517  1.0000
  N   N4        1.0  0.11318  0.60493  0.87483  1.0000
  N   N5        1.0  0.82517  0.53744  0.08383  1.0000
  N   N6        1.0  0.17483  0.46256  0.91617  1.0000
  N   N7        1.0  0.26149  0.88061  0.52255  1.0000
  N   N8        1.0  0.73851  0.11939  0.47745  1.0000
  N   N9        1.0  0.24839  0.82195  0.64547  1.0000
  N   N10       1.0  0.75161  0.17805  0.35453  1.0000
  N   N11       1.0  0.14739  0.92600  0.71924  1.0000
  N   N12       1.0  0.85261  0.07400  0.28076  1.0000
