data_image0
_chemical_formula_structural       Cu2H30C32I2N10
_chemical_formula_sum              "Cu2 H30 C32 I2 N10"
_cell_length_a       8.47804
_cell_length_b       9.39881
_cell_length_c       10.419
_cell_angle_alpha    85.8892
_cell_angle_beta     77.2225
_cell_angle_gamma    72.6685

_space_group_name_H-M_alt    "P 1"
_space_group_IT_number       1

loop_
  _space_group_symop_operation_xyz
  'x, y, z'

loop_
  _atom_site_type_symbol
  _atom_site_label
  _atom_site_symmetry_multiplicity
  _atom_site_fract_x
  _atom_site_fract_y
  _atom_site_fract_z
  _atom_site_occupancy
  Cu  Cu1       1.0  0.08302  0.04903  0.88260  1.0000
  Cu  Cu2       1.0  0.91699  0.95097  0.11740  1.0000
  H   H1        1.0  0.48894  0.95061  0.81282  1.0000
  H   H2        1.0  0.51108  0.04938  0.18718  1.0000
  H   H3        1.0  0.60050  0.69229  0.37743  1.0000
  H   H4        1.0  0.39949  0.30771  0.62257  1.0000
  H   H5        1.0  0.35198  0.68244  0.29048  1.0000
  H   H6        1.0  0.64800  0.31756  0.70952  1.0000
  H   H7        1.0  0.06370  0.79089  0.41034  1.0000
  H   H8        1.0  0.93627  0.20912  0.58968  1.0000
  H   H9        1.0  0.00458  0.91350  0.63208  1.0000
  H   H10       1.0  0.99541  0.08650  0.36794  1.0000
  H   H11       1.0  0.75421  0.83319  0.48129  1.0000
  H   H12       1.0  0.24578  0.16680  0.51870  1.0000
  H   H13       1.0  0.75738  0.89340  0.63780  1.0000
  H   H14       1.0  0.24262  0.10659  0.36218  1.0000
  H   H15       1.0  0.95782  0.64362  0.58335  1.0000
  H   H16       1.0  0.04218  0.35637  0.41664  1.0000
  H   H17       1.0  0.79314  0.56951  0.56889  1.0000
  H   H18       1.0  0.20686  0.43048  0.43111  1.0000
  H   H19       1.0  0.67155  0.59790  0.80491  1.0000
  H   H20       1.0  0.32845  0.40210  0.19508  1.0000
  H   H21       1.0  0.78787  0.72200  0.82206  1.0000
  H   H22       1.0  0.21214  0.27800  0.17794  1.0000
  H   H23       1.0  0.37987  0.19437  0.90891  1.0000
  H   H24       1.0  0.62013  0.80563  0.09109  1.0000
  H   H25       1.0  0.50927  0.39485  0.92479  1.0000
  H   H26       1.0  0.49073  0.60515  0.07522  1.0000
  H   H27       1.0  0.35462  0.66228  0.89370  1.0000
  H   H28       1.0  0.64538  0.33773  0.10631  1.0000
  H   H29       1.0  0.07381  0.73504  0.83632  1.0000
  H   H30       1.0  0.92619  0.26497  0.16369  1.0000
  C   C1        1.0  0.43857  0.91423  0.73775  1.0000
  C   C2        1.0  0.56144  0.08576  0.26225  1.0000
  C   C3        1.0  0.43715  0.81004  0.55375  1.0000
  C   C4        1.0  0.56284  0.18996  0.44626  1.0000
  C   C5        1.0  0.47210  0.73914  0.43304  1.0000
  C   C6        1.0  0.52788  0.26086  0.56696  1.0000
  C   C7        1.0  0.33323  0.73296  0.38545  1.0000
  C   C8        1.0  0.66675  0.26705  0.61456  1.0000
  C   C9        1.0  0.16652  0.79488  0.45561  1.0000
  C   C10       1.0  0.83346  0.20512  0.54440  1.0000
  C   C11       1.0  0.13241  0.86339  0.57684  1.0000
  C   C12       1.0  0.86758  0.13661  0.42317  1.0000
  C   C13       1.0  0.27019  0.87024  0.62634  1.0000
  C   C14       1.0  0.72981  0.12975  0.37366  1.0000
  C   C15       1.0  0.72383  0.81116  0.58754  1.0000
  C   C16       1.0  0.27617  0.18884  0.41245  1.0000
  C   C17       1.0  0.82312  0.65339  0.62011  1.0000
  C   C18       1.0  0.17688  0.34660  0.37988  1.0000
  C   C19       1.0  0.79176  0.62352  0.76869  1.0000
  C   C20       1.0  0.20824  0.37648  0.23131  1.0000
  C   C21       1.0  0.15518  0.35152  0.85769  1.0000
  C   C22       1.0  0.84483  0.64848  0.14231  1.0000
  C   C23       1.0  0.31472  0.31014  0.89062  1.0000
  C   C24       1.0  0.68529  0.68986  0.10938  1.0000
  C   C25       1.0  0.38476  0.42391  0.90040  1.0000
  C   C26       1.0  0.61525  0.57609  0.09961  1.0000
  C   C27       1.0  0.29878  0.57521  0.88036  1.0000
  C   C28       1.0  0.70122  0.42480  0.11964  1.0000
  C   C29       1.0  0.14137  0.61800  0.84731  1.0000
  C   C30       1.0  0.85863  0.38200  0.15270  1.0000
  C   C31       1.0  0.07261  0.50261  0.83488  1.0000
  C   C32       1.0  0.92740  0.49740  0.16511  1.0000
  I   I1        1.0  0.77889  0.02007  0.90497  1.0000
  I   I2        1.0  0.22112  0.97992  0.09503  1.0000
  N   N1        1.0  0.27566  0.93333  0.74180  1.0000
  N   N2        1.0  0.72435  0.06667  0.25821  1.0000
  N   N3        1.0  0.54095  0.84125  0.62691  1.0000
  N   N4        1.0  0.45905  0.15874  0.37309  1.0000
  N   N5        1.0  0.92361  0.49974  0.80601  1.0000
  N   N6        1.0  0.07640  0.50026  0.19399  1.0000
  N   N7        1.0  0.91270  0.35883  0.81033  1.0000
  N   N8        1.0  0.08730  0.64117  0.18967  1.0000
  N   N9        1.0  0.05009  0.26879  0.84242  1.0000
  N   N10       1.0  0.94992  0.73121  0.15757  1.0000
