data_image0
_chemical_formula_structural       Cu4H36C34I4N12
_chemical_formula_sum              "Cu4 H36 C34 I4 N12"
_cell_length_a       8.38843
_cell_length_b       10.0387
_cell_length_c       13.5728
_cell_angle_alpha    75.8389
_cell_angle_beta     74.5323
_cell_angle_gamma    66.4259

_space_group_name_H-M_alt    "P 1"
_space_group_IT_number       1

loop_
  _space_group_symop_operation_xyz
  'x, y, z'

loop_
  _atom_site_type_symbol
  _atom_site_label
  _atom_site_symmetry_multiplicity
  _atom_site_fract_x
  _atom_site_fract_y
  _atom_site_fract_z
  _atom_site_occupancy
  Cu  Cu1       1.0  0.59476  0.08007  0.46371  1.0000
  Cu  Cu2       1.0  0.40525  0.91992  0.53629  1.0000
  Cu  Cu3       1.0  0.29314  0.09221  0.68135  1.0000
  Cu  Cu4       1.0  0.70687  0.90779  0.31864  1.0000
  H   H1        1.0  0.61881  0.39005  0.32382  1.0000
  H   H2        1.0  0.38120  0.60994  0.67618  1.0000
  H   H3        1.0  0.51361  0.66562  0.26462  1.0000
  H   H4        1.0  0.48640  0.33437  0.73538  1.0000
  H   H5        1.0  0.23895  0.83030  0.35894  1.0000
  H   H6        1.0  0.76107  0.16970  0.64106  1.0000
  H   H7        1.0  0.05495  0.73644  0.51164  1.0000
  H   H8        1.0  0.94506  0.26356  0.48837  1.0000
  H   H9        1.0  0.01711  0.34932  0.71311  1.0000
  H   H10       1.0  0.98292  0.65066  0.28689  1.0000
  H   H11       1.0  0.91052  0.51968  0.63814  1.0000
  H   H12       1.0  0.08950  0.48031  0.36186  1.0000
  H   H13       1.0  0.17446  0.47395  0.77303  1.0000
  H   H14       1.0  0.82554  0.52603  0.22698  1.0000
  H   H15       1.0  0.06565  0.64328  0.69797  1.0000
  H   H16       1.0  0.93437  0.35670  0.30203  1.0000
  H   H17       1.0  0.88867  0.47085  0.88142  1.0000
  H   H18       1.0  0.11132  0.52915  0.11858  1.0000
  H   H19       1.0  0.77128  0.62727  0.79978  1.0000
  H   H20       1.0  0.22874  0.37272  0.20022  1.0000
  H   H21       1.0  0.00986  0.61955  0.93962  1.0000
  H   H22       1.0  0.99014  0.38044  0.06038  1.0000
  H   H23       1.0  0.93363  0.76927  0.84226  1.0000
  H   H24       1.0  0.06639  0.23073  0.15774  1.0000
  H   H25       1.0  0.61915  0.79572  0.92510  1.0000
  H   H26       1.0  0.38085  0.20430  0.07488  1.0000
  H   H27       1.0  0.69317  0.64906  0.02580  1.0000
  H   H28       1.0  0.30681  0.35095  0.97420  1.0000
  H   H29       1.0  0.72962  0.03562  0.82997  1.0000
  H   H30       1.0  0.27034  0.96440  0.17003  1.0000
  H   H31       1.0  0.73513  0.28297  0.82567  1.0000
  H   H32       1.0  0.26481  0.71706  0.17433  1.0000
  H   H33       1.0  0.73501  0.36310  0.98392  1.0000
  H   H34       1.0  0.26494  0.63692  0.01608  1.0000
  H   H35       1.0  0.73949  0.19439  0.15464  1.0000
  H   H36       1.0  0.26049  0.80562  0.84536  1.0000
  C   C1        1.0  0.39732  0.41316  0.45247  1.0000
  C   C2        1.0  0.60269  0.58683  0.54753  1.0000
  C   C3        1.0  0.49799  0.46621  0.36314  1.0000
  C   C4        1.0  0.50203  0.53379  0.63686  1.0000
  C   C5        1.0  0.43727  0.61721  0.33129  1.0000
  C   C6        1.0  0.56274  0.38280  0.66872  1.0000
  C   C7        1.0  0.27976  0.71203  0.38518  1.0000
  C   C8        1.0  0.72026  0.28797  0.61482  1.0000
  C   C9        1.0  0.17601  0.66065  0.47209  1.0000
  C   C10       1.0  0.82401  0.33935  0.52791  1.0000
  C   C11       1.0  0.23910  0.50818  0.50539  1.0000
  C   C12       1.0  0.76092  0.49182  0.49461  1.0000
  C   C13       1.0  0.02985  0.45443  0.67160  1.0000
  C   C14       1.0  0.97016  0.54555  0.32840  1.0000
  C   C15       1.0  0.05237  0.53956  0.74263  1.0000
  C   C16       1.0  0.94764  0.46043  0.25738  1.0000
  C   C17       1.0  0.89408  0.57424  0.83160  1.0000
  C   C18       1.0  0.10592  0.42576  0.16840  1.0000
  C   C19       1.0  0.90240  0.67680  0.89513  1.0000
  C   C20       1.0  0.09760  0.32320  0.10487  1.0000
  C   C21       1.0  0.72719  0.73691  0.96889  1.0000
  C   C22       1.0  0.27280  0.26310  0.03110  1.0000
  C   C23       1.0  0.73393  0.97716  0.99587  1.0000
  C   C24       1.0  0.26606  0.02284  0.00413  1.0000
  C   C25       1.0  0.73229  0.06957  0.89975  1.0000
  C   C26       1.0  0.26767  0.93046  0.10025  1.0000
  C   C27       1.0  0.73510  0.20730  0.89858  1.0000
  C   C28       1.0  0.26486  0.79272  0.10143  1.0000
  C   C29       1.0  0.73670  0.25250  0.98921  1.0000
  C   C30       1.0  0.26325  0.74753  0.01079  1.0000
  C   C31       1.0  0.73857  0.16122  0.08420  1.0000
  C   C32       1.0  0.26143  0.83878  0.91580  1.0000
  C   C33       1.0  0.73854  0.02079  0.08628  1.0000
  C   C34       1.0  0.26146  0.97922  0.91372  1.0000
  I   I1        1.0  0.89215  0.05144  0.34137  1.0000
  I   I2        1.0  0.10784  0.94856  0.65863  1.0000
  I   I3        1.0  0.64369  0.91325  0.64950  1.0000
  I   I4        1.0  0.35631  0.08673  0.35050  1.0000
  N   N1        1.0  0.42630  0.27301  0.50516  1.0000
  N   N2        1.0  0.57371  0.72698  0.49483  1.0000
  N   N3        1.0  0.29694  0.27609  0.58584  1.0000
  N   N4        1.0  0.70307  0.72390  0.41415  1.0000
  N   N5        1.0  0.18079  0.41709  0.58709  1.0000
  N   N6        1.0  0.81922  0.58290  0.41291  1.0000
  N   N7        1.0  0.73027  0.83789  0.02861  1.0000
  N   N8        1.0  0.26973  0.16212  0.97139  1.0000
  N   N9        1.0  0.73329  0.79693  0.13081  1.0000
  N   N10       1.0  0.26672  0.20307  0.86918  1.0000
  N   N11       1.0  0.73793  0.90561  0.16648  1.0000
  N   N12       1.0  0.26207  0.09439  0.83351  1.0000
