data_image0
_chemical_formula_structural       V8Zn4H36C40N12O24
_chemical_formula_sum              "V8 Zn4 H36 C40 N12 O24"
_cell_length_a       7.9734
_cell_length_b       10.5602
_cell_length_c       16.7009
_cell_angle_alpha    89.9999
_cell_angle_beta     101.26
_cell_angle_gamma    89.9998

_space_group_name_H-M_alt    "P 1"
_space_group_IT_number       1

loop_
  _space_group_symop_operation_xyz
  'x, y, z'

loop_
  _atom_site_type_symbol
  _atom_site_label
  _atom_site_symmetry_multiplicity
  _atom_site_fract_x
  _atom_site_fract_y
  _atom_site_fract_z
  _atom_site_occupancy
  V   V1        1.0  0.39954  0.85791  0.27837  1.0000
  V   V2        1.0  0.10047  0.35791  0.22163  1.0000
  V   V3        1.0  0.60046  0.14209  0.72163  1.0000
  V   V4        1.0  0.89954  0.64209  0.77837  1.0000
  V   V5        1.0  0.08022  0.04300  0.24121  1.0000
  V   V6        1.0  0.41978  0.54300  0.25879  1.0000
  V   V7        1.0  0.91978  0.95701  0.75879  1.0000
  V   V8        1.0  0.58022  0.45701  0.74121  1.0000
  Zn  Zn1       1.0  0.67782  0.98923  0.17002  1.0000
  Zn  Zn2       1.0  0.82219  0.48922  0.32998  1.0000
  Zn  Zn3       1.0  0.32219  0.01077  0.82998  1.0000
  Zn  Zn4       1.0  0.17781  0.51078  0.67002  1.0000
  H   H1        1.0  0.81700  0.00116  0.93893  1.0000
  H   H2        1.0  0.68300  0.50116  0.56108  1.0000
  H   H3        1.0  0.18300  0.99884  0.06108  1.0000
  H   H4        1.0  0.31700  0.49884  0.43892  1.0000
  H   H5        1.0  0.71698  0.71535  0.18613  1.0000
  H   H6        1.0  0.78301  0.21535  0.31388  1.0000
  H   H7        1.0  0.28302  0.28465  0.81387  1.0000
  H   H8        1.0  0.21699  0.78465  0.68612  1.0000
  H   H9        1.0  0.83994  0.53966  0.11650  1.0000
  H   H10       1.0  0.66005  0.03967  0.38351  1.0000
  H   H11       1.0  0.16006  0.46033  0.88350  1.0000
  H   H12       1.0  0.33994  0.96033  0.61650  1.0000
  H   H13       1.0  0.93719  0.59086  0.98321  1.0000
  H   H14       1.0  0.56281  0.09087  0.51680  1.0000
  H   H15       1.0  0.06281  0.40914  0.01679  1.0000
  H   H16       1.0  0.43718  0.90913  0.48320  1.0000
  H   H17       1.0  0.90321  0.80790  0.92920  1.0000
  H   H18       1.0  0.59678  0.30790  0.57080  1.0000
  H   H19       1.0  0.09679  0.19210  0.07080  1.0000
  H   H20       1.0  0.40321  0.69210  0.42920  1.0000
  H   H21       1.0  0.75788  0.19990  0.90514  1.0000
  H   H22       1.0  0.74212  0.69990  0.59486  1.0000
  H   H23       1.0  0.24212  0.80010  0.09486  1.0000
  H   H24       1.0  0.25788  0.30010  0.40514  1.0000
  H   H25       1.0  0.64249  0.40720  0.93673  1.0000
  H   H26       1.0  0.85752  0.90720  0.56327  1.0000
  H   H27       1.0  0.35751  0.59280  0.06327  1.0000
  H   H28       1.0  0.14248  0.09280  0.43673  1.0000
  H   H29       1.0  0.51610  0.42836  0.06522  1.0000
  H   H30       1.0  0.98390  0.92835  0.43477  1.0000
  H   H31       1.0  0.48390  0.57165  0.93478  1.0000
  H   H32       1.0  0.01610  0.07165  0.56522  1.0000
  H   H33       1.0  0.52419  0.24118  0.15509  1.0000
  H   H34       1.0  0.97581  0.74118  0.34491  1.0000
  H   H35       1.0  0.47581  0.75882  0.84491  1.0000
  H   H36       1.0  0.02419  0.25882  0.65509  1.0000
  C   C1        1.0  0.76127  0.73188  0.12924  1.0000
  C   C2        1.0  0.73872  0.23188  0.37076  1.0000
  C   C3        1.0  0.23873  0.26812  0.87076  1.0000
  C   C4        1.0  0.26127  0.76812  0.62924  1.0000
  C   C5        1.0  0.82873  0.63439  0.09032  1.0000
  C   C6        1.0  0.67126  0.13439  0.40968  1.0000
  C   C7        1.0  0.17126  0.36561  0.90968  1.0000
  C   C8        1.0  0.32874  0.86561  0.59032  1.0000
  C   C9        1.0  0.88165  0.66251  0.01704  1.0000
  C   C10       1.0  0.61834  0.16252  0.48297  1.0000
  C   C11       1.0  0.11834  0.33748  0.98296  1.0000
  C   C12       1.0  0.38166  0.83748  0.51703  1.0000
  C   C13       1.0  0.86215  0.78367  0.98566  1.0000
  C   C14       1.0  0.63784  0.28367  0.51435  1.0000
  C   C15       1.0  0.13785  0.21633  0.01434  1.0000
  C   C16       1.0  0.36215  0.71633  0.48565  1.0000
  C   C17       1.0  0.79068  0.87831  0.02812  1.0000
  C   C18       1.0  0.70931  0.37831  0.47188  1.0000
  C   C19       1.0  0.20932  0.12169  0.97188  1.0000
  C   C20       1.0  0.29068  0.62169  0.52812  1.0000
  C   C21       1.0  0.70589  0.11000  0.01417  1.0000
  C   C22       1.0  0.79411  0.60999  0.48583  1.0000
  C   C23       1.0  0.29411  0.89001  0.98583  1.0000
  C   C24       1.0  0.20589  0.39001  0.51417  1.0000
  C   C25       1.0  0.70559  0.21261  0.96007  1.0000
  C   C26       1.0  0.79442  0.71261  0.53993  1.0000
  C   C27       1.0  0.29441  0.78739  0.03993  1.0000
  C   C28       1.0  0.20558  0.28739  0.46007  1.0000
  C   C29       1.0  0.63901  0.32753  0.97786  1.0000
  C   C30       1.0  0.86099  0.82753  0.52213  1.0000
  C   C31       1.0  0.36099  0.67247  0.02214  1.0000
  C   C32       1.0  0.13901  0.17247  0.47786  1.0000
  C   C33       1.0  0.56976  0.34006  0.04840  1.0000
  C   C34       1.0  0.93024  0.84005  0.45160  1.0000
  C   C35       1.0  0.43024  0.65994  0.95160  1.0000
  C   C36       1.0  0.06976  0.15995  0.54840  1.0000
  C   C37       1.0  0.57498  0.23643  0.09908  1.0000
  C   C38       1.0  0.92502  0.73642  0.40092  1.0000
  C   C39       1.0  0.42502  0.76357  0.90092  1.0000
  C   C40       1.0  0.07498  0.26358  0.59908  1.0000
  N   N1        1.0  0.74328  0.85167  0.09966  1.0000
  N   N2        1.0  0.75672  0.35167  0.40035  1.0000
  N   N3        1.0  0.25673  0.14833  0.90034  1.0000
  N   N4        1.0  0.24327  0.64833  0.59965  1.0000
  N   N5        1.0  0.77148  0.99689  0.99304  1.0000
  N   N6        1.0  0.72852  0.49689  0.50696  1.0000
  N   N7        1.0  0.22852  0.00311  0.00696  1.0000
  N   N8        1.0  0.27147  0.50311  0.49304  1.0000
  N   N9        1.0  0.64316  0.12358  0.08341  1.0000
  N   N10       1.0  0.85684  0.62357  0.41659  1.0000
  N   N11       1.0  0.35683  0.87642  0.91659  1.0000
  N   N12       1.0  0.14316  0.37643  0.58341  1.0000
  O   O1        1.0  0.47482  0.94847  0.20920  1.0000
  O   O2        1.0  0.02519  0.44847  0.29081  1.0000
  O   O3        1.0  0.52519  0.05153  0.79081  1.0000
  O   O4        1.0  0.97481  0.55153  0.70919  1.0000
  O   O5        1.0  0.21662  0.93556  0.30764  1.0000
  O   O6        1.0  0.28338  0.43555  0.19236  1.0000
  O   O7        1.0  0.78339  0.06445  0.69236  1.0000
  O   O8        1.0  0.71661  0.56445  0.80764  1.0000
  O   O9        1.0  0.34371  0.70221  0.23687  1.0000
  O   O10       1.0  0.15630  0.20220  0.26313  1.0000
  O   O11       1.0  0.65629  0.29779  0.76313  1.0000
  O   O12       1.0  0.84371  0.79780  0.73687  1.0000
  O   O13       1.0  0.54795  0.84198  0.35912  1.0000
  O   O14       1.0  0.95206  0.34199  0.14088  1.0000
  O   O15       1.0  0.45205  0.15801  0.64088  1.0000
  O   O16       1.0  0.04795  0.65801  0.85912  1.0000
  O   O17       1.0  0.08409  0.00621  0.14620  1.0000
  O   O18       1.0  0.41592  0.50622  0.35380  1.0000
  O   O19       1.0  0.91592  0.99378  0.85380  1.0000
  O   O20       1.0  0.58408  0.49378  0.64620  1.0000
  O   O21       1.0  0.87619  0.02796  0.25604  1.0000
  O   O22       1.0  0.62380  0.52796  0.24396  1.0000
  O   O23       1.0  0.12380  0.97204  0.74396  1.0000
  O   O24       1.0  0.37620  0.47204  0.75604  1.0000
