data_image0
_chemical_formula_structural       V8Zn4H36C40N12O24
_chemical_formula_sum              "V8 Zn4 H36 C40 N12 O24"
_cell_length_a       9.38106
_cell_length_b       10.6786
_cell_length_c       15.1637
_cell_angle_alpha    105.398
_cell_angle_beta     104.826
_cell_angle_gamma    93.2896

_space_group_name_H-M_alt    "P 1"
_space_group_IT_number       1

loop_
  _space_group_symop_operation_xyz
  'x, y, z'

loop_
  _atom_site_type_symbol
  _atom_site_label
  _atom_site_symmetry_multiplicity
  _atom_site_fract_x
  _atom_site_fract_y
  _atom_site_fract_z
  _atom_site_occupancy
  V   V1        1.0  0.33259  0.34772  0.70431  1.0000
  V   V2        1.0  0.66739  0.65229  0.29569  1.0000
  V   V3        1.0  0.14138  0.16076  0.79485  1.0000
  V   V4        1.0  0.85862  0.83925  0.20515  1.0000
  V   V5        1.0  0.90368  0.96296  0.57920  1.0000
  V   V6        1.0  0.09632  0.03703  0.42080  1.0000
  V   V7        1.0  0.41924  0.45247  0.08308  1.0000
  V   V8        1.0  0.58076  0.54753  0.91692  1.0000
  Zn  Zn1       1.0  0.23231  0.15193  0.01712  1.0000
  Zn  Zn2       1.0  0.76769  0.84807  0.98288  1.0000
  Zn  Zn3       1.0  0.33176  0.29697  0.48488  1.0000
  Zn  Zn4       1.0  0.66824  0.70303  0.51512  1.0000
  H   H1        1.0  0.43707  0.43106  0.26972  1.0000
  H   H2        1.0  0.56293  0.56894  0.73028  1.0000
  H   H3        1.0  0.09435  0.06674  0.23891  1.0000
  H   H4        1.0  0.90566  0.93326  0.76110  1.0000
  H   H5        1.0  0.23137  0.91221  0.26645  1.0000
  H   H6        1.0  0.76863  0.08779  0.73356  1.0000
  H   H7        1.0  0.00644  0.32608  0.98166  1.0000
  H   H8        1.0  0.99358  0.67392  0.01834  1.0000
  H   H9        1.0  0.39080  0.92448  0.98411  1.0000
  H   H10       1.0  0.60921  0.07552  0.01590  1.0000
  H   H11       1.0  0.27187  0.57022  0.25424  1.0000
  H   H12       1.0  0.72811  0.42977  0.74575  1.0000
  H   H13       1.0  0.57160  0.28175  0.21642  1.0000
  H   H14       1.0  0.42840  0.71824  0.78357  1.0000
  H   H15       1.0  0.18246  0.51997  0.54948  1.0000
  H   H16       1.0  0.81754  0.48003  0.45052  1.0000
  H   H17       1.0  0.84717  0.45082  0.07161  1.0000
  H   H18       1.0  0.15283  0.54918  0.92838  1.0000
  H   H19       1.0  0.96565  0.22749  0.27406  1.0000
  H   H20       1.0  0.03435  0.77250  0.72593  1.0000
  H   H21       1.0  0.83030  0.40346  0.22431  1.0000
  H   H22       1.0  0.16970  0.59653  0.77568  1.0000
  H   H23       1.0  0.39168  0.75139  0.21062  1.0000
  H   H24       1.0  0.60833  0.24861  0.78939  1.0000
  H   H25       1.0  0.53216  0.09898  0.47576  1.0000
  H   H26       1.0  0.46784  0.90102  0.52424  1.0000
  H   H27       1.0  0.11166  0.71461  0.32904  1.0000
  H   H28       1.0  0.88833  0.28539  0.67096  1.0000
  H   H29       1.0  0.06718  0.69336  0.48276  1.0000
  H   H30       1.0  0.93282  0.30665  0.51725  1.0000
  H   H31       1.0  0.47663  0.75719  0.06518  1.0000
  H   H32       1.0  0.52338  0.24281  0.93483  1.0000
  H   H33       1.0  0.70387  0.09090  0.23676  1.0000
  H   H34       1.0  0.29613  0.90910  0.76323  1.0000
  H   H35       1.0  0.68562  0.99773  0.37138  1.0000
  H   H36       1.0  0.31438  0.00227  0.62862  1.0000
  C   C1        1.0  0.22336  0.00316  0.15351  1.0000
  C   C2        1.0  0.77665  0.99684  0.84650  1.0000
  C   C3        1.0  0.48116  0.29087  0.33534  1.0000
  C   C4        1.0  0.51884  0.70912  0.66465  1.0000
  C   C5        1.0  0.05799  0.18493  0.15439  1.0000
  C   C6        1.0  0.94201  0.81507  0.84561  1.0000
  C   C7        1.0  0.31809  0.47259  0.36477  1.0000
  C   C8        1.0  0.68190  0.52740  0.63522  1.0000
  C   C9        1.0  0.26728  0.91123  0.20347  1.0000
  C   C10       1.0  0.73273  0.08878  0.79654  1.0000
  C   C11       1.0  0.99329  0.30777  0.04669  1.0000
  C   C12       1.0  0.00672  0.69223  0.95331  1.0000
  C   C13       1.0  0.35907  0.91815  0.04726  1.0000
  C   C14       1.0  0.64095  0.08185  0.95275  1.0000
  C   C15       1.0  0.25372  0.56535  0.32149  1.0000
  C   C16       1.0  0.74627  0.43464  0.67850  1.0000
  C   C17       1.0  0.56714  0.23932  0.27368  1.0000
  C   C18       1.0  0.43285  0.76067  0.72631  1.0000
  C   C19       1.0  0.20211  0.53833  0.48581  1.0000
  C   C20       1.0  0.79789  0.46166  0.51419  1.0000
  C   C21       1.0  0.90411  0.37575  0.09692  1.0000
  C   C22       1.0  0.09589  0.62425  0.90308  1.0000
  C   C23       1.0  0.96968  0.25125  0.20905  1.0000
  C   C24       1.0  0.03032  0.74874  0.79095  1.0000
  C   C25       1.0  0.89403  0.34771  0.18046  1.0000
  C   C26       1.0  0.10597  0.65229  0.81954  1.0000
  C   C27       1.0  0.35800  0.82265  0.17238  1.0000
  C   C28       1.0  0.64201  0.17736  0.82763  1.0000
  C   C29       1.0  0.54354  0.13543  0.41708  1.0000
  C   C30       1.0  0.45646  0.86457  0.58292  1.0000
  C   C31       1.0  0.16423  0.64522  0.36358  1.0000
  C   C32       1.0  0.83575  0.35477  0.63642  1.0000
  C   C33       1.0  0.13882  0.63332  0.44846  1.0000
  C   C34       1.0  0.86117  0.36668  0.55154  1.0000
  C   C35       1.0  0.40531  0.82503  0.09228  1.0000
  C   C36       1.0  0.59470  0.17497  0.90773  1.0000
  C   C37       1.0  0.63998  0.13326  0.28548  1.0000
  C   C38       1.0  0.36002  0.86673  0.71451  1.0000
  C   C39       1.0  0.62982  0.08064  0.35939  1.0000
  C   C40       1.0  0.37017  0.91936  0.64061  1.0000
  N   N1        1.0  0.29073  0.45906  0.44519  1.0000
  N   N2        1.0  0.70926  0.54093  0.55481  1.0000
  N   N3        1.0  0.40961  0.39639  0.32104  1.0000
  N   N4        1.0  0.59038  0.60361  0.67895  1.0000
  N   N5        1.0  0.46844  0.23731  0.40483  1.0000
  N   N6        1.0  0.53156  0.76269  0.59517  1.0000
  N   N7        1.0  0.27061  0.00667  0.07712  1.0000
  N   N8        1.0  0.72940  0.99333  0.92289  1.0000
  N   N9        1.0  0.13104  0.08928  0.18610  1.0000
  N   N10       1.0  0.86896  0.91073  0.81390  1.0000
  N   N11       1.0  0.07090  0.21467  0.07512  1.0000
  N   N12       1.0  0.92910  0.78532  0.92488  1.0000
  O   O1        1.0  0.40490  0.28743  0.06437  1.0000
  O   O2        1.0  0.59510  0.71257  0.93563  1.0000
  O   O3        1.0  0.25558  0.49835  0.07378  1.0000
  O   O4        1.0  0.74442  0.50166  0.92621  1.0000
  O   O5        1.0  0.50001  0.50000  0.00000  1.0000
  O   O6        1.0  0.21427  0.09281  0.88328  1.0000
  O   O7        1.0  0.78573  0.90720  0.11672  1.0000
  O   O8        1.0  0.05372  0.28048  0.83374  1.0000
  O   O9        1.0  0.94628  0.71953  0.16626  1.0000
  O   O10       1.0  0.01424  0.03144  0.70110  1.0000
  O   O11       1.0  0.98576  0.96856  0.29890  1.0000
  O   O12       1.0  0.74605  0.02195  0.56610  1.0000
  O   O13       1.0  0.25396  0.97805  0.43391  1.0000
  O   O14       1.0  0.00000  0.00000  0.50000  1.0000
  O   O15       1.0  0.28566  0.21738  0.75049  1.0000
  O   O16       1.0  0.71434  0.78263  0.24950  1.0000
  O   O17       1.0  0.53160  0.52646  0.20414  1.0000
  O   O18       1.0  0.46839  0.47354  0.79586  1.0000
  O   O19       1.0  0.18767  0.41513  0.66607  1.0000
  O   O20       1.0  0.81232  0.58488  0.33393  1.0000
  O   O21       1.0  0.40802  0.28889  0.61326  1.0000
  O   O22       1.0  0.59197  0.71112  0.38674  1.0000
  O   O23       1.0  0.87046  0.79898  0.56133  1.0000
  O   O24       1.0  0.12954  0.20102  0.43867  1.0000
