data_image0
_chemical_formula_structural       Sr6H36C56N8O36
_chemical_formula_sum              "Sr6 H36 C56 N8 O36"
_cell_length_a       9.09953
_cell_length_b       10.4297
_cell_length_c       18.6069
_cell_angle_alpha    104.098
_cell_angle_beta     89.9998
_cell_angle_gamma    90.0002

_space_group_name_H-M_alt    "P 1"
_space_group_IT_number       1

loop_
  _space_group_symop_operation_xyz
  'x, y, z'

loop_
  _atom_site_type_symbol
  _atom_site_label
  _atom_site_symmetry_multiplicity
  _atom_site_fract_x
  _atom_site_fract_y
  _atom_site_fract_z
  _atom_site_occupancy
  Sr  Sr1       1.0  0.94640  0.07238  0.90479  1.0000
  Sr  Sr2       1.0  0.44640  0.92762  0.59521  1.0000
  Sr  Sr3       1.0  0.05360  0.92762  0.09521  1.0000
  Sr  Sr4       1.0  0.55360  0.07238  0.40479  1.0000
  Sr  Sr5       1.0  0.00000  0.50000  1.00000  1.0000
  Sr  Sr6       1.0  0.50000  0.50000  0.50000  1.0000
  H   H1        1.0  0.90872  0.50719  0.81270  1.0000
  H   H2        1.0  0.40872  0.49281  0.68730  1.0000
  H   H3        1.0  0.09128  0.49281  0.18730  1.0000
  H   H4        1.0  0.59128  0.50720  0.31270  1.0000
  H   H5        1.0  0.70860  0.48634  0.71625  1.0000
  H   H6        1.0  0.20860  0.51366  0.78375  1.0000
  H   H7        1.0  0.29140  0.51366  0.28375  1.0000
  H   H8        1.0  0.79140  0.48634  0.21625  1.0000
  H   H9        1.0  0.60679  0.69563  0.69023  1.0000
  H   H10       1.0  0.10679  0.30436  0.80978  1.0000
  H   H11       1.0  0.39321  0.30436  0.30978  1.0000
  H   H12       1.0  0.89321  0.69563  0.19022  1.0000
  H   H13       1.0  0.62405  0.97990  0.92030  1.0000
  H   H14       1.0  0.12406  0.02010  0.57970  1.0000
  H   H15       1.0  0.37595  0.02010  0.07970  1.0000
  H   H16       1.0  0.87595  0.97990  0.42030  1.0000
  H   H17       1.0  0.69894  0.97912  0.99683  1.0000
  H   H18       1.0  0.19894  0.02088  0.50316  1.0000
  H   H19       1.0  0.30106  0.02088  0.00317  1.0000
  H   H20       1.0  0.80106  0.97912  0.49683  1.0000
  H   H21       1.0  0.42583  0.42968  0.85832  1.0000
  H   H22       1.0  0.92582  0.57032  0.64168  1.0000
  H   H23       1.0  0.57417  0.57032  0.14168  1.0000
  H   H24       1.0  0.07418  0.42969  0.35832  1.0000
  H   H25       1.0  0.32138  0.65581  0.91684  1.0000
  H   H26       1.0  0.82138  0.34419  0.58316  1.0000
  H   H27       1.0  0.67862  0.34419  0.08316  1.0000
  H   H28       1.0  0.17862  0.65581  0.41684  1.0000
  H   H29       1.0  0.48309  0.82068  0.00072  1.0000
  H   H30       1.0  0.98309  0.17932  0.49928  1.0000
  H   H31       1.0  0.51691  0.17932  0.99928  1.0000
  H   H32       1.0  0.01690  0.82068  0.50072  1.0000
  H   H33       1.0  0.67882  0.16645  0.80861  1.0000
  H   H34       1.0  0.17882  0.83355  0.69139  1.0000
  H   H35       1.0  0.32117  0.83355  0.19139  1.0000
  H   H36       1.0  0.82118  0.16645  0.30860  1.0000
  C   C1        1.0  0.90493  0.72011  0.83845  1.0000
  C   C2        1.0  0.40493  0.27989  0.66154  1.0000
  C   C3        1.0  0.09507  0.27989  0.16154  1.0000
  C   C4        1.0  0.59507  0.72012  0.33845  1.0000
  C   C5        1.0  0.85925  0.59389  0.79972  1.0000
  C   C6        1.0  0.35926  0.40611  0.70028  1.0000
  C   C7        1.0  0.14074  0.40611  0.20028  1.0000
  C   C8        1.0  0.64075  0.59389  0.29972  1.0000
  C   C9        1.0  0.74902  0.58296  0.74652  1.0000
  C   C10       1.0  0.24902  0.41705  0.75349  1.0000
  C   C11       1.0  0.25098  0.41704  0.25349  1.0000
  C   C12       1.0  0.75098  0.58295  0.24651  1.0000
  C   C13       1.0  0.69131  0.69790  0.73190  1.0000
  C   C14       1.0  0.19131  0.30210  0.76810  1.0000
  C   C15       1.0  0.30869  0.30210  0.26810  1.0000
  C   C16       1.0  0.80869  0.69790  0.23190  1.0000
  C   C17       1.0  0.74656  0.81986  0.77149  1.0000
  C   C18       1.0  0.24656  0.18014  0.72851  1.0000
  C   C19       1.0  0.25343  0.18014  0.22852  1.0000
  C   C20       1.0  0.75344  0.81986  0.27148  1.0000
  C   C21       1.0  0.01209  0.73869  0.90290  1.0000
  C   C22       1.0  0.51209  0.26130  0.59710  1.0000
  C   C23       1.0  0.98791  0.26131  0.09709  1.0000
  C   C24       1.0  0.48791  0.73870  0.40290  1.0000
  C   C25       1.0  0.68662  0.94816  0.75915  1.0000
  C   C26       1.0  0.18662  0.05183  0.74085  1.0000
  C   C27       1.0  0.31338  0.05184  0.24085  1.0000
  C   C28       1.0  0.81338  0.94816  0.25915  1.0000
  C   C29       1.0  0.63412  0.47595  0.91252  1.0000
  C   C30       1.0  0.13412  0.52405  0.58748  1.0000
  C   C31       1.0  0.36588  0.52405  0.08748  1.0000
  C   C32       1.0  0.86588  0.47595  0.41252  1.0000
  C   C33       1.0  0.49059  0.50533  0.89535  1.0000
  C   C34       1.0  0.99059  0.49468  0.60465  1.0000
  C   C35       1.0  0.50941  0.49468  0.10465  1.0000
  C   C36       1.0  0.00941  0.50533  0.39535  1.0000
  C   C37       1.0  0.43455  0.63065  0.92724  1.0000
  C   C38       1.0  0.93455  0.36935  0.57276  1.0000
  C   C39       1.0  0.56545  0.36935  0.07276  1.0000
  C   C40       1.0  0.06545  0.63065  0.42724  1.0000
  C   C41       1.0  0.52459  0.72236  0.97438  1.0000
  C   C42       1.0  0.02458  0.27765  0.52563  1.0000
  C   C43       1.0  0.47542  0.27764  0.02563  1.0000
  C   C44       1.0  0.97542  0.72235  0.47437  1.0000
  C   C45       1.0  0.66592  0.68338  0.98961  1.0000
  C   C46       1.0  0.16591  0.31662  0.51039  1.0000
  C   C47       1.0  0.33409  0.31662  0.01039  1.0000
  C   C48       1.0  0.83408  0.68338  0.48961  1.0000
  C   C49       1.0  0.70224  0.34349  0.87971  1.0000
  C   C50       1.0  0.20223  0.65650  0.62029  1.0000
  C   C51       1.0  0.29776  0.65651  0.12029  1.0000
  C   C52       1.0  0.79777  0.34349  0.37971  1.0000
  C   C53       1.0  0.77018  0.77463  0.04120  1.0000
  C   C54       1.0  0.27019  0.22538  0.45880  1.0000
  C   C55       1.0  0.22982  0.22538  0.95880  1.0000
  C   C56       1.0  0.72982  0.77462  0.54120  1.0000
  N   N1        1.0  0.84964  0.83042  0.82423  1.0000
  N   N2        1.0  0.34964  0.16958  0.67577  1.0000
  N   N3        1.0  0.15035  0.16958  0.17577  1.0000
  N   N4        1.0  0.65036  0.83042  0.32423  1.0000
  N   N5        1.0  0.71935  0.56209  0.95971  1.0000
  N   N6        1.0  0.21935  0.43791  0.54030  1.0000
  N   N7        1.0  0.28065  0.43791  0.04029  1.0000
  N   N8        1.0  0.78065  0.56209  0.45971  1.0000
  O   O1        1.0  0.02739  0.85474  0.94407  1.0000
  O   O2        1.0  0.52739  0.14526  0.55593  1.0000
  O   O3        1.0  0.97261  0.14526  0.05593  1.0000
  O   O4        1.0  0.47261  0.85475  0.44407  1.0000
  O   O5        1.0  0.07443  0.63500  0.91235  1.0000
  O   O6        1.0  0.57443  0.36500  0.58765  1.0000
  O   O7        1.0  0.92557  0.36501  0.08765  1.0000
  O   O8        1.0  0.42558  0.63500  0.41235  1.0000
  O   O9        1.0  0.74483  0.05364  0.80082  1.0000
  O   O10       1.0  0.24482  0.94636  0.69918  1.0000
  O   O11       1.0  0.25517  0.94637  0.19919  1.0000
  O   O12       1.0  0.75518  0.05364  0.30081  1.0000
  O   O13       1.0  0.58651  0.94613  0.71333  1.0000
  O   O14       1.0  0.08651  0.05386  0.78667  1.0000
  O   O15       1.0  0.41349  0.05386  0.28668  1.0000
  O   O16       1.0  0.91350  0.94613  0.21333  1.0000
  O   O17       1.0  0.82334  0.31413  0.90367  1.0000
  O   O18       1.0  0.32334  0.68588  0.59634  1.0000
  O   O19       1.0  0.17666  0.68587  0.09633  1.0000
  O   O20       1.0  0.67667  0.31413  0.40367  1.0000
  O   O21       1.0  0.62648  0.26804  0.82674  1.0000
  O   O22       1.0  0.12647  0.73195  0.67326  1.0000
  O   O23       1.0  0.37352  0.73196  0.17325  1.0000
  O   O24       1.0  0.87352  0.26804  0.32674  1.0000
  O   O25       1.0  0.88089  0.72056  0.06393  1.0000
  O   O26       1.0  0.38089  0.27944  0.43607  1.0000
  O   O27       1.0  0.11912  0.27944  0.93606  1.0000
  O   O28       1.0  0.61911  0.72056  0.56394  1.0000
  O   O29       1.0  0.74773  0.89824  0.05777  1.0000
  O   O30       1.0  0.24773  0.10177  0.44223  1.0000
  O   O31       1.0  0.25227  0.10176  0.94223  1.0000
  O   O32       1.0  0.75227  0.89824  0.55777  1.0000
  O   O33       1.0  0.68726  0.03196  0.95856  1.0000
  O   O34       1.0  0.18726  0.96804  0.54144  1.0000
  O   O35       1.0  0.31274  0.96804  0.04144  1.0000
  O   O36       1.0  0.81274  0.03196  0.45856  1.0000
