data_image0
_chemical_formula_structural       Zn2H24C36N4Cl2O4
_chemical_formula_sum              "Zn2 H24 C36 N4 Cl2 O4"
_cell_length_a       9.70083
_cell_length_b       10.2869
_cell_length_c       10.2869
_cell_angle_alpha    66.9215
_cell_angle_beta     61.8701
_cell_angle_gamma    61.8701

_space_group_name_H-M_alt    "P 1"
_space_group_IT_number       1

loop_
  _space_group_symop_operation_xyz
  'x, y, z'

loop_
  _atom_site_type_symbol
  _atom_site_label
  _atom_site_symmetry_multiplicity
  _atom_site_fract_x
  _atom_site_fract_y
  _atom_site_fract_z
  _atom_site_occupancy
  Zn  Zn1       1.0  0.88818  0.61182  0.61182  1.0000
  Zn  Zn2       1.0  0.11182  0.38819  0.38818  1.0000
  H   H1        1.0  0.67641  0.04291  0.60427  1.0000
  H   H2        1.0  0.67641  0.60427  0.04291  1.0000
  H   H3        1.0  0.32359  0.39572  0.95709  1.0000
  H   H4        1.0  0.32359  0.95709  0.39573  1.0000
  H   H5        1.0  0.58832  0.31808  0.50528  1.0000
  H   H6        1.0  0.58832  0.50528  0.31808  1.0000
  H   H7        1.0  0.41168  0.49472  0.68192  1.0000
  H   H8        1.0  0.41168  0.68192  0.49472  1.0000
  H   H9        1.0  0.08658  0.43095  0.82210  1.0000
  H   H10       1.0  0.66034  0.82209  0.43095  1.0000
  H   H11       1.0  0.91342  0.17790  0.56905  1.0000
  H   H12       1.0  0.33966  0.56905  0.17791  1.0000
  H   H13       1.0  0.91342  0.56905  0.17790  1.0000
  H   H14       1.0  0.33966  0.17791  0.56905  1.0000
  H   H15       1.0  0.08658  0.82210  0.43095  1.0000
  H   H16       1.0  0.66034  0.43095  0.82209  1.0000
  H   H17       1.0  0.08041  0.23073  0.05548  1.0000
  H   H18       1.0  0.63338  0.05548  0.23073  1.0000
  H   H19       1.0  0.91958  0.94452  0.76927  1.0000
  H   H20       1.0  0.36662  0.76927  0.94452  1.0000
  H   H21       1.0  0.91958  0.76927  0.94452  1.0000
  H   H22       1.0  0.36662  0.94452  0.76927  1.0000
  H   H23       1.0  0.08042  0.05548  0.23073  1.0000
  H   H24       1.0  0.63338  0.23073  0.05548  1.0000
  C   C1        1.0  0.70557  0.79446  0.79446  1.0000
  C   C2        1.0  0.29443  0.20554  0.20554  1.0000
  C   C3        1.0  0.59966  0.90033  0.90033  1.0000
  C   C4        1.0  0.40034  0.09967  0.09967  1.0000
  C   C5        1.0  0.55097  0.05722  0.84086  1.0000
  C   C6        1.0  0.55097  0.84086  0.05722  1.0000
  C   C7        1.0  0.44903  0.15914  0.94278  1.0000
  C   C8        1.0  0.44903  0.94278  0.15914  1.0000
  C   C9        1.0  0.59937  0.11939  0.68194  1.0000
  C   C10       1.0  0.59937  0.68194  0.11939  1.0000
  C   C11       1.0  0.40063  0.31806  0.88061  1.0000
  C   C12       1.0  0.40063  0.88061  0.31806  1.0000
  C   C13       1.0  0.55023  0.27279  0.62676  1.0000
  C   C14       1.0  0.55023  0.62676  0.27279  1.0000
  C   C15       1.0  0.44977  0.37324  0.72721  1.0000
  C   C16       1.0  0.44977  0.72721  0.37324  1.0000
  C   C17       1.0  0.98859  0.38264  0.87795  1.0000
  C   C18       1.0  0.75080  0.87792  0.38262  1.0000
  C   C19       1.0  0.01141  0.12205  0.61736  1.0000
  C   C20       1.0  0.24921  0.61738  0.12207  1.0000
  C   C21       1.0  0.01141  0.61736  0.12206  1.0000
  C   C22       1.0  0.24920  0.12207  0.61738  1.0000
  C   C23       1.0  0.98859  0.87795  0.38264  1.0000
  C   C24       1.0  0.75079  0.38262  0.87792  1.0000
  C   C25       1.0  0.98517  0.26855  0.00789  1.0000
  C   C26       1.0  0.73840  0.00786  0.26855  1.0000
  C   C27       1.0  0.01483  0.99211  0.73145  1.0000
  C   C28       1.0  0.26160  0.73145  0.99214  1.0000
  C   C29       1.0  0.01483  0.73145  0.99211  1.0000
  C   C30       1.0  0.26160  0.99214  0.73145  1.0000
  C   C31       1.0  0.98517  0.00789  0.26855  1.0000
  C   C32       1.0  0.73840  0.26855  0.00786  1.0000
  C   C33       1.0  0.85970  0.20567  0.07491  1.0000
  C   C34       1.0  0.85970  0.07492  0.20568  1.0000
  C   C35       1.0  0.14030  0.92508  0.79432  1.0000
  C   C36       1.0  0.14029  0.79433  0.92509  1.0000
  N   N1        1.0  0.87519  0.43772  0.81185  1.0000
  N   N2        1.0  0.87519  0.81185  0.43772  1.0000
  N   N3        1.0  0.12481  0.18815  0.56228  1.0000
  N   N4        1.0  0.12481  0.56228  0.18815  1.0000
  Cl  Cl1       1.0  0.81055  0.50000  0.50000  1.0000
  Cl  Cl2       1.0  0.18945  0.50000  0.50000  1.0000
  O   O1        1.0  0.63273  0.75176  0.75176  1.0000
  O   O2        1.0  0.86381  0.75174  0.75174  1.0000
  O   O3        1.0  0.36727  0.24824  0.24824  1.0000
  O   O4        1.0  0.13620  0.24826  0.24826  1.0000
