data_image0
_chemical_formula_structural       Cu2H52C48N8O10
_chemical_formula_sum              "Cu2 H52 C48 N8 O10"
_cell_length_a       8.9763
_cell_length_b       10.3327
_cell_length_c       13.6712
_cell_angle_alpha    106.328
_cell_angle_beta     102.495
_cell_angle_gamma    98.0129

_space_group_name_H-M_alt    "P 1"
_space_group_IT_number       1

loop_
  _space_group_symop_operation_xyz
  'x, y, z'

loop_
  _atom_site_type_symbol
  _atom_site_label
  _atom_site_symmetry_multiplicity
  _atom_site_fract_x
  _atom_site_fract_y
  _atom_site_fract_z
  _atom_site_occupancy
  Cu  Cu1       1.0  0.52768  0.60392  0.75612  1.0000
  Cu  Cu2       1.0  0.47230  0.39609  0.24389  1.0000
  H   H1        1.0  0.68439  0.63697  0.99521  1.0000
  H   H2        1.0  0.31553  0.36304  0.00474  1.0000
  H   H3        1.0  0.66276  0.50069  0.89971  1.0000
  H   H4        1.0  0.33726  0.49932  0.10026  1.0000
  H   H5        1.0  0.83001  0.78453  0.84414  1.0000
  H   H6        1.0  0.16997  0.21550  0.15586  1.0000
  H   H7        1.0  0.07481  0.71413  0.60138  1.0000
  H   H8        1.0  0.92516  0.28586  0.39862  1.0000
  H   H9        1.0  0.83912  0.52518  0.48555  1.0000
  H   H10       1.0  0.16084  0.47481  0.51446  1.0000
  H   H11       1.0  0.61498  0.47772  0.55732  1.0000
  H   H12       1.0  0.38499  0.52229  0.44269  1.0000
  H   H13       1.0  0.11019  0.89570  0.88640  1.0000
  H   H14       1.0  0.88981  0.10428  0.11361  1.0000
  H   H15       1.0  0.21155  0.87285  0.78685  1.0000
  H   H16       1.0  0.78845  0.12712  0.21316  1.0000
  H   H17       1.0  0.96145  0.95762  0.62589  1.0000
  H   H18       1.0  0.03858  0.04238  0.37412  1.0000
  H   H19       1.0  0.16909  0.99207  0.66162  1.0000
  H   H20       1.0  0.83094  0.00793  0.33840  1.0000
  H   H21       1.0  0.18940  0.23712  0.73410  1.0000
  H   H22       1.0  0.81063  0.76289  0.26593  1.0000
  H   H23       1.0  0.06122  0.17695  0.60335  1.0000
  H   H24       1.0  0.93882  0.82305  0.39666  1.0000
  H   H25       1.0  0.84057  0.24700  0.84429  1.0000
  H   H26       1.0  0.15942  0.75298  0.15570  1.0000
  H   H27       1.0  0.04945  0.28327  0.88879  1.0000
  H   H28       1.0  0.95054  0.71671  0.11122  1.0000
  H   H29       1.0  0.95128  0.06236  0.90588  1.0000
  H   H30       1.0  0.04871  0.93761  0.09411  1.0000
  H   H31       1.0  0.82868  0.99998  0.77359  1.0000
  H   H32       1.0  0.17133  0.00000  0.22640  1.0000
  H   H33       1.0  0.82864  0.38788  0.73545  1.0000
  H   H34       1.0  0.17134  0.61209  0.26454  1.0000
  H   H35       1.0  0.92150  0.35693  0.63130  1.0000
  H   H36       1.0  0.07850  0.64306  0.36870  1.0000
  H   H37       1.0  0.21728  0.43240  0.67379  1.0000
  H   H38       1.0  0.78270  0.56760  0.32622  1.0000
  H   H39       1.0  0.97128  0.55315  0.91222  1.0000
  H   H40       1.0  0.02869  0.44684  0.08779  1.0000
  H   H41       1.0  0.21854  0.72627  0.02452  1.0000
  H   H42       1.0  0.78144  0.27374  0.97549  1.0000
  H   H43       1.0  0.45054  0.74407  0.95324  1.0000
  H   H44       1.0  0.54942  0.25593  0.04675  1.0000
  H   H45       1.0  0.54472  0.07188  0.79056  1.0000
  H   H46       1.0  0.45531  0.92816  0.20943  1.0000
  H   H47       1.0  0.29359  0.78276  0.48534  1.0000
  H   H48       1.0  0.70645  0.21724  0.51466  1.0000
  H   H49       1.0  0.25048  0.97471  0.41531  1.0000
  H   H50       1.0  0.74958  0.02527  0.58466  1.0000
  H   H51       1.0  0.35564  0.22027  0.53615  1.0000
  H   H52       1.0  0.64440  0.77971  0.46381  1.0000
  C   C1        1.0  0.83816  0.73189  0.76494  1.0000
  C   C2        1.0  0.16182  0.26812  0.23506  1.0000
  C   C3        1.0  0.97014  0.76707  0.73184  1.0000
  C   C4        1.0  0.02985  0.23293  0.26816  1.0000
  C   C5        1.0  0.97192  0.69218  0.62936  1.0000
  C   C6        1.0  0.02806  0.30781  0.37064  1.0000
  C   C7        1.0  0.84353  0.58792  0.56523  1.0000
  C   C8        1.0  0.15643  0.41208  0.43478  1.0000
  C   C9        1.0  0.71611  0.55986  0.60453  1.0000
  C   C10       1.0  0.28386  0.44015  0.39548  1.0000
  C   C11       1.0  0.09953  0.88839  0.80324  1.0000
  C   C12       1.0  0.90047  0.11159  0.19677  1.0000
  C   C13       1.0  0.06834  0.02666  0.68510  1.0000
  C   C14       1.0  0.93169  0.97334  0.31491  1.0000
  C   C15       1.0  0.07306  0.17383  0.68453  1.0000
  C   C16       1.0  0.92697  0.82617  0.31548  1.0000
  C   C17       1.0  0.94578  0.21479  0.82587  1.0000
  C   C18       1.0  0.05421  0.78519  0.17413  1.0000
  C   C19       1.0  0.94248  0.06667  0.82525  1.0000
  C   C20       1.0  0.05751  0.93332  0.17474  1.0000
  C   C21       1.0  0.93499  0.36275  0.71441  1.0000
  C   C22       1.0  0.06501  0.63724  0.28559  1.0000
  C   C23       1.0  0.21077  0.49422  0.75114  1.0000
  C   C24       1.0  0.78921  0.50578  0.24886  1.0000
  C   C25       1.0  0.07451  0.47616  0.78389  1.0000
  C   C26       1.0  0.92547  0.52385  0.21611  1.0000
  C   C27       1.0  0.07621  0.56134  0.88407  1.0000
  C   C28       1.0  0.92377  0.43866  0.11593  1.0000
  C   C29       1.0  0.21146  0.65908  0.94593  1.0000
  C   C30       1.0  0.78853  0.34092  0.05407  1.0000
  C   C31       1.0  0.34246  0.66924  0.90758  1.0000
  C   C32       1.0  0.65751  0.33076  0.09242  1.0000
  C   C33       1.0  0.45644  0.16088  0.67012  1.0000
  C   C34       1.0  0.54359  0.83913  0.32986  1.0000
  C   C35       1.0  0.48034  0.05094  0.70855  1.0000
  C   C36       1.0  0.51969  0.94908  0.29143  1.0000
  C   C37       1.0  0.41952  0.91446  0.64185  1.0000
  C   C38       1.0  0.58052  0.08555  0.35815  1.0000
  C   C39       1.0  0.33664  0.88942  0.53647  1.0000
  C   C40       1.0  0.66341  0.11058  0.46353  1.0000
  C   C41       1.0  0.31293  0.99809  0.49796  1.0000
  C   C42       1.0  0.68713  0.00191  0.50202  1.0000
  C   C43       1.0  0.37222  0.13342  0.56460  1.0000
  C   C44       1.0  0.62782  0.86658  0.43538  1.0000
  C   C45       1.0  0.51833  0.30852  0.74020  1.0000
  C   C46       1.0  0.48168  0.69149  0.25978  1.0000
  C   C47       1.0  0.43867  0.79080  0.67678  1.0000
  C   C48       1.0  0.56134  0.20924  0.32325  1.0000
  N   N1        1.0  0.71479  0.63088  0.70312  1.0000
  N   N2        1.0  0.28518  0.36914  0.29689  1.0000
  N   N3        1.0  0.07557  0.02116  0.79148  1.0000
  N   N4        1.0  0.92446  0.97885  0.20854  1.0000
  N   N5        1.0  0.94548  0.22540  0.72162  1.0000
  N   N6        1.0  0.05453  0.77458  0.27838  1.0000
  N   N7        1.0  0.34173  0.58734  0.81165  1.0000
  N   N8        1.0  0.65826  0.41266  0.18835  1.0000
  O   O1        1.0  0.37108  0.67239  0.61252  1.0000
  O   O2        1.0  0.62888  0.32764  0.38753  1.0000
  O   O3        1.0  0.52520  0.80989  0.77073  1.0000
  O   O4        1.0  0.47480  0.19015  0.22930  1.0000
  O   O5        1.0  0.49360  0.39908  0.69358  1.0000
  O   O6        1.0  0.50636  0.60093  0.30641  1.0000
  O   O7        1.0  0.58829  0.33488  0.83655  1.0000
  O   O8        1.0  0.41175  0.66514  0.16341  1.0000
  O   O9        1.0  0.70855  0.60336  0.92772  1.0000
  O   O10       1.0  0.29144  0.39665  0.07224  1.0000
