data_image0
_chemical_formula_structural       Cu6H24C18N24O18
_chemical_formula_sum              "Cu6 H24 C18 N24 O18"
_cell_length_a       8.16099
_cell_length_b       12.9258
_cell_length_c       12.9265
_cell_angle_alpha    115.651
_cell_angle_beta     102.215
_cell_angle_gamma    102.135

_space_group_name_H-M_alt    "P 1"
_space_group_IT_number       1

loop_
  _space_group_symop_operation_xyz
  'x, y, z'

loop_
  _atom_site_type_symbol
  _atom_site_label
  _atom_site_symmetry_multiplicity
  _atom_site_fract_x
  _atom_site_fract_y
  _atom_site_fract_z
  _atom_site_occupancy
  Cu  Cu1       1.0  0.24885  0.53257  0.58526  1.0000
  Cu  Cu2       1.0  0.71603  0.05295  0.46736  1.0000
  Cu  Cu3       1.0  0.66294  0.41421  0.94686  1.0000
  Cu  Cu4       1.0  0.75115  0.46742  0.41473  1.0000
  Cu  Cu5       1.0  0.28397  0.94705  0.53265  1.0000
  Cu  Cu6       1.0  0.33706  0.58581  0.05314  1.0000
  H   H1        1.0  0.34074  0.35274  0.36996  1.0000
  H   H2        1.0  0.98891  0.01774  0.64769  1.0000
  H   H3        1.0  0.97052  0.63004  0.98262  1.0000
  H   H4        1.0  0.65927  0.64726  0.63005  1.0000
  H   H5        1.0  0.01109  0.98226  0.35232  1.0000
  H   H6        1.0  0.02948  0.36997  0.01737  1.0000
  H   H7        1.0  0.14827  0.36660  0.32538  1.0000
  H   H8        1.0  0.78273  0.96011  0.63433  1.0000
  H   H9        1.0  0.82205  0.67421  0.04023  1.0000
  H   H10       1.0  0.85174  0.63340  0.67461  1.0000
  H   H11       1.0  0.21727  0.03987  0.36567  1.0000
  H   H12       1.0  0.17796  0.32580  0.95976  1.0000
  H   H13       1.0  0.71396  0.69938  0.42423  1.0000
  H   H14       1.0  0.01533  0.72447  0.30127  1.0000
  H   H15       1.0  0.29306  0.57767  0.27622  1.0000
  H   H16       1.0  0.28604  0.30061  0.57576  1.0000
  H   H17       1.0  0.98468  0.27552  0.69873  1.0000
  H   H18       1.0  0.70693  0.42232  0.72377  1.0000
  H   H19       1.0  0.85243  0.84392  0.48543  1.0000
  H   H20       1.0  0.00846  0.64143  0.15643  1.0000
  H   H21       1.0  0.36862  0.51514  0.35865  1.0000
  H   H22       1.0  0.14757  0.15607  0.51458  1.0000
  H   H23       1.0  0.99154  0.35857  0.84356  1.0000
  H   H24       1.0  0.63137  0.48487  0.64134  1.0000
  C   C1        1.0  0.97447  0.72111  0.47662  1.0000
  C   C2        1.0  0.25354  0.75530  0.27916  1.0000
  C   C3        1.0  0.49957  0.52391  0.24468  1.0000
  C   C4        1.0  0.02553  0.27888  0.52338  1.0000
  C   C5        1.0  0.74646  0.24470  0.72085  1.0000
  C   C6        1.0  0.50043  0.47609  0.75532  1.0000
  C   C7        1.0  0.24062  0.72689  0.54741  1.0000
  C   C8        1.0  0.51356  0.82059  0.27322  1.0000
  C   C9        1.0  0.69365  0.45211  0.17937  1.0000
  C   C10       1.0  0.75937  0.27311  0.45259  1.0000
  C   C11       1.0  0.48645  0.17942  0.72678  1.0000
  C   C12       1.0  0.30636  0.54789  0.82063  1.0000
  C   C13       1.0  0.43507  0.75848  0.60391  1.0000
  C   C14       1.0  0.67615  0.84562  0.24146  1.0000
  C   C15       1.0  0.83137  0.39551  0.15425  1.0000
  C   C16       1.0  0.56492  0.24150  0.39608  1.0000
  C   C17       1.0  0.32386  0.15440  0.75856  1.0000
  C   C18       1.0  0.16861  0.60448  0.84575  1.0000
  N   N1        1.0  0.96257  0.61350  0.47325  1.0000
  N   N2        1.0  0.34940  0.85939  0.38685  1.0000
  N   N3        1.0  0.49074  0.52740  0.14049  1.0000
  N   N4        1.0  0.03741  0.38649  0.52674  1.0000
  N   N5        1.0  0.65060  0.14060  0.61316  1.0000
  N   N6        1.0  0.50927  0.47262  0.85951  1.0000
  N   N7        1.0  0.83546  0.75186  0.43535  1.0000
  N   N8        1.0  0.08395  0.68317  0.24847  1.0000
  N   N9        1.0  0.40283  0.56565  0.31720  1.0000
  N   N10       1.0  0.16454  0.24813  0.56465  1.0000
  N   N11       1.0  0.91606  0.31683  0.75153  1.0000
  N   N12       1.0  0.59717  0.43435  0.68279  1.0000
  N   N13       1.0  0.13152  0.61929  0.51881  1.0000
  N   N14       1.0  0.51248  0.89928  0.38105  1.0000
  N   N15       1.0  0.61326  0.48102  0.10047  1.0000
  N   N16       1.0  0.86846  0.38070  0.48118  1.0000
  N   N17       1.0  0.48752  0.10072  0.61896  1.0000
  N   N18       1.0  0.38674  0.51898  0.89953  1.0000
  N   N19       1.0  0.14861  0.79374  0.52119  1.0000
  N   N20       1.0  0.35472  0.72753  0.20634  1.0000
  N   N21       1.0  0.62843  0.47855  0.27242  1.0000
  N   N22       1.0  0.85139  0.20626  0.47881  1.0000
  N   N23       1.0  0.64528  0.27247  0.79366  1.0000
  N   N24       1.0  0.37157  0.52144  0.72757  1.0000
  O   O1        1.0  0.47028  0.67568  0.62814  1.0000
  O   O2        1.0  0.79389  0.95278  0.32406  1.0000
  O   O3        1.0  0.84181  0.37123  0.04714  1.0000
  O   O4        1.0  0.52972  0.32432  0.37185  1.0000
  O   O5        1.0  0.20611  0.04723  0.67595  1.0000
  O   O6        1.0  0.15818  0.62878  0.95286  1.0000
  O   O7        1.0  0.54625  0.85294  0.62370  1.0000
  O   O8        1.0  0.69272  0.77094  0.14701  1.0000
  O   O9        1.0  0.92313  0.37589  0.22899  1.0000
  O   O10       1.0  0.45378  0.14706  0.37630  1.0000
  O   O11       1.0  0.30729  0.22908  0.85299  1.0000
  O   O12       1.0  0.07685  0.62411  0.77099  1.0000
  O   O13       1.0  0.26470  0.40483  0.39075  1.0000
  O   O14       1.0  0.86060  0.98704  0.59591  1.0000
  O   O15       1.0  0.87323  0.60896  0.01345  1.0000
  O   O16       1.0  0.73531  0.59517  0.60925  1.0000
  O   O17       1.0  0.13940  0.01295  0.40409  1.0000
  O   O18       1.0  0.12678  0.39104  0.98655  1.0000
