data_image0
_chemical_formula_structural       K2Zn2H14C12O16
_chemical_formula_sum              "K2 Zn2 H14 C12 O16"
_cell_length_a       7.33562
_cell_length_b       7.49133
_cell_length_c       9.735
_cell_angle_alpha    77.4684
_cell_angle_beta     68.6957
_cell_angle_gamma    65.0648

_space_group_name_H-M_alt    "P 1"
_space_group_IT_number       1

loop_
  _space_group_symop_operation_xyz
  'x, y, z'

loop_
  _atom_site_type_symbol
  _atom_site_label
  _atom_site_symmetry_multiplicity
  _atom_site_fract_x
  _atom_site_fract_y
  _atom_site_fract_z
  _atom_site_occupancy
  K   K1        1.0  0.76410  0.25602  0.96458  1.0000
  K   K2        1.0  0.23590  0.74399  0.03542  1.0000
  Zn  Zn1       1.0  0.60227  0.86673  0.26643  1.0000
  Zn  Zn2       1.0  0.39773  0.13327  0.73357  1.0000
  H   H1        1.0  0.61856  0.50388  0.40190  1.0000
  H   H2        1.0  0.38143  0.49612  0.59811  1.0000
  H   H3        1.0  0.45956  0.55085  0.30905  1.0000
  H   H4        1.0  0.54044  0.44915  0.69095  1.0000
  H   H5        1.0  0.17091  0.94784  0.30474  1.0000
  H   H6        1.0  0.82909  0.05216  0.69526  1.0000
  H   H7        1.0  0.93654  0.42432  0.45351  1.0000
  H   H8        1.0  0.06346  0.57568  0.54649  1.0000
  H   H9        1.0  0.89582  0.20513  0.46179  1.0000
  H   H10       1.0  0.10417  0.79487  0.53821  1.0000
  H   H11       1.0  0.95139  0.24494  0.20081  1.0000
  H   H12       1.0  0.04861  0.75506  0.79919  1.0000
  H   H13       1.0  0.99315  0.46596  0.18803  1.0000
  H   H14       1.0  0.00685  0.53404  0.81197  1.0000
  C   C1        1.0  0.09835  0.18744  0.58214  1.0000
  C   C2        1.0  0.90165  0.81256  0.41786  1.0000
  C   C3        1.0  0.01607  0.26305  0.44976  1.0000
  C   C4        1.0  0.98393  0.73695  0.55024  1.0000
  C   C5        1.0  0.18481  0.21437  0.29828  1.0000
  C   C6        1.0  0.81519  0.78563  0.70172  1.0000
  C   C7        1.0  0.36054  0.29198  0.27303  1.0000
  C   C8        1.0  0.63946  0.70802  0.72697  1.0000
  C   C9        1.0  0.07272  0.30585  0.17813  1.0000
  C   C10       1.0  0.92728  0.69415  0.82187  1.0000
  C   C11       1.0  0.22397  0.27063  0.02173  1.0000
  C   C12       1.0  0.77603  0.72938  0.97827  1.0000
  O   O1        1.0  0.00587  0.09980  0.69422  1.0000
  O   O2        1.0  0.99413  0.90020  0.30578  1.0000
  O   O3        1.0  0.52531  0.61084  0.35296  1.0000
  O   O4        1.0  0.47469  0.38916  0.64704  1.0000
  O   O5        1.0  0.25695  0.22367  0.57475  1.0000
  O   O6        1.0  0.74305  0.77633  0.42525  1.0000
  O   O7        1.0  0.28428  0.00464  0.29044  1.0000
  O   O8        1.0  0.71573  0.99536  0.70956  1.0000
  O   O9        1.0  0.30479  0.47591  0.27383  1.0000
  O   O10       1.0  0.69521  0.52409  0.72617  1.0000
  O   O11       1.0  0.55011  0.16721  0.25026  1.0000
  O   O12       1.0  0.44989  0.83279  0.74975  1.0000
  O   O13       1.0  0.36973  0.33444  0.97682  1.0000
  O   O14       1.0  0.63027  0.66556  0.02318  1.0000
  O   O15       1.0  0.18992  0.17686  0.94152  1.0000
  O   O16       1.0  0.81008  0.82314  0.05848  1.0000
