data_image0
_chemical_formula_structural       CuH24C24N4O4
_chemical_formula_sum              "Cu1 H24 C24 N4 O4"
_cell_length_a       5.70483
_cell_length_b       8.98446
_cell_length_c       11.0201
_cell_angle_alpha    91.972
_cell_angle_beta     106.433
_cell_angle_gamma    105.563

_space_group_name_H-M_alt    "P 1"
_space_group_IT_number       1

loop_
  _space_group_symop_operation_xyz
  'x, y, z'

loop_
  _atom_site_type_symbol
  _atom_site_label
  _atom_site_symmetry_multiplicity
  _atom_site_fract_x
  _atom_site_fract_y
  _atom_site_fract_z
  _atom_site_occupancy
  Cu  Cu1       1.0  0.50002  0.50000  0.50001  1.0000
  H   H1        1.0  0.05402  0.40374  0.59943  1.0000
  H   H2        1.0  0.94598  0.59626  0.40057  1.0000
  H   H3        1.0  0.63962  0.20209  0.54316  1.0000
  H   H4        1.0  0.36039  0.79793  0.45683  1.0000
  H   H5        1.0  0.52664  0.99408  0.35570  1.0000
  H   H6        1.0  0.47337  0.00593  0.64428  1.0000
  H   H7        1.0  0.26413  0.21144  0.31281  1.0000
  H   H8        1.0  0.73589  0.78856  0.68720  1.0000
  H   H9        1.0  0.87718  0.85375  0.26082  1.0000
  H   H10       1.0  0.12289  0.14628  0.73919  1.0000
  H   H11       1.0  0.62642  0.91978  0.16784  1.0000
  H   H12       1.0  0.37361  0.08022  0.83217  1.0000
  H   H13       1.0  0.95530  0.22161  0.11429  1.0000
  H   H14       1.0  0.04477  0.77841  0.88571  1.0000
  H   H15       1.0  0.70317  0.07804  0.00104  1.0000
  H   H16       1.0  0.29685  0.92198  0.99897  1.0000
  H   H17       1.0  0.73540  0.80364  0.99210  1.0000
  H   H18       1.0  0.26460  0.19638  0.00788  1.0000
  H   H19       1.0  0.00224  0.76672  0.10406  1.0000
  H   H20       1.0  0.99774  0.23328  0.89591  1.0000
  H   H21       1.0  0.23127  0.58837  0.81328  1.0000
  H   H22       1.0  0.76864  0.41158  0.18670  1.0000
  H   H23       1.0  0.82436  0.37812  0.97045  1.0000
  H   H24       1.0  0.17554  0.62184  0.02954  1.0000
  C   C1        1.0  0.00314  0.31202  0.52143  1.0000
  C   C2        1.0  0.99688  0.68798  0.47859  1.0000
  C   C3        1.0  0.76989  0.19686  0.48853  1.0000
  C   C4        1.0  0.23013  0.80314  0.51148  1.0000
  C   C5        1.0  0.71146  0.08305  0.38710  1.0000
  C   C6        1.0  0.28855  0.91696  0.61290  1.0000
  C   C7        1.0  0.89127  0.08376  0.32294  1.0000
  C   C8        1.0  0.10876  0.91625  0.67707  1.0000
  C   C9        1.0  0.12058  0.20359  0.36160  1.0000
  C   C10       1.0  0.87943  0.79641  0.63841  1.0000
  C   C11       1.0  0.83552  0.95620  0.21742  1.0000
  C   C12       1.0  0.16452  0.04381  0.78257  1.0000
  C   C13       1.0  0.91185  0.11375  0.05140  1.0000
  C   C14       1.0  0.08818  0.88626  0.94859  1.0000
  C   C15       1.0  0.94115  0.85346  0.04467  1.0000
  C   C16       1.0  0.05885  0.14655  0.95532  1.0000
  C   C17       1.0  0.57274  0.45981  0.75203  1.0000
  C   C18       1.0  0.42721  0.54018  0.24798  1.0000
  C   C19       1.0  0.53272  0.48100  0.87961  1.0000
  C   C20       1.0  0.46723  0.51898  0.12039  1.0000
  C   C21       1.0  0.34848  0.55008  0.89535  1.0000
  C   C22       1.0  0.65147  0.44990  0.10465  1.0000
  C   C23       1.0  0.68271  0.43112  0.98496  1.0000
  C   C24       1.0  0.31724  0.56886  0.01504  1.0000
  N   N1        1.0  0.17452  0.31644  0.45790  1.0000
  N   N2        1.0  0.82551  0.68356  0.54212  1.0000
  N   N3        1.0  0.98325  0.99443  0.12861  1.0000
  N   N4        1.0  0.01676  0.00558  0.87138  1.0000
  O   O1        1.0  0.46956  0.54126  0.66854  1.0000
  O   O2        1.0  0.53045  0.45875  0.33146  1.0000
  O   O3        1.0  0.69537  0.37062  0.73110  1.0000
  O   O4        1.0  0.30457  0.62936  0.26891  1.0000
