data_image0
_chemical_formula_structural       Ca2H28C48N8O16
_chemical_formula_sum              "Ca2 H28 C48 N8 O16"
_cell_length_a       9.40204
_cell_length_b       9.4039
_cell_length_c       13.1787
_cell_angle_alpha    98.2929
_cell_angle_beta     110.492
_cell_angle_gamma    107.912

_space_group_name_H-M_alt    "P 1"
_space_group_IT_number       1

loop_
  _space_group_symop_operation_xyz
  'x, y, z'

loop_
  _atom_site_type_symbol
  _atom_site_label
  _atom_site_symmetry_multiplicity
  _atom_site_fract_x
  _atom_site_fract_y
  _atom_site_fract_z
  _atom_site_occupancy
  Ca  Ca1       1.0  0.43897  0.18895  0.24997  1.0000
  Ca  Ca2       1.0  0.56103  0.81105  0.75003  1.0000
  H   H1        1.0  0.11311  0.27032  0.25263  1.0000
  H   H2        1.0  0.51787  0.86045  0.24745  1.0000
  H   H3        1.0  0.88689  0.72968  0.74737  1.0000
  H   H4        1.0  0.48213  0.13955  0.75255  1.0000
  H   H5        1.0  0.68450  0.85310  0.15933  1.0000
  H   H6        1.0  0.19380  0.52523  0.34066  1.0000
  H   H7        1.0  0.31550  0.14690  0.84067  1.0000
  H   H8        1.0  0.80620  0.47477  0.65933  1.0000
  H   H9        1.0  0.80874  0.71079  0.06815  1.0000
  H   H10       1.0  0.14276  0.74066  0.43192  1.0000
  H   H11       1.0  0.19127  0.28921  0.93185  1.0000
  H   H12       1.0  0.85724  0.25934  0.56808  1.0000
  H   H13       1.0  0.90220  0.62525  0.96073  1.0000
  H   H14       1.0  0.16422  0.94157  0.53903  1.0000
  H   H15       1.0  0.09781  0.37475  0.03927  1.0000
  H   H16       1.0  0.83578  0.05843  0.46097  1.0000
  H   H17       1.0  0.05868  0.51002  0.87931  1.0000
  H   H18       1.0  0.13087  0.17960  0.62060  1.0000
  H   H19       1.0  0.94132  0.48998  0.12069  1.0000
  H   H20       1.0  0.86914  0.82040  0.37940  1.0000
  H   H21       1.0  0.48061  0.94075  0.06117  1.0000
  H   H22       1.0  0.37982  0.41940  0.43873  1.0000
  H   H23       1.0  0.51939  0.05925  0.93883  1.0000
  H   H24       1.0  0.62018  0.58060  0.56126  1.0000
  H   H25       1.0  0.41447  0.47093  0.85218  1.0000
  H   H26       1.0  0.11899  0.56243  0.64788  1.0000
  H   H27       1.0  0.58553  0.52907  0.14782  1.0000
  H   H28       1.0  0.88101  0.43757  0.35212  1.0000
  C   C1        1.0  0.04290  0.14603  0.21302  1.0000
  C   C2        1.0  0.43317  0.82988  0.28705  1.0000
  C   C3        1.0  0.95710  0.85397  0.78698  1.0000
  C   C4        1.0  0.56683  0.17012  0.71295  1.0000
  C   C5        1.0  0.88770  0.07555  0.21243  1.0000
  C   C6        1.0  0.36314  0.67529  0.28757  1.0000
  C   C7        1.0  0.11230  0.92445  0.78757  1.0000
  C   C8        1.0  0.63686  0.32470  0.71243  1.0000
  C   C9        1.0  0.80406  0.91529  0.16044  1.0000
  C   C10       1.0  0.25488  0.64365  0.33956  1.0000
  C   C11       1.0  0.19594  0.08471  0.83956  1.0000
  C   C12       1.0  0.74512  0.35635  0.66044  1.0000
  C   C13       1.0  0.87477  0.83516  0.10919  1.0000
  C   C14       1.0  0.22605  0.76561  0.39084  1.0000
  C   C15       1.0  0.12523  0.16484  0.89081  1.0000
  C   C16       1.0  0.77395  0.23439  0.60916  1.0000
  C   C17       1.0  0.03017  0.91591  0.11332  1.0000
  C   C18       1.0  0.30270  0.91685  0.38669  1.0000
  C   C19       1.0  0.96983  0.08409  0.88668  1.0000
  C   C20       1.0  0.69730  0.08315  0.61331  1.0000
  C   C21       1.0  0.11307  0.84099  0.05924  1.0000
  C   C22       1.0  0.28163  0.05379  0.44058  1.0000
  C   C23       1.0  0.88693  0.15901  0.94076  1.0000
  C   C24       1.0  0.71837  0.94621  0.55942  1.0000
  C   C25       1.0  0.03213  0.69031  0.98428  1.0000
  C   C26       1.0  0.20581  0.04789  0.51546  1.0000
  C   C27       1.0  0.96787  0.30968  0.01572  1.0000
  C   C28       1.0  0.79419  0.95211  0.48454  1.0000
  C   C29       1.0  0.11850  0.62643  0.93807  1.0000
  C   C30       1.0  0.18843  0.18059  0.56180  1.0000
  C   C31       1.0  0.88150  0.37357  0.06193  1.0000
  C   C32       1.0  0.81157  0.81941  0.43820  1.0000
  C   C33       1.0  0.28287  0.71599  0.96484  1.0000
  C   C34       1.0  0.25138  0.31816  0.53509  1.0000
  C   C35       1.0  0.71714  0.28401  0.03516  1.0000
  C   C36       1.0  0.74862  0.68184  0.46491  1.0000
  C   C37       1.0  0.35263  0.86696  0.03735  1.0000
  C   C38       1.0  0.32980  0.31527  0.46255  1.0000
  C   C39       1.0  0.64737  0.13305  0.96265  1.0000
  C   C40       1.0  0.67020  0.68473  0.53745  1.0000
  C   C41       1.0  0.81842  0.17540  0.26428  1.0000
  C   C42       1.0  0.41096  0.55409  0.23563  1.0000
  C   C43       1.0  0.18158  0.82459  0.73572  1.0000
  C   C44       1.0  0.58904  0.44591  0.76437  1.0000
  C   C45       1.0  0.38291  0.65812  0.91668  1.0000
  C   C46       1.0  0.24172  0.46640  0.58324  1.0000
  C   C47       1.0  0.61709  0.34188  0.08332  1.0000
  C   C48       1.0  0.75828  0.53360  0.41676  1.0000
  N   N1        1.0  0.11464  0.06973  0.16776  1.0000
  N   N2        1.0  0.40215  0.94688  0.33231  1.0000
  N   N3        1.0  0.88536  0.93027  0.83224  1.0000
  N   N4        1.0  0.59785  0.05312  0.66769  1.0000
  N   N5        1.0  0.27205  0.92753  0.08473  1.0000
  N   N6        1.0  0.34286  0.18726  0.41516  1.0000
  N   N7        1.0  0.72795  0.07247  0.91527  1.0000
  N   N8        1.0  0.65714  0.81274  0.58484  1.0000
  O   O1        1.0  0.91820  0.31785  0.31403  1.0000
  O   O2        1.0  0.50363  0.60412  0.18588  1.0000
  O   O3        1.0  0.08180  0.68215  0.68598  1.0000
  O   O4        1.0  0.49637  0.39588  0.81412  1.0000
  O   O5        1.0  0.67242  0.11577  0.25403  1.0000
  O   O6        1.0  0.36146  0.41834  0.24579  1.0000
  O   O7        1.0  0.32758  0.88423  0.74597  1.0000
  O   O8        1.0  0.63854  0.58166  0.75421  1.0000
  O   O9        1.0  0.33331  0.50670  0.88424  1.0000
  O   O10       1.0  0.12284  0.44928  0.61578  1.0000
  O   O11       1.0  0.66669  0.49330  0.11576  1.0000
  O   O12       1.0  0.87716  0.55072  0.38422  1.0000
  O   O13       1.0  0.50320  0.75090  0.90857  1.0000
  O   O14       1.0  0.34251  0.59477  0.59123  1.0000
  O   O15       1.0  0.49681  0.24910  0.09143  1.0000
  O   O16       1.0  0.65749  0.40523  0.40877  1.0000
