data_image0
_chemical_formula_structural       Gd4H64C36N4O28
_chemical_formula_sum              "Gd4 H64 C36 N4 O28"
_cell_length_a       8.2039
_cell_length_b       9.36927
_cell_length_c       16.9904
_cell_angle_alpha    90
_cell_angle_beta     89.9999
_cell_angle_gamma    93.8836

_space_group_name_H-M_alt    "P 1"
_space_group_IT_number       1

loop_
  _space_group_symop_operation_xyz
  'x, y, z'

loop_
  _atom_site_type_symbol
  _atom_site_label
  _atom_site_symmetry_multiplicity
  _atom_site_fract_x
  _atom_site_fract_y
  _atom_site_fract_z
  _atom_site_occupancy
  Gd  Gd1       1.0  0.70270  0.41082  0.24286  1.0000
  Gd  Gd2       1.0  0.79729  0.58918  0.74286  1.0000
  Gd  Gd3       1.0  0.29729  0.58918  0.75714  1.0000
  Gd  Gd4       1.0  0.20271  0.41082  0.25714  1.0000
  H   H1        1.0  0.11343  0.39700  0.03321  1.0000
  H   H2        1.0  0.38657  0.60300  0.53321  1.0000
  H   H3        1.0  0.88657  0.60300  0.96679  1.0000
  H   H4        1.0  0.61343  0.39700  0.46679  1.0000
  H   H5        1.0  0.93448  0.32621  0.98176  1.0000
  H   H6        1.0  0.56552  0.67378  0.48176  1.0000
  H   H7        1.0  0.06552  0.67378  0.01824  1.0000
  H   H8        1.0  0.43448  0.32622  0.51824  1.0000
  H   H9        1.0  0.04553  0.21646  0.04812  1.0000
  H   H10       1.0  0.45447  0.78354  0.54812  1.0000
  H   H11       1.0  0.95447  0.78354  0.95188  1.0000
  H   H12       1.0  0.54553  0.21646  0.45188  1.0000
  H   H13       1.0  0.40648  0.64848  0.01654  1.0000
  H   H14       1.0  0.09352  0.35152  0.51654  1.0000
  H   H15       1.0  0.59352  0.35152  0.98346  1.0000
  H   H16       1.0  0.90648  0.64848  0.48346  1.0000
  H   H17       1.0  0.59640  0.59621  0.05881  1.0000
  H   H18       1.0  0.90360  0.40379  0.55881  1.0000
  H   H19       1.0  0.40359  0.40379  0.94119  1.0000
  H   H20       1.0  0.09640  0.59621  0.44119  1.0000
  H   H21       1.0  0.51099  0.75447  0.09109  1.0000
  H   H22       1.0  0.98901  0.24553  0.59109  1.0000
  H   H23       1.0  0.48901  0.24553  0.90891  1.0000
  H   H24       1.0  0.01099  0.75447  0.40891  1.0000
  H   H25       1.0  0.32659  0.11289  0.04124  1.0000
  H   H26       1.0  0.17341  0.88711  0.54124  1.0000
  H   H27       1.0  0.67341  0.88711  0.95876  1.0000
  H   H28       1.0  0.82659  0.11289  0.45876  1.0000
  H   H29       1.0  0.42352  0.97970  0.09553  1.0000
  H   H30       1.0  0.07648  0.02030  0.59553  1.0000
  H   H31       1.0  0.57648  0.02030  0.90447  1.0000
  H   H32       1.0  0.92352  0.97970  0.40447  1.0000
  H   H33       1.0  0.54537  0.11627  0.04712  1.0000
  H   H34       1.0  0.95463  0.88373  0.54712  1.0000
  H   H35       1.0  0.45463  0.88373  0.95288  1.0000
  H   H36       1.0  0.04537  0.11627  0.45288  1.0000
  H   H37       1.0  0.00914  0.65936  0.17289  1.0000
  H   H38       1.0  0.49086  0.34064  0.67289  1.0000
  H   H39       1.0  0.99086  0.34064  0.82711  1.0000
  H   H40       1.0  0.50914  0.65936  0.32711  1.0000
  H   H41       1.0  0.16781  0.83504  0.13891  1.0000
  H   H42       1.0  0.33219  0.16496  0.63891  1.0000
  H   H43       1.0  0.83219  0.16496  0.86109  1.0000
  H   H44       1.0  0.66781  0.83504  0.36109  1.0000
  H   H45       1.0  0.12023  0.01258  0.16770  1.0000
  H   H46       1.0  0.37977  0.98742  0.66771  1.0000
  H   H47       1.0  0.87977  0.98742  0.83230  1.0000
  H   H48       1.0  0.62023  0.01258  0.33230  1.0000
  H   H49       1.0  0.06743  0.94698  0.07191  1.0000
  H   H50       1.0  0.43257  0.05302  0.57191  1.0000
  H   H51       1.0  0.93257  0.05302  0.92809  1.0000
  H   H52       1.0  0.56743  0.94698  0.42809  1.0000
  H   H53       1.0  0.68369  0.89820  0.19545  1.0000
  H   H54       1.0  0.81631  0.10180  0.69545  1.0000
  H   H55       1.0  0.31631  0.10180  0.80455  1.0000
  H   H56       1.0  0.18369  0.89820  0.30455  1.0000
  H   H57       1.0  0.76087  0.99472  0.11098  1.0000
  H   H58       1.0  0.73913  0.00528  0.61098  1.0000
  H   H59       1.0  0.23913  0.00528  0.88902  1.0000
  H   H60       1.0  0.26087  0.99472  0.38902  1.0000
  H   H61       1.0  0.83015  0.04797  0.20615  1.0000
  H   H62       1.0  0.66986  0.95203  0.70615  1.0000
  H   H63       1.0  0.16985  0.95203  0.79385  1.0000
  H   H64       1.0  0.33014  0.04797  0.29385  1.0000
  C   C1        1.0  0.90114  0.36682  0.10488  1.0000
  C   C2        1.0  0.59886  0.63318  0.60488  1.0000
  C   C3        1.0  0.09886  0.63318  0.89512  1.0000
  C   C4        1.0  0.40114  0.36682  0.39512  1.0000
  C   C5        1.0  0.00359  0.32342  0.03677  1.0000
  C   C6        1.0  0.49641  0.67658  0.53677  1.0000
  C   C7        1.0  0.99641  0.67658  0.96323  1.0000
  C   C8        1.0  0.50359  0.32342  0.46323  1.0000
  C   C9        1.0  0.38703  0.56474  0.13374  1.0000
  C   C10       1.0  0.11297  0.43526  0.63374  1.0000
  C   C11       1.0  0.61297  0.43526  0.86626  1.0000
  C   C12       1.0  0.88703  0.56474  0.36626  1.0000
  C   C13       1.0  0.48092  0.64478  0.07002  1.0000
  C   C14       1.0  0.01908  0.35522  0.57002  1.0000
  C   C15       1.0  0.51908  0.35522  0.92998  1.0000
  C   C16       1.0  0.98092  0.64478  0.42998  1.0000
  C   C17       1.0  0.43009  0.18366  0.15318  1.0000
  C   C18       1.0  0.06991  0.81634  0.65318  1.0000
  C   C19       1.0  0.56991  0.81634  0.84682  1.0000
  C   C20       1.0  0.93009  0.18366  0.34682  1.0000
  C   C21       1.0  0.43080  0.09344  0.07913  1.0000
  C   C22       1.0  0.06920  0.90657  0.57913  1.0000
  C   C23       1.0  0.56920  0.90656  0.92087  1.0000
  C   C24       1.0  0.93080  0.09344  0.42087  1.0000
  C   C25       1.0  0.89922  0.71881  0.18145  1.0000
  C   C26       1.0  0.60077  0.28119  0.68145  1.0000
  C   C27       1.0  0.10078  0.28119  0.81855  1.0000
  C   C28       1.0  0.39923  0.71882  0.31855  1.0000
  C   C29       1.0  0.07851  0.91658  0.13426  1.0000
  C   C30       1.0  0.42149  0.08342  0.63427  1.0000
  C   C31       1.0  0.92149  0.08342  0.86574  1.0000
  C   C32       1.0  0.57851  0.91658  0.36573  1.0000
  C   C33       1.0  0.79163  0.95509  0.16971  1.0000
  C   C34       1.0  0.70837  0.04491  0.66971  1.0000
  C   C35       1.0  0.20837  0.04491  0.83029  1.0000
  C   C36       1.0  0.29163  0.95509  0.33029  1.0000
  N   N1        1.0  0.92197  0.85797  0.16398  1.0000
  N   N2        1.0  0.57803  0.14203  0.66398  1.0000
  N   N3        1.0  0.07803  0.14203  0.83602  1.0000
  N   N4        1.0  0.42197  0.85797  0.33602  1.0000
  O   O1        1.0  0.95915  0.36043  0.17564  1.0000
  O   O2        1.0  0.54085  0.63957  0.67564  1.0000
  O   O3        1.0  0.04085  0.63957  0.82436  1.0000
  O   O4        1.0  0.45915  0.36043  0.32436  1.0000
  O   O5        1.0  0.75869  0.40726  0.09511  1.0000
  O   O6        1.0  0.74132  0.59274  0.59511  1.0000
  O   O7        1.0  0.24131  0.59274  0.90489  1.0000
  O   O8        1.0  0.25869  0.40726  0.40489  1.0000
  O   O9        1.0  0.46274  0.50189  0.18875  1.0000
  O   O10       1.0  0.03726  0.49812  0.68875  1.0000
  O   O11       1.0  0.53726  0.49811  0.81125  1.0000
  O   O12       1.0  0.96274  0.50188  0.31125  1.0000
  O   O13       1.0  0.23183  0.55972  0.13518  1.0000
  O   O14       1.0  0.26816  0.44028  0.63518  1.0000
  O   O15       1.0  0.76817  0.44028  0.86482  1.0000
  O   O16       1.0  0.73184  0.55972  0.36482  1.0000
  O   O17       1.0  0.56537  0.20591  0.18904  1.0000
  O   O18       1.0  0.93463  0.79409  0.68904  1.0000
  O   O19       1.0  0.43463  0.79409  0.81096  1.0000
  O   O20       1.0  0.06537  0.20591  0.31096  1.0000
  O   O21       1.0  0.29433  0.22849  0.17524  1.0000
  O   O22       1.0  0.20567  0.77151  0.67524  1.0000
  O   O23       1.0  0.70567  0.77151  0.82476  1.0000
  O   O24       1.0  0.79433  0.22849  0.32476  1.0000
  O   O25       1.0  0.76661  0.65977  0.20545  1.0000
  O   O26       1.0  0.73340  0.34023  0.70546  1.0000
  O   O27       1.0  0.23339  0.34023  0.79455  1.0000
  O   O28       1.0  0.26661  0.65977  0.29454  1.0000
