data_image0
_chemical_formula_structural       Cd2H40C68S4N20
_chemical_formula_sum              "Cd2 H40 C68 S4 N20"
_cell_length_a       8.54841
_cell_length_b       13.6202
_cell_length_c       13.6202
_cell_angle_alpha    107.956
_cell_angle_beta     90
_cell_angle_gamma    90

_space_group_name_H-M_alt    "P 1"
_space_group_IT_number       1

loop_
  _space_group_symop_operation_xyz
  'x, y, z'

loop_
  _atom_site_type_symbol
  _atom_site_label
  _atom_site_symmetry_multiplicity
  _atom_site_fract_x
  _atom_site_fract_y
  _atom_site_fract_z
  _atom_site_occupancy
  Cd  Cd1       1.0  1.00000  0.50000  0.50000  1.0000
  Cd  Cd2       1.0  0.50000  1.00000  1.00000  1.0000
  H   H1        1.0  0.39384  0.66522  0.05474  1.0000
  H   H2        1.0  0.10616  0.55474  0.16522  1.0000
  H   H3        1.0  0.89384  0.83478  0.44526  1.0000
  H   H4        1.0  0.60616  0.94526  0.33478  1.0000
  H   H5        1.0  0.60616  0.33478  0.94526  1.0000
  H   H6        1.0  0.89384  0.44526  0.83478  1.0000
  H   H7        1.0  0.10616  0.16522  0.55474  1.0000
  H   H8        1.0  0.39384  0.05474  0.66522  1.0000
  H   H9        1.0  0.21967  0.69877  0.91709  1.0000
  H   H10       1.0  0.28033  0.41709  0.19877  1.0000
  H   H11       1.0  0.71967  0.80123  0.58291  1.0000
  H   H12       1.0  0.78033  0.08291  0.30123  1.0000
  H   H13       1.0  0.78033  0.30123  0.08291  1.0000
  H   H14       1.0  0.71967  0.58291  0.80123  1.0000
  H   H15       1.0  0.28033  0.19877  0.41709  1.0000
  H   H16       1.0  0.21967  0.91709  0.69877  1.0000
  H   H17       1.0  0.10235  0.62840  0.73904  1.0000
  H   H18       1.0  0.39765  0.23904  0.12840  1.0000
  H   H19       1.0  0.60235  0.87160  0.76096  1.0000
  H   H20       1.0  0.89765  0.26096  0.37160  1.0000
  H   H21       1.0  0.89765  0.37160  0.26096  1.0000
  H   H22       1.0  0.60235  0.76096  0.87160  1.0000
  H   H23       1.0  0.39765  0.12840  0.23904  1.0000
  H   H24       1.0  0.10235  0.73904  0.62840  1.0000
  H   H25       1.0  0.20140  0.33079  0.55544  1.0000
  H   H26       1.0  0.29860  0.05544  0.83079  1.0000
  H   H27       1.0  0.70140  0.16921  0.94456  1.0000
  H   H28       1.0  0.79860  0.44456  0.66921  1.0000
  H   H29       1.0  0.79860  0.66921  0.44456  1.0000
  H   H30       1.0  0.70140  0.94456  0.16921  1.0000
  H   H31       1.0  0.29860  0.83079  0.05544  1.0000
  H   H32       1.0  0.20140  0.55544  0.33079  1.0000
  H   H33       1.0  0.36718  0.29427  0.69221  1.0000
  H   H34       1.0  0.13282  0.19221  0.79427  1.0000
  H   H35       1.0  0.86718  0.20573  0.80780  1.0000
  H   H36       1.0  0.63282  0.30780  0.70573  1.0000
  H   H37       1.0  0.63282  0.70573  0.30780  1.0000
  H   H38       1.0  0.86718  0.80779  0.20574  1.0000
  H   H39       1.0  0.13282  0.79427  0.19221  1.0000
  H   H40       1.0  0.36718  0.69220  0.29427  1.0000
  C   C1        1.0  0.29625  0.36745  0.36745  1.0000
  C   C2        1.0  0.20375  0.86746  0.86746  1.0000
  C   C3        1.0  0.79625  0.13254  0.13255  1.0000
  C   C4        1.0  0.70375  0.63255  0.63255  1.0000
  C   C5        1.0  0.44829  0.50988  0.96016  1.0000
  C   C6        1.0  0.05171  0.46016  0.00988  1.0000
  C   C7        1.0  0.94829  0.99012  0.53984  1.0000
  C   C8        1.0  0.55171  0.03984  0.49012  1.0000
  C   C9        1.0  0.55171  0.49012  0.03984  1.0000
  C   C10       1.0  0.94829  0.53984  0.99012  1.0000
  C   C11       1.0  0.05171  0.00988  0.46016  1.0000
  C   C12       1.0  0.44829  0.96016  0.50988  1.0000
  C   C13       1.0  0.37327  0.60745  0.98042  1.0000
  C   C14       1.0  0.12673  0.48042  0.10745  1.0000
  C   C15       1.0  0.87327  0.89255  0.51958  1.0000
  C   C16       1.0  0.62673  0.01958  0.39255  1.0000
  C   C17       1.0  0.62673  0.39255  0.01958  1.0000
  C   C18       1.0  0.87327  0.51958  0.89255  1.0000
  C   C19       1.0  0.12673  0.10745  0.48042  1.0000
  C   C20       1.0  0.37327  0.98042  0.60745  1.0000
  C   C21       1.0  0.27944  0.62535  0.90592  1.0000
  C   C22       1.0  0.22056  0.40591  0.12535  1.0000
  C   C23       1.0  0.77944  0.87465  0.59408  1.0000
  C   C24       1.0  0.72056  0.09408  0.37465  1.0000
  C   C25       1.0  0.72056  0.37465  0.09408  1.0000
  C   C26       1.0  0.77944  0.59409  0.87465  1.0000
  C   C27       1.0  0.22056  0.12535  0.40592  1.0000
  C   C28       1.0  0.27944  0.90592  0.62535  1.0000
  C   C29       1.0  0.16538  0.55621  0.73013  1.0000
  C   C30       1.0  0.33462  0.23013  0.05621  1.0000
  C   C31       1.0  0.66538  0.94379  0.76987  1.0000
  C   C32       1.0  0.83462  0.26987  0.44379  1.0000
  C   C33       1.0  0.83462  0.44379  0.26987  1.0000
  C   C34       1.0  0.66538  0.76987  0.94379  1.0000
  C   C35       1.0  0.33462  0.05621  0.23013  1.0000
  C   C36       1.0  0.16538  0.73013  0.55620  1.0000
  C   C37       1.0  0.22099  0.38883  0.62980  1.0000
  C   C38       1.0  0.27901  0.12980  0.88883  1.0000
  C   C39       1.0  0.72099  0.11117  0.87020  1.0000
  C   C40       1.0  0.77901  0.37020  0.61117  1.0000
  C   C41       1.0  0.77901  0.61117  0.37020  1.0000
  C   C42       1.0  0.72099  0.87020  0.11117  1.0000
  C   C43       1.0  0.27901  0.88883  0.12980  1.0000
  C   C44       1.0  0.22099  0.62980  0.38883  1.0000
  C   C45       1.0  0.31289  0.36946  0.70454  1.0000
  C   C46       1.0  0.18711  0.20454  0.86946  1.0000
  C   C47       1.0  0.81289  0.13054  0.79546  1.0000
  C   C48       1.0  0.68711  0.29546  0.63054  1.0000
  C   C49       1.0  0.68711  0.63054  0.29546  1.0000
  C   C50       1.0  0.81289  0.79546  0.13054  1.0000
  C   C51       1.0  0.18711  0.86946  0.20454  1.0000
  C   C52       1.0  0.31289  0.70454  0.36946  1.0000
  C   C53       1.0  0.33728  0.44938  0.79849  1.0000
  C   C54       1.0  0.16272  0.29849  0.94938  1.0000
  C   C55       1.0  0.83728  0.05062  0.70151  1.0000
  C   C56       1.0  0.66272  0.20151  0.55062  1.0000
  C   C57       1.0  0.66272  0.55062  0.20151  1.0000
  C   C58       1.0  0.83728  0.70151  0.05062  1.0000
  C   C59       1.0  0.16272  0.94938  0.29849  1.0000
  C   C60       1.0  0.33728  0.79849  0.44938  1.0000
  C   C61       1.0  0.25947  0.54545  0.81162  1.0000
  C   C62       1.0  0.24053  0.31162  0.04545  1.0000
  C   C63       1.0  0.75947  0.95455  0.68838  1.0000
  C   C64       1.0  0.74053  0.18838  0.45455  1.0000
  C   C65       1.0  0.74053  0.45455  0.18838  1.0000
  C   C66       1.0  0.75947  0.68838  0.95455  1.0000
  C   C67       1.0  0.24053  0.04545  0.31162  1.0000
  C   C68       1.0  0.25947  0.81162  0.54545  1.0000
  S   S1        1.0  0.47843  0.34078  0.34078  1.0000
  S   S2        1.0  0.02157  0.84078  0.84078  1.0000
  S   S3        1.0  0.97843  0.15922  0.15922  1.0000
  S   S4        1.0  0.52157  0.65922  0.65922  1.0000
  N   N1        1.0  0.16034  0.38465  0.38465  1.0000
  N   N2        1.0  0.33966  0.88465  0.88465  1.0000
  N   N3        1.0  0.66035  0.11535  0.11535  1.0000
  N   N4        1.0  0.83966  0.61535  0.61535  1.0000
  N   N5        1.0  0.43172  0.43314  0.87233  1.0000
  N   N6        1.0  0.06828  0.37233  0.93314  1.0000
  N   N7        1.0  0.93172  0.06686  0.62767  1.0000
  N   N8        1.0  0.56828  0.12767  0.56687  1.0000
  N   N9        1.0  0.56828  0.56687  0.12767  1.0000
  N   N10       1.0  0.93172  0.62767  0.06687  1.0000
  N   N11       1.0  0.06828  0.93313  0.37233  1.0000
  N   N12       1.0  0.43172  0.87233  0.43313  1.0000
  N   N13       1.0  0.14837  0.48098  0.64205  1.0000
  N   N14       1.0  0.35163  0.14205  0.98098  1.0000
  N   N15       1.0  0.64837  0.01902  0.85795  1.0000
  N   N16       1.0  0.85163  0.35795  0.51902  1.0000
  N   N17       1.0  0.85163  0.51902  0.35795  1.0000
  N   N18       1.0  0.64837  0.85795  0.01902  1.0000
  N   N19       1.0  0.35163  0.98098  0.14205  1.0000
  N   N20       1.0  0.14837  0.64205  0.48098  1.0000
