data_image0
_chemical_formula_structural       Zn2H40C68S4N20
_chemical_formula_sum              "Zn2 H40 C68 S4 N20"
_cell_length_a       8.3795
_cell_length_b       13.3834
_cell_length_c       13.3834
_cell_angle_alpha    107.374
_cell_angle_beta     90.0001
_cell_angle_gamma    90.0001

_space_group_name_H-M_alt    "P 1"
_space_group_IT_number       1

loop_
  _space_group_symop_operation_xyz
  'x, y, z'

loop_
  _atom_site_type_symbol
  _atom_site_label
  _atom_site_symmetry_multiplicity
  _atom_site_fract_x
  _atom_site_fract_y
  _atom_site_fract_z
  _atom_site_occupancy
  Zn  Zn1       1.0  0.00000  0.50000  0.50000  1.0000
  Zn  Zn2       1.0  0.50000  1.00000  0.00000  1.0000
  H   H1        1.0  0.38873  0.66657  0.05500  1.0000
  H   H2        1.0  0.11127  0.55500  0.16657  1.0000
  H   H3        1.0  0.88873  0.83343  0.44500  1.0000
  H   H4        1.0  0.61127  0.94500  0.33343  1.0000
  H   H5        1.0  0.61127  0.33343  0.94500  1.0000
  H   H6        1.0  0.88873  0.44500  0.83343  1.0000
  H   H7        1.0  0.11127  0.16657  0.55500  1.0000
  H   H8        1.0  0.38873  0.05500  0.66656  1.0000
  H   H9        1.0  0.20956  0.70047  0.91509  1.0000
  H   H10       1.0  0.29044  0.41509  0.20046  1.0000
  H   H11       1.0  0.70956  0.79953  0.58491  1.0000
  H   H12       1.0  0.79044  0.08491  0.29953  1.0000
  H   H13       1.0  0.79044  0.29953  0.08492  1.0000
  H   H14       1.0  0.70956  0.58491  0.79953  1.0000
  H   H15       1.0  0.29044  0.20046  0.41509  1.0000
  H   H16       1.0  0.20956  0.91509  0.70047  1.0000
  H   H17       1.0  0.09214  0.63039  0.73414  1.0000
  H   H18       1.0  0.40786  0.23414  0.13039  1.0000
  H   H19       1.0  0.59214  0.86961  0.76586  1.0000
  H   H20       1.0  0.90786  0.26586  0.36961  1.0000
  H   H21       1.0  0.90786  0.36961  0.26586  1.0000
  H   H22       1.0  0.59214  0.76586  0.86961  1.0000
  H   H23       1.0  0.40786  0.13039  0.23414  1.0000
  H   H24       1.0  0.09215  0.73414  0.63039  1.0000
  H   H25       1.0  0.19575  0.33010  0.54900  1.0000
  H   H26       1.0  0.30424  0.04900  0.83010  1.0000
  H   H27       1.0  0.69575  0.16990  0.95100  1.0000
  H   H28       1.0  0.80425  0.45100  0.66990  1.0000
  H   H29       1.0  0.80425  0.66990  0.45100  1.0000
  H   H30       1.0  0.69575  0.95100  0.16990  1.0000
  H   H31       1.0  0.30425  0.83010  0.04900  1.0000
  H   H32       1.0  0.19575  0.54900  0.33010  1.0000
  H   H33       1.0  0.36508  0.29238  0.68770  1.0000
  H   H34       1.0  0.13492  0.18770  0.79238  1.0000
  H   H35       1.0  0.86508  0.20762  0.81230  1.0000
  H   H36       1.0  0.63492  0.31230  0.70762  1.0000
  H   H37       1.0  0.63492  0.70762  0.31230  1.0000
  H   H38       1.0  0.86508  0.81230  0.20762  1.0000
  H   H39       1.0  0.13492  0.79238  0.18770  1.0000
  H   H40       1.0  0.36508  0.68770  0.29238  1.0000
  C   C1        1.0  0.28891  0.37551  0.37551  1.0000
  C   C2        1.0  0.21109  0.87551  0.87551  1.0000
  C   C3        1.0  0.78891  0.12449  0.12449  1.0000
  C   C4        1.0  0.71110  0.62449  0.62449  1.0000
  C   C5        1.0  0.44729  0.51004  0.95929  1.0000
  C   C6        1.0  0.05271  0.45929  0.01004  1.0000
  C   C7        1.0  0.94729  0.98996  0.54071  1.0000
  C   C8        1.0  0.55271  0.04071  0.48996  1.0000
  C   C9        1.0  0.55271  0.48996  0.04071  1.0000
  C   C10       1.0  0.94729  0.54071  0.98996  1.0000
  C   C11       1.0  0.05271  0.01004  0.45929  1.0000
  C   C12       1.0  0.44729  0.95929  0.51004  1.0000
  C   C13       1.0  0.36911  0.60847  0.97949  1.0000
  C   C14       1.0  0.13090  0.47949  0.10847  1.0000
  C   C15       1.0  0.86910  0.89153  0.52051  1.0000
  C   C16       1.0  0.63089  0.02051  0.39153  1.0000
  C   C17       1.0  0.63090  0.39153  0.02051  1.0000
  C   C18       1.0  0.86910  0.52051  0.89153  1.0000
  C   C19       1.0  0.13090  0.10847  0.47949  1.0000
  C   C20       1.0  0.36910  0.97949  0.60847  1.0000
  C   C21       1.0  0.27302  0.62670  0.90366  1.0000
  C   C22       1.0  0.22697  0.40366  0.12670  1.0000
  C   C23       1.0  0.77302  0.87330  0.59634  1.0000
  C   C24       1.0  0.72698  0.09634  0.37330  1.0000
  C   C25       1.0  0.72697  0.37330  0.09634  1.0000
  C   C26       1.0  0.77302  0.59634  0.87330  1.0000
  C   C27       1.0  0.22698  0.12670  0.40366  1.0000
  C   C28       1.0  0.27302  0.90366  0.62670  1.0000
  C   C29       1.0  0.15796  0.55766  0.72496  1.0000
  C   C30       1.0  0.34204  0.22496  0.05766  1.0000
  C   C31       1.0  0.65796  0.94234  0.77504  1.0000
  C   C32       1.0  0.84204  0.27504  0.44234  1.0000
  C   C33       1.0  0.84204  0.44234  0.27504  1.0000
  C   C34       1.0  0.65796  0.77504  0.94234  1.0000
  C   C35       1.0  0.34204  0.05766  0.22496  1.0000
  C   C36       1.0  0.15797  0.72496  0.55766  1.0000
  C   C37       1.0  0.21589  0.38879  0.62397  1.0000
  C   C38       1.0  0.28411  0.12397  0.88879  1.0000
  C   C39       1.0  0.71589  0.11121  0.87603  1.0000
  C   C40       1.0  0.78411  0.37603  0.61121  1.0000
  C   C41       1.0  0.78411  0.61121  0.37603  1.0000
  C   C42       1.0  0.71589  0.87603  0.11121  1.0000
  C   C43       1.0  0.28411  0.88879  0.12397  1.0000
  C   C44       1.0  0.21589  0.62397  0.38879  1.0000
  C   C45       1.0  0.30978  0.36878  0.69997  1.0000
  C   C46       1.0  0.19022  0.19997  0.86878  1.0000
  C   C47       1.0  0.80978  0.13122  0.80003  1.0000
  C   C48       1.0  0.69022  0.30003  0.63122  1.0000
  C   C49       1.0  0.69022  0.63122  0.30003  1.0000
  C   C50       1.0  0.80978  0.80003  0.13122  1.0000
  C   C51       1.0  0.19022  0.86878  0.19997  1.0000
  C   C52       1.0  0.30979  0.69997  0.36878  1.0000
  C   C53       1.0  0.33479  0.44939  0.79499  1.0000
  C   C54       1.0  0.16521  0.29499  0.94939  1.0000
  C   C55       1.0  0.83479  0.05061  0.70501  1.0000
  C   C56       1.0  0.66521  0.20501  0.55061  1.0000
  C   C57       1.0  0.66521  0.55061  0.20501  1.0000
  C   C58       1.0  0.83479  0.70501  0.05061  1.0000
  C   C59       1.0  0.16521  0.94939  0.29499  1.0000
  C   C60       1.0  0.33479  0.79499  0.44939  1.0000
  C   C61       1.0  0.25413  0.54643  0.80787  1.0000
  C   C62       1.0  0.24587  0.30787  0.04643  1.0000
  C   C63       1.0  0.75413  0.95357  0.69213  1.0000
  C   C64       1.0  0.74587  0.19213  0.45357  1.0000
  C   C65       1.0  0.74587  0.45357  0.19213  1.0000
  C   C66       1.0  0.75413  0.69213  0.95357  1.0000
  C   C67       1.0  0.24587  0.04643  0.30787  1.0000
  C   C68       1.0  0.25413  0.80787  0.54643  1.0000
  S   S1        1.0  0.47403  0.34782  0.34782  1.0000
  S   S2        1.0  0.02597  0.84782  0.84782  1.0000
  S   S3        1.0  0.97403  0.15218  0.15218  1.0000
  S   S4        1.0  0.52597  0.65218  0.65218  1.0000
  N   N1        1.0  0.15122  0.39477  0.39477  1.0000
  N   N2        1.0  0.34876  0.89477  0.89477  1.0000
  N   N3        1.0  0.65124  0.10523  0.10523  1.0000
  N   N4        1.0  0.84876  0.60523  0.60523  1.0000
  N   N5        1.0  0.43147  0.43278  0.87016  1.0000
  N   N6        1.0  0.06852  0.37016  0.93278  1.0000
  N   N7        1.0  0.93147  0.06722  0.62984  1.0000
  N   N8        1.0  0.56853  0.12984  0.56722  1.0000
  N   N9        1.0  0.56853  0.56722  0.12984  1.0000
  N   N10       1.0  0.93147  0.62984  0.06722  1.0000
  N   N11       1.0  0.06852  0.93278  0.37016  1.0000
  N   N12       1.0  0.43148  0.87016  0.43278  1.0000
  N   N13       1.0  0.14161  0.48224  0.63529  1.0000
  N   N14       1.0  0.35839  0.13529  0.98224  1.0000
  N   N15       1.0  0.64161  0.01776  0.86472  1.0000
  N   N16       1.0  0.85839  0.36472  0.51776  1.0000
  N   N17       1.0  0.85839  0.51776  0.36472  1.0000
  N   N18       1.0  0.64161  0.86472  0.01776  1.0000
  N   N19       1.0  0.35839  0.98224  0.13528  1.0000
  N   N20       1.0  0.14161  0.63528  0.48224  1.0000
