data_image0
_chemical_formula_structural       Ag4H36C32N8O20
_chemical_formula_sum              "Ag4 H36 C32 N8 O20"
_cell_length_a       5.18681
_cell_length_b       13.8964
_cell_length_c       14.8633
_cell_angle_alpha    106.983
_cell_angle_beta     100.062
_cell_angle_gamma    89.9782

_space_group_name_H-M_alt    "P 1"
_space_group_IT_number       1

loop_
  _space_group_symop_operation_xyz
  'x, y, z'

loop_
  _atom_site_type_symbol
  _atom_site_label
  _atom_site_symmetry_multiplicity
  _atom_site_fract_x
  _atom_site_fract_y
  _atom_site_fract_z
  _atom_site_occupancy
  Ag  Ag1       1.0  0.26179  0.46839  0.43706  1.0000
  Ag  Ag2       1.0  0.82474  0.03164  0.56282  1.0000
  Ag  Ag3       1.0  0.73819  0.53162  0.56294  1.0000
  Ag  Ag4       1.0  0.17534  0.96836  0.43717  1.0000
  H   H1        1.0  0.85898  0.18720  0.45585  1.0000
  H   H2        1.0  0.40200  0.31290  0.54384  1.0000
  H   H3        1.0  0.14106  0.81282  0.54416  1.0000
  H   H4        1.0  0.59800  0.68711  0.45617  1.0000
  H   H5        1.0  0.98409  0.21688  0.36392  1.0000
  H   H6        1.0  0.61964  0.28333  0.63575  1.0000
  H   H7        1.0  0.01592  0.78314  0.63608  1.0000
  H   H8        1.0  0.38037  0.71670  0.36426  1.0000
  H   H9        1.0  0.41779  0.13509  0.34689  1.0000
  H   H10       1.0  0.07031  0.36512  0.65281  1.0000
  H   H11       1.0  0.58223  0.86491  0.65312  1.0000
  H   H12       1.0  0.92964  0.63487  0.34718  1.0000
  H   H13       1.0  0.67814  0.05614  0.31776  1.0000
  H   H14       1.0  0.35976  0.44404  0.68203  1.0000
  H   H15       1.0  0.32191  0.94387  0.68226  1.0000
  H   H16       1.0  0.64016  0.55597  0.31797  1.0000
  H   H17       1.0  0.23524  0.22706  0.24778  1.0000
  H   H18       1.0  0.98689  0.27303  0.75178  1.0000
  H   H19       1.0  0.76480  0.77294  0.75221  1.0000
  H   H20       1.0  0.01307  0.72697  0.24822  1.0000
  H   H21       1.0  0.13377  0.23673  0.08031  1.0000
  H   H22       1.0  0.05292  0.26302  0.91912  1.0000
  H   H23       1.0  0.86627  0.76325  0.91969  1.0000
  H   H24       1.0  0.94707  0.73697  0.08087  1.0000
  H   H25       1.0  0.42935  0.15009  0.96427  1.0000
  H   H26       1.0  0.46462  0.34954  0.03532  1.0000
  H   H27       1.0  0.57069  0.84990  0.03573  1.0000
  H   H28       1.0  0.53535  0.65045  0.96468  1.0000
  H   H29       1.0  0.80602  0.06041  0.02286  1.0000
  H   H30       1.0  0.78247  0.43941  0.97685  1.0000
  H   H31       1.0  0.19401  0.93957  0.97715  1.0000
  H   H32       1.0  0.21747  0.56059  0.02314  1.0000
  H   H33       1.0  0.87288  0.05182  0.19270  1.0000
  H   H34       1.0  0.67952  0.44822  0.80714  1.0000
  H   H35       1.0  0.12715  0.94818  0.80731  1.0000
  H   H36       1.0  0.32042  0.55179  0.19286  1.0000
  C   C1        1.0  0.69994  0.31576  0.42462  1.0000
  C   C2        1.0  0.27491  0.18433  0.57516  1.0000
  C   C3        1.0  0.30005  0.68425  0.57538  1.0000
  C   C4        1.0  0.72514  0.81567  0.42484  1.0000
  C   C5        1.0  0.80277  0.21141  0.39124  1.0000
  C   C6        1.0  0.41087  0.28872  0.60848  1.0000
  C   C7        1.0  0.19725  0.78860  0.60877  1.0000
  C   C8        1.0  0.58913  0.71130  0.39153  1.0000
  C   C9        1.0  0.60526  0.13118  0.32241  1.0000
  C   C10       1.0  0.28224  0.36899  0.67732  1.0000
  C   C11       1.0  0.39478  0.86883  0.67761  1.0000
  C   C12       1.0  0.71771  0.63101  0.32268  1.0000
  C   C13       1.0  0.35080  0.19005  0.19440  1.0000
  C   C14       1.0  0.15578  0.30999  0.80520  1.0000
  C   C15       1.0  0.64924  0.80994  0.80560  1.0000
  C   C16       1.0  0.84419  0.69002  0.19479  1.0000
  C   C17       1.0  0.30058  0.19531  0.10127  1.0000
  C   C18       1.0  0.19874  0.30452  0.89827  1.0000
  C   C19       1.0  0.69945  0.80467  0.89873  1.0000
  C   C20       1.0  0.80122  0.69548  0.10172  1.0000
  C   C21       1.0  0.46382  0.14829  0.03814  1.0000
  C   C22       1.0  0.42510  0.35147  0.96147  1.0000
  C   C23       1.0  0.53620  0.85169  0.96186  1.0000
  C   C24       1.0  0.57485  0.64853  0.03853  1.0000
  C   C25       1.0  0.67510  0.09751  0.07040  1.0000
  C   C26       1.0  0.60401  0.40233  0.92930  1.0000
  C   C27       1.0  0.32492  0.90248  0.92961  1.0000
  C   C28       1.0  0.39593  0.59767  0.07069  1.0000
  C   C29       1.0  0.71602  0.09283  0.16338  1.0000
  C   C30       1.0  0.55192  0.40716  0.83637  1.0000
  C   C31       1.0  0.28401  0.90716  0.83663  1.0000
  C   C32       1.0  0.44802  0.59285  0.16363  1.0000
  N   N1        1.0  0.00156  0.40923  0.20852  1.0000
  N   N2        1.0  0.79285  0.09069  0.79124  1.0000
  N   N3        1.0  0.99840  0.59077  0.79147  1.0000
  N   N4        1.0  0.20718  0.90929  0.20875  1.0000
  N   N5        1.0  0.55408  0.13865  0.22336  1.0000
  N   N6        1.0  0.33004  0.36143  0.77633  1.0000
  N   N7        1.0  0.44595  0.86134  0.77665  1.0000
  N   N8        1.0  0.66991  0.63858  0.22367  1.0000
  O   O1        1.0  0.14767  0.48173  0.27074  1.0000
  O   O2        1.0  0.87747  0.01834  0.72906  1.0000
  O   O3        1.0  0.85228  0.51827  0.72925  1.0000
  O   O4        1.0  0.12259  0.98165  0.27093  1.0000
  O   O5        1.0  0.89363  0.34380  0.23508  1.0000
  O   O6        1.0  0.65839  0.15617  0.76469  1.0000
  O   O7        1.0  0.10635  0.65619  0.76492  1.0000
  O   O8        1.0  0.34165  0.84382  0.23531  1.0000
  O   O9        1.0  0.97054  0.40553  0.12100  1.0000
  O   O10       1.0  0.84866  0.09419  0.87873  1.0000
  O   O11       1.0  0.02941  0.59446  0.87899  1.0000
  O   O12       1.0  0.15134  0.90578  0.12126  1.0000
  O   O13       1.0  0.45881  0.32598  0.39610  1.0000
  O   O14       1.0  0.06216  0.17413  0.60358  1.0000
  O   O15       1.0  0.54118  0.67403  0.60390  1.0000
  O   O16       1.0  0.93790  0.82587  0.39643  1.0000
  O   O17       1.0  0.13629  0.61651  0.51676  1.0000
  O   O18       1.0  0.61974  0.88346  0.48334  1.0000
  O   O19       1.0  0.86367  0.38351  0.48323  1.0000
  O   O20       1.0  0.38031  0.11655  0.51665  1.0000
