data_image0
_chemical_formula_structural       Ag4H52C24N8O20
_chemical_formula_sum              "Ag4 H52 C24 N8 O20"
_cell_length_a       10.4059
_cell_length_b       10.9181
_cell_length_c       10.9181
_cell_angle_alpha    68.5986
_cell_angle_beta     66.3666
_cell_angle_gamma    66.3668

_space_group_name_H-M_alt    "P 1"
_space_group_IT_number       1

loop_
  _space_group_symop_operation_xyz
  'x, y, z'

loop_
  _atom_site_type_symbol
  _atom_site_label
  _atom_site_symmetry_multiplicity
  _atom_site_fract_x
  _atom_site_fract_y
  _atom_site_fract_z
  _atom_site_occupancy
  Ag  Ag1       1.0  0.17553  0.01438  0.89512  1.0000
  Ag  Ag2       1.0  0.32447  0.10488  0.98562  1.0000
  Ag  Ag3       1.0  0.82447  0.98562  0.10488  1.0000
  Ag  Ag4       1.0  0.67553  0.89512  0.01438  1.0000
  H   H1        1.0  0.73576  0.77435  0.79440  1.0000
  H   H2        1.0  0.76424  0.20560  0.22565  1.0000
  H   H3        1.0  0.26424  0.22565  0.20560  1.0000
  H   H4        1.0  0.23576  0.79440  0.77435  1.0000
  H   H5        1.0  0.67005  0.77759  0.66581  1.0000
  H   H6        1.0  0.82995  0.33419  0.22241  1.0000
  H   H7        1.0  0.32995  0.22241  0.33419  1.0000
  H   H8        1.0  0.17005  0.66581  0.77759  1.0000
  H   H9        1.0  0.54553  0.59898  0.83315  1.0000
  H   H10       1.0  0.95447  0.16685  0.40102  1.0000
  H   H11       1.0  0.45447  0.40102  0.16685  1.0000
  H   H12       1.0  0.04553  0.83315  0.59898  1.0000
  H   H13       1.0  0.60935  0.59649  0.96291  1.0000
  H   H14       1.0  0.89065  0.03709  0.40351  1.0000
  H   H15       1.0  0.39065  0.40351  0.03709  1.0000
  H   H16       1.0  0.10935  0.96291  0.59649  1.0000
  H   H17       1.0  0.83799  0.27989  0.86828  1.0000
  H   H18       1.0  0.66201  0.13172  0.72011  1.0000
  H   H19       1.0  0.16201  0.72011  0.13172  1.0000
  H   H20       1.0  0.33799  0.86828  0.27989  1.0000
  H   H21       1.0  0.64711  0.35841  0.87719  1.0000
  H   H22       1.0  0.85289  0.12281  0.64159  1.0000
  H   H23       1.0  0.35289  0.64159  0.12281  1.0000
  H   H24       1.0  0.14711  0.87719  0.35841  1.0000
  H   H25       1.0  0.71333  0.36185  0.00478  1.0000
  H   H26       1.0  0.78668  0.99522  0.63815  1.0000
  H   H27       1.0  0.28667  0.63815  0.99522  1.0000
  H   H28       1.0  0.21333  0.00478  0.36185  1.0000
  H   H29       1.0  0.83312  0.59686  0.59642  1.0000
  H   H30       1.0  0.66688  0.40358  0.40314  1.0000
  H   H31       1.0  0.16688  0.40314  0.40358  1.0000
  H   H32       1.0  0.33312  0.59642  0.59686  1.0000
  H   H33       1.0  0.70226  0.50385  0.64918  1.0000
  H   H34       1.0  0.79774  0.35083  0.49614  1.0000
  H   H35       1.0  0.29774  0.49614  0.35082  1.0000
  H   H36       1.0  0.20226  0.64917  0.50386  1.0000
  H   H37       1.0  0.89192  0.41137  0.63656  1.0000
  H   H38       1.0  0.60808  0.36344  0.58863  1.0000
  H   H39       1.0  0.10808  0.58863  0.36344  1.0000
  H   H40       1.0  0.39192  0.63656  0.41137  1.0000
  H   H41       1.0  0.87278  0.50978  0.93653  1.0000
  H   H42       1.0  0.62722  0.06347  0.49022  1.0000
  H   H43       1.0  0.12722  0.49022  0.06347  1.0000
  H   H44       1.0  0.37278  0.93653  0.50978  1.0000
  H   H45       1.0  0.92923  0.59853  0.75906  1.0000
  H   H46       1.0  0.57077  0.24094  0.40147  1.0000
  H   H47       1.0  0.07077  0.40147  0.24094  1.0000
  H   H48       1.0  0.42923  0.75906  0.59853  1.0000
  H   H49       1.0  0.99254  0.41328  0.80920  1.0000
  H   H50       1.0  0.50747  0.19080  0.58672  1.0000
  H   H51       1.0  0.00746  0.58672  0.19080  1.0000
  H   H52       1.0  0.49254  0.80920  0.41328  1.0000
  C   C1        1.0  0.50323  0.86627  0.82822  1.0000
  C   C2        1.0  0.99677  0.17178  0.13373  1.0000
  C   C3        1.0  0.49677  0.13373  0.17178  1.0000
  C   C4        1.0  0.00323  0.82822  0.86627  1.0000
  C   C5        1.0  0.64723  0.75845  0.77767  1.0000
  C   C6        1.0  0.85277  0.22233  0.24155  1.0000
  C   C7        1.0  0.35277  0.24155  0.22233  1.0000
  C   C8        1.0  0.14723  0.77767  0.75845  1.0000
  C   C9        1.0  0.63343  0.61434  0.85166  1.0000
  C   C10       1.0  0.86657  0.14834  0.38566  1.0000
  C   C11       1.0  0.36657  0.38566  0.14834  1.0000
  C   C12       1.0  0.13343  0.85166  0.61434  1.0000
  C   C13       1.0  0.73955  0.36460  0.89650  1.0000
  C   C14       1.0  0.76045  0.10351  0.63540  1.0000
  C   C15       1.0  0.26045  0.63540  0.10351  1.0000
  C   C16       1.0  0.23955  0.89649  0.36460  1.0000
  C   C17       1.0  0.80206  0.50348  0.66091  1.0000
  C   C18       1.0  0.69794  0.33909  0.49652  1.0000
  C   C19       1.0  0.19794  0.49652  0.33909  1.0000
  C   C20       1.0  0.30206  0.66091  0.50348  1.0000
  C   C21       1.0  0.90098  0.50568  0.82969  1.0000
  C   C22       1.0  0.59902  0.17031  0.49432  1.0000
  C   C23       1.0  0.09902  0.49432  0.17031  1.0000
  C   C24       1.0  0.40098  0.82969  0.50568  1.0000
  N   N1        1.0  0.11702  0.18278  0.60075  1.0000
  N   N2        1.0  0.38298  0.39925  0.81722  1.0000
  N   N3        1.0  0.88298  0.81722  0.39925  1.0000
  N   N4        1.0  0.61702  0.60075  0.18278  1.0000
  N   N5        1.0  0.77031  0.49820  0.80892  1.0000
  N   N6        1.0  0.72969  0.19108  0.50180  1.0000
  N   N7        1.0  0.22968  0.50180  0.19108  1.0000
  N   N8        1.0  0.27031  0.80892  0.49820  1.0000
  O   O1        1.0  0.03608  0.14384  0.72245  1.0000
  O   O2        1.0  0.46392  0.27755  0.85616  1.0000
  O   O3        1.0  0.96392  0.85616  0.27755  1.0000
  O   O4        1.0  0.53608  0.72245  0.14383  1.0000
  O   O5        1.0  0.05811  0.24358  0.50345  1.0000
  O   O6        1.0  0.44189  0.49655  0.75642  1.0000
  O   O7        1.0  0.94189  0.75642  0.49655  1.0000
  O   O8        1.0  0.55811  0.50345  0.24358  1.0000
  O   O9        1.0  0.25238  0.16057  0.57723  1.0000
  O   O10       1.0  0.24762  0.42277  0.83943  1.0000
  O   O11       1.0  0.74762  0.83943  0.42277  1.0000
  O   O12       1.0  0.75238  0.57723  0.16057  1.0000
  O   O13       1.0  0.38575  0.85203  0.83345  1.0000
  O   O14       1.0  0.11425  0.16655  0.14797  1.0000
  O   O15       1.0  0.61425  0.14797  0.16655  1.0000
  O   O16       1.0  0.88575  0.83345  0.85203  1.0000
  O   O17       1.0  0.98745  0.14114  0.03618  1.0000
  O   O18       1.0  0.51254  0.96382  0.85886  1.0000
  O   O19       1.0  0.01254  0.85886  0.96382  1.0000
  O   O20       1.0  0.48745  0.03618  0.14114  1.0000
