data_image0
_chemical_formula_structural       CdH24C28Br2N8
_chemical_formula_sum              "Cd1 H24 C28 Br2 N8"
_cell_length_a       8.44014
_cell_length_b       8.20629
_cell_length_c       12.603
_cell_angle_alpha    69.2499
_cell_angle_beta     74.4325
_cell_angle_gamma    63.4829

_space_group_name_H-M_alt    "P 1"
_space_group_IT_number       1

loop_
  _space_group_symop_operation_xyz
  'x, y, z'

loop_
  _atom_site_type_symbol
  _atom_site_label
  _atom_site_symmetry_multiplicity
  _atom_site_fract_x
  _atom_site_fract_y
  _atom_site_fract_z
  _atom_site_occupancy
  Cd  Cd1       1.0  0.50000  1.00000  0.50000  1.0000
  H   H1        1.0  0.43465  0.35900  0.00715  1.0000
  H   H2        1.0  0.56535  0.64100  0.99286  1.0000
  H   H3        1.0  0.14318  0.28702  0.61282  1.0000
  H   H4        1.0  0.85682  0.71299  0.38719  1.0000
  H   H5        1.0  0.86440  0.29007  0.74649  1.0000
  H   H6        1.0  0.13560  0.70992  0.25352  1.0000
  H   H7        1.0  0.96749  0.75268  0.69967  1.0000
  H   H8        1.0  0.03250  0.24733  0.30034  1.0000
  H   H9        1.0  0.25100  0.76702  0.57258  1.0000
  H   H10       1.0  0.74899  0.23299  0.42742  1.0000
  H   H11       1.0  0.72289  0.87432  0.82380  1.0000
  H   H12       1.0  0.27710  0.12568  0.17620  1.0000
  H   H13       1.0  0.25516  0.46538  0.75306  1.0000
  H   H14       1.0  0.74484  0.53463  0.24694  1.0000
  H   H15       1.0  0.36377  0.59240  0.77362  1.0000
  H   H16       1.0  0.63623  0.40760  0.22638  1.0000
  H   H17       1.0  0.21052  0.51497  0.88726  1.0000
  H   H18       1.0  0.78947  0.48505  0.11275  1.0000
  H   H19       1.0  0.77414  0.95602  0.15996  1.0000
  H   H20       1.0  0.22587  0.04397  0.84003  1.0000
  H   H21       1.0  0.56165  0.14533  0.17550  1.0000
  H   H22       1.0  0.43836  0.85465  0.82450  1.0000
  H   H23       1.0  0.75472  0.19404  0.10752  1.0000
  H   H24       1.0  0.24528  0.80596  0.89248  1.0000
  C   C1        1.0  0.10154  0.16916  0.63661  1.0000
  C   C2        1.0  0.89846  0.83084  0.36339  1.0000
  C   C3        1.0  0.94622  0.16963  0.71099  1.0000
  C   C4        1.0  0.05377  0.83037  0.28902  1.0000
  C   C5        1.0  0.89924  0.01460  0.73841  1.0000
  C   C6        1.0  0.10075  0.98540  0.26159  1.0000
  C   C7        1.0  0.00576  0.87039  0.68507  1.0000
  C   C8        1.0  0.99423  0.12961  0.31493  1.0000
  C   C9        1.0  0.16085  0.87931  0.61329  1.0000
  C   C10       1.0  0.83915  0.12069  0.38672  1.0000
  C   C11       1.0  0.73715  0.00112  0.82480  1.0000
  C   C12       1.0  0.26285  0.99888  0.17520  1.0000
  C   C13       1.0  0.56841  0.17418  0.79117  1.0000
  C   C14       1.0  0.43159  0.82583  0.20883  1.0000
  C   C15       1.0  0.46900  0.30075  0.85452  1.0000
  C   C16       1.0  0.53100  0.69925  0.14548  1.0000
  C   C17       1.0  0.65804  0.11215  0.00457  1.0000
  C   C18       1.0  0.34197  0.88785  0.99543  1.0000
  C   C19       1.0  0.76227  0.98106  0.94487  1.0000
  C   C20       1.0  0.23773  0.01894  0.05513  1.0000
  C   C21       1.0  0.52132  0.20323  0.68544  1.0000
  C   C22       1.0  0.47867  0.79678  0.31455  1.0000
  C   C23       1.0  0.31427  0.47791  0.81574  1.0000
  C   C24       1.0  0.68573  0.52210  0.18426  1.0000
  C   C25       1.0  0.68783  0.09967  0.11846  1.0000
  C   C26       1.0  0.31218  0.90032  0.88154  1.0000
  C   C27       1.0  0.90517  0.81943  0.99433  1.0000
  C   C28       1.0  0.09483  0.18058  0.00566  1.0000
  Br  Br1       1.0  0.33511  0.30924  0.32679  1.0000
  Br  Br2       1.0  0.66494  0.69075  0.67317  1.0000
  N   N1        1.0  0.21023  0.02378  0.59146  1.0000
  N   N2        1.0  0.78976  0.97622  0.40855  1.0000
  N   N3        1.0  0.51662  0.27010  0.95800  1.0000
  N   N4        1.0  0.48338  0.72989  0.04200  1.0000
  N   N5        1.0  0.49313  0.21333  0.59676  1.0000
  N   N6        1.0  0.50687  0.78667  0.40324  1.0000
  N   N7        1.0  0.02564  0.68296  0.03173  1.0000
  N   N8        1.0  0.97436  0.31703  0.96827  1.0000
