data_image0
_chemical_formula_structural       Mn2H28C32N12O10
_chemical_formula_sum              "Mn2 H28 C32 N12 O10"
_cell_length_a       7.05208
_cell_length_b       9.88045
_cell_length_c       13.9282
_cell_angle_alpha    78.1448
_cell_angle_beta     79.3418
_cell_angle_gamma    74.4125

_space_group_name_H-M_alt    "P 1"
_space_group_IT_number       1

loop_
  _space_group_symop_operation_xyz
  'x, y, z'

loop_
  _atom_site_type_symbol
  _atom_site_label
  _atom_site_symmetry_multiplicity
  _atom_site_fract_x
  _atom_site_fract_y
  _atom_site_fract_z
  _atom_site_occupancy
  Mn  Mn1       1.0  0.50746  0.06784  0.31952  1.0000
  Mn  Mn2       1.0  0.49254  0.93216  0.68048  1.0000
  H   H1        1.0  0.79097  0.01364  0.43997  1.0000
  H   H2        1.0  0.20901  0.98635  0.56003  1.0000
  H   H3        1.0  0.60983  0.13310  0.48173  1.0000
  H   H4        1.0  0.39015  0.86688  0.51827  1.0000
  H   H5        1.0  0.01314  0.90353  0.26421  1.0000
  H   H6        1.0  0.98686  0.09647  0.73579  1.0000
  H   H7        1.0  0.18510  0.93119  0.32864  1.0000
  H   H8        1.0  0.81489  0.06881  0.67137  1.0000
  H   H9        1.0  0.05163  0.06101  0.92237  1.0000
  H   H10       1.0  0.94837  0.93898  0.07763  1.0000
  H   H11       1.0  0.22911  0.15628  0.86467  1.0000
  H   H12       1.0  0.77089  0.84371  0.13533  1.0000
  H   H13       1.0  0.79690  0.27469  0.28423  1.0000
  H   H14       1.0  0.20312  0.72531  0.71577  1.0000
  H   H15       1.0  0.94275  0.43505  0.14346  1.0000
  H   H16       1.0  0.05725  0.56494  0.85655  1.0000
  H   H17       1.0  0.84856  0.45825  0.97330  1.0000
  H   H18       1.0  0.15145  0.54174  0.02671  1.0000
  H   H19       1.0  0.60701  0.32020  0.95417  1.0000
  H   H20       1.0  0.39299  0.67981  0.04583  1.0000
  H   H21       1.0  0.18263  0.38952  0.28848  1.0000
  H   H22       1.0  0.81738  0.61049  0.71151  1.0000
  H   H23       1.0  0.00288  0.64555  0.24386  1.0000
  H   H24       1.0  0.99711  0.35446  0.75614  1.0000
  H   H25       1.0  0.57964  0.60074  0.50600  1.0000
  H   H26       1.0  0.42036  0.39926  0.49400  1.0000
  H   H27       1.0  0.76137  0.34543  0.55092  1.0000
  H   H28       1.0  0.23864  0.65456  0.44908  1.0000
  C   C1        1.0  0.75968  0.28932  0.20955  1.0000
  C   C2        1.0  0.24033  0.71068  0.79045  1.0000
  C   C3        1.0  0.84100  0.37738  0.13033  1.0000
  C   C4        1.0  0.15901  0.62263  0.86966  1.0000
  C   C5        1.0  0.78795  0.39000  0.03668  1.0000
  C   C6        1.0  0.21207  0.61000  0.96332  1.0000
  C   C7        1.0  0.65469  0.31477  0.02519  1.0000
  C   C8        1.0  0.34532  0.68523  0.97482  1.0000
  C   C9        1.0  0.57773  0.22999  0.10832  1.0000
  C   C10       1.0  0.42227  0.77001  0.89168  1.0000
  C   C11       1.0  0.42745  0.15258  0.10197  1.0000
  C   C12       1.0  0.57255  0.84742  0.89804  1.0000
  C   C13       1.0  0.21999  0.10366  0.01490  1.0000
  C   C14       1.0  0.78002  0.89634  0.98510  1.0000
  C   C15       1.0  0.21407  0.01304  0.18049  1.0000
  C   C16       1.0  0.78593  0.98696  0.81951  1.0000
  C   C17       1.0  0.04917  0.43704  0.33507  1.0000
  C   C18       1.0  0.95082  0.56297  0.66493  1.0000
  C   C19       1.0  0.94942  0.57850  0.31029  1.0000
  C   C20       1.0  0.05056  0.42151  0.68971  1.0000
  C   C21       1.0  0.77905  0.63758  0.37200  1.0000
  C   C22       1.0  0.22094  0.36244  0.62799  1.0000
  C   C23       1.0  0.71097  0.55325  0.45839  1.0000
  C   C24       1.0  0.28902  0.44675  0.54160  1.0000
  C   C25       1.0  0.81173  0.41196  0.48356  1.0000
  C   C26       1.0  0.18828  0.58804  0.51643  1.0000
  C   C27       1.0  0.98175  0.35300  0.42224  1.0000
  C   C28       1.0  0.01826  0.64699  0.57775  1.0000
  C   C29       1.0  0.67488  0.78987  0.34784  1.0000
  C   C30       1.0  0.32510  0.21012  0.65217  1.0000
  C   C31       1.0  0.09516  0.20211  0.45094  1.0000
  C   C32       1.0  0.90483  0.79789  0.54906  1.0000
  N   N1        1.0  0.63025  0.21736  0.19891  1.0000
  N   N2        1.0  0.36975  0.78264  0.80109  1.0000
  N   N3        1.0  0.36570  0.07228  0.18616  1.0000
  N   N4        1.0  0.63430  0.92772  0.81384  1.0000
  N   N5        1.0  0.36392  0.17257  0.01496  1.0000
  N   N6        1.0  0.63608  0.82742  0.98504  1.0000
  N   N7        1.0  0.13758  0.02761  0.09610  1.0000
  N   N8        1.0  0.86242  0.97239  0.90390  1.0000
  N   N9        1.0  0.13970  0.93684  0.26248  1.0000
  N   N10       1.0  0.86029  0.06316  0.73752  1.0000
  N   N11       1.0  0.15475  0.11510  0.92893  1.0000
  N   N12       1.0  0.84526  0.88490  0.07107  1.0000
  O   O1        1.0  0.23608  0.15245  0.38577  1.0000
  O   O2        1.0  0.76391  0.84755  0.61422  1.0000
  O   O3        1.0  0.04851  0.13420  0.53531  1.0000
  O   O4        1.0  0.95149  0.86581  0.46468  1.0000
  O   O5        1.0  0.75381  0.87124  0.27695  1.0000
  O   O6        1.0  0.24617  0.12876  0.72305  1.0000
  O   O7        1.0  0.50748  0.83973  0.39742  1.0000
  O   O8        1.0  0.49253  0.16027  0.60257  1.0000
  O   O9        1.0  0.68237  0.10119  0.41932  1.0000
  O   O10       1.0  0.31762  0.89880  0.58069  1.0000
