data_image0
_chemical_formula_structural       Hg2H18C20N6O6
_chemical_formula_sum              "Hg2 H18 C20 N6 O6"
_cell_length_a       5.67278
_cell_length_b       8.15275
_cell_length_c       12.4034
_cell_angle_alpha    96.0411
_cell_angle_beta     89.9999
_cell_angle_gamma    89.9979

_space_group_name_H-M_alt    "P 1"
_space_group_IT_number       1

loop_
  _space_group_symop_operation_xyz
  'x, y, z'

loop_
  _atom_site_type_symbol
  _atom_site_label
  _atom_site_symmetry_multiplicity
  _atom_site_fract_x
  _atom_site_fract_y
  _atom_site_fract_z
  _atom_site_occupancy
  Hg  Hg1       1.0  0.71846  0.77539  0.52166  1.0000
  Hg  Hg2       1.0  0.21846  0.22460  0.47834  1.0000
  H   H1        1.0  0.12399  0.57598  0.18686  1.0000
  H   H2        1.0  0.62393  0.42404  0.81315  1.0000
  H   H3        1.0  0.98564  0.63549  0.00436  1.0000
  H   H4        1.0  0.48560  0.36452  0.99564  1.0000
  H   H5        1.0  0.36949  0.87730  0.14742  1.0000
  H   H6        1.0  0.86948  0.12269  0.85257  1.0000
  H   H7        1.0  0.50362  0.81780  0.33006  1.0000
  H   H8        1.0  0.00361  0.18220  0.66993  1.0000
  H   H9        1.0  0.61742  0.87576  0.72670  1.0000
  H   H10       1.0  0.11746  0.12423  0.27330  1.0000
  H   H11       1.0  0.55198  0.03193  0.63502  1.0000
  H   H12       1.0  0.05202  0.96808  0.36498  1.0000
  H   H13       1.0  0.09177  0.77857  0.77626  1.0000
  H   H14       1.0  0.59178  0.22144  0.22374  1.0000
  H   H15       1.0  0.35314  0.66255  0.75079  1.0000
  H   H16       1.0  0.85314  0.33746  0.24920  1.0000
  H   H17       1.0  0.09789  0.62353  0.66493  1.0000
  H   H18       1.0  0.59789  0.37648  0.33506  1.0000
  C   C1        1.0  0.10410  0.60350  0.39256  1.0000
  C   C2        1.0  0.60409  0.39651  0.60744  1.0000
  C   C3        1.0  0.82465  0.69584  0.27153  1.0000
  C   C4        1.0  0.32460  0.30418  0.72848  1.0000
  C   C5        1.0  0.95878  0.64186  0.17836  1.0000
  C   C6        1.0  0.45873  0.35815  0.82165  1.0000
  C   C7        1.0  0.88220  0.67351  0.07652  1.0000
  C   C8        1.0  0.38215  0.32650  0.92348  1.0000
  C   C9        1.0  0.67080  0.75935  0.06642  1.0000
  C   C10       1.0  0.17076  0.24064  0.93358  1.0000
  C   C11       1.0  0.53311  0.81086  0.15743  1.0000
  C   C12       1.0  0.03309  0.18913  0.84256  1.0000
  C   C13       1.0  0.60875  0.77745  0.25879  1.0000
  C   C14       1.0  0.10873  0.22257  0.74121  1.0000
  C   C15       1.0  0.53098  0.90382  0.65201  1.0000
  C   C16       1.0  0.03102  0.09619  0.34800  1.0000
  C   C17       1.0  0.28448  0.84707  0.64218  1.0000
  C   C18       1.0  0.78449  0.15292  0.35782  1.0000
  C   C19       1.0  0.20469  0.71807  0.71170  1.0000
  C   C20       1.0  0.70470  0.28194  0.28829  1.0000
  N   N1        1.0  0.28442  0.54322  0.41519  1.0000
  N   N2        1.0  0.78438  0.45680  0.58484  1.0000
  N   N3        1.0  0.90167  0.67363  0.37559  1.0000
  N   N4        1.0  0.40164  0.32637  0.62442  1.0000
  N   N5        1.0  0.59465  0.79739  0.96084  1.0000
  N   N6        1.0  0.09466  0.20257  0.03915  1.0000
  O   O1        1.0  0.71687  0.74526  0.88019  1.0000
  O   O2        1.0  0.21685  0.25469  0.11980  1.0000
  O   O3        1.0  0.41106  0.87977  0.95398  1.0000
  O   O4        1.0  0.91105  0.12020  0.04600  1.0000
  O   O5        1.0  0.14492  0.90590  0.57823  1.0000
  O   O6        1.0  0.64496  0.09409  0.42176  1.0000
