data_image0
_chemical_formula_structural       Cu4H40C28Br4N8
_chemical_formula_sum              "Cu4 H40 C28 Br4 N8"
_cell_length_a       7.88121
_cell_length_b       7.75567
_cell_length_c       15.2568
_cell_angle_alpha    90.0001
_cell_angle_beta     90.0003
_cell_angle_gamma    100.435

_space_group_name_H-M_alt    "P 1"
_space_group_IT_number       1

loop_
  _space_group_symop_operation_xyz
  'x, y, z'

loop_
  _atom_site_type_symbol
  _atom_site_label
  _atom_site_symmetry_multiplicity
  _atom_site_fract_x
  _atom_site_fract_y
  _atom_site_fract_z
  _atom_site_occupancy
  Cu  Cu1       1.0  0.94140  0.80623  0.95258  1.0000
  Cu  Cu2       1.0  0.05860  0.69376  0.45258  1.0000
  Cu  Cu3       1.0  0.05860  0.19376  0.04743  1.0000
  Cu  Cu4       1.0  0.94139  0.30624  0.54742  1.0000
  H   H1        1.0  0.00338  0.79297  0.78823  1.0000
  H   H2        1.0  0.99662  0.70704  0.28824  1.0000
  H   H3        1.0  0.99663  0.20705  0.21177  1.0000
  H   H4        1.0  0.00338  0.29298  0.71177  1.0000
  H   H5        1.0  0.97481  0.56968  0.83629  1.0000
  H   H6        1.0  0.02519  0.93032  0.33630  1.0000
  H   H7        1.0  0.02519  0.43033  0.16370  1.0000
  H   H8        1.0  0.97481  0.06969  0.66371  1.0000
  H   H9        1.0  0.24455  0.89592  0.89130  1.0000
  H   H10       1.0  0.75545  0.60408  0.39130  1.0000
  H   H11       1.0  0.75546  0.10409  0.10871  1.0000
  H   H12       1.0  0.24455  0.39592  0.60870  1.0000
  H   H13       1.0  0.28889  0.69289  0.01700  1.0000
  H   H14       1.0  0.71111  0.80710  0.51701  1.0000
  H   H15       1.0  0.71110  0.30709  0.98300  1.0000
  H   H16       1.0  0.28888  0.19289  0.48300  1.0000
  H   H17       1.0  0.15601  0.51454  0.96351  1.0000
  H   H18       1.0  0.84399  0.98545  0.46352  1.0000
  H   H19       1.0  0.84398  0.48545  0.03648  1.0000
  H   H20       1.0  0.15600  0.01454  0.53649  1.0000
  H   H21       1.0  0.24445  0.39689  0.83616  1.0000
  H   H22       1.0  0.75556  0.10311  0.33617  1.0000
  H   H23       1.0  0.75556  0.60309  0.16384  1.0000
  H   H24       1.0  0.24444  0.89688  0.66384  1.0000
  H   H25       1.0  0.37650  0.55952  0.76998  1.0000
  H   H26       1.0  0.62350  0.94048  0.26999  1.0000
  H   H27       1.0  0.62348  0.44047  0.23002  1.0000
  H   H28       1.0  0.37650  0.05951  0.73002  1.0000
  H   H29       1.0  0.49807  0.26126  0.87480  1.0000
  H   H30       1.0  0.50194  0.23874  0.37481  1.0000
  H   H31       1.0  0.50196  0.73875  0.12520  1.0000
  H   H32       1.0  0.49806  0.76125  0.62520  1.0000
  H   H33       1.0  0.72880  0.29465  0.76534  1.0000
  H   H34       1.0  0.27120  0.20535  0.26535  1.0000
  H   H35       1.0  0.27122  0.70537  0.23465  1.0000
  H   H36       1.0  0.72881  0.79466  0.73465  1.0000
  H   H37       1.0  0.64756  0.48061  0.71383  1.0000
  H   H38       1.0  0.35244  0.01940  0.21384  1.0000
  H   H39       1.0  0.35244  0.51941  0.28615  1.0000
  H   H40       1.0  0.64756  0.98061  0.78616  1.0000
  C   C1        1.0  0.55531  0.67343  0.92638  1.0000
  C   C2        1.0  0.44471  0.82657  0.42638  1.0000
  C   C3        1.0  0.44469  0.32656  0.07362  1.0000
  C   C4        1.0  0.55529  0.17342  0.57362  1.0000
  C   C5        1.0  0.03357  0.70834  0.84077  1.0000
  C   C6        1.0  0.96642  0.79166  0.34078  1.0000
  C   C7        1.0  0.96644  0.29167  0.15923  1.0000
  C   C8        1.0  0.03357  0.20834  0.65923  1.0000
  C   C9        1.0  0.16848  0.76383  0.89827  1.0000
  C   C10       1.0  0.83152  0.73617  0.39827  1.0000
  C   C11       1.0  0.83153  0.23617  0.10173  1.0000
  C   C12       1.0  0.16847  0.26383  0.60173  1.0000
  C   C13       1.0  0.24785  0.63747  0.95272  1.0000
  C   C14       1.0  0.75215  0.86252  0.45272  1.0000
  C   C15       1.0  0.75215  0.36251  0.04728  1.0000
  C   C16       1.0  0.24784  0.13747  0.54728  1.0000
  C   C17       1.0  0.37397  0.47721  0.82882  1.0000
  C   C18       1.0  0.62603  0.02279  0.32883  1.0000
  C   C19       1.0  0.62602  0.52278  0.17118  1.0000
  C   C20       1.0  0.37397  0.97720  0.67118  1.0000
  C   C21       1.0  0.50738  0.36282  0.82430  1.0000
  C   C22       1.0  0.49263  0.13719  0.32431  1.0000
  C   C23       1.0  0.49264  0.63719  0.17568  1.0000
  C   C24       1.0  0.50738  0.86281  0.67569  1.0000
  C   C25       1.0  0.63375  0.38064  0.76495  1.0000
  C   C26       1.0  0.36625  0.11937  0.26496  1.0000
  C   C27       1.0  0.36625  0.61938  0.23505  1.0000
  C   C28       1.0  0.63375  0.88063  0.73504  1.0000
  Br  Br1       1.0  0.02172  0.84567  0.10501  1.0000
  Br  Br2       1.0  0.97829  0.65431  0.60502  1.0000
  Br  Br3       1.0  0.97829  0.15432  0.89499  1.0000
  Br  Br4       1.0  0.02170  0.34568  0.39498  1.0000
  N   N1        1.0  0.69741  0.74246  0.94194  1.0000
  N   N2        1.0  0.30257  0.75753  0.44194  1.0000
  N   N3        1.0  0.30258  0.25753  0.05806  1.0000
  N   N4        1.0  0.69742  0.24247  0.55806  1.0000
  N   N5        1.0  0.39986  0.58919  0.90851  1.0000
  N   N6        1.0  0.60014  0.91080  0.40852  1.0000
  N   N7        1.0  0.60014  0.41080  0.09148  1.0000
  N   N8        1.0  0.39985  0.08919  0.59149  1.0000
