data_image0
_chemical_formula_structural       Co2H26C36N4O12
_chemical_formula_sum              "Co2 H26 C36 N4 O12"
_cell_length_a       8.84686
_cell_length_b       9.77845
_cell_length_c       10.3547
_cell_angle_alpha    93.1983
_cell_angle_beta     106.314
_cell_angle_gamma    108.818

_space_group_name_H-M_alt    "P 1"
_space_group_IT_number       1

loop_
  _space_group_symop_operation_xyz
  'x, y, z'

loop_
  _atom_site_type_symbol
  _atom_site_label
  _atom_site_symmetry_multiplicity
  _atom_site_fract_x
  _atom_site_fract_y
  _atom_site_fract_z
  _atom_site_occupancy
  Co  Co1       1.0  0.17550  0.39239  0.64094  1.0000
  Co  Co2       1.0  0.82451  0.60761  0.35906  1.0000
  H   H1        1.0  0.33010  0.00293  0.76947  1.0000
  H   H2        1.0  0.66990  0.99708  0.23053  1.0000
  H   H3        1.0  0.61484  0.00966  0.89752  1.0000
  H   H4        1.0  0.38515  0.99034  0.10248  1.0000
  H   H5        1.0  0.80573  0.46568  0.97787  1.0000
  H   H6        1.0  0.19427  0.53432  0.02213  1.0000
  H   H7        1.0  0.52724  0.47993  0.85004  1.0000
  H   H8        1.0  0.47277  0.52007  0.14996  1.0000
  H   H9        1.0  0.90957  0.14454  0.82717  1.0000
  H   H10       1.0  0.09043  0.85545  0.17283  1.0000
  H   H11       1.0  0.19175  0.13576  0.94506  1.0000
  H   H12       1.0  0.80825  0.86424  0.05495  1.0000
  H   H13       1.0  0.32276  0.22473  0.19665  1.0000
  H   H14       1.0  0.67724  0.77527  0.80335  1.0000
  H   H15       1.0  0.99315  0.06126  0.59009  1.0000
  H   H16       1.0  0.00685  0.93874  0.40990  1.0000
  H   H17       1.0  0.70120  0.88322  0.51352  1.0000
  H   H18       1.0  0.29880  0.11678  0.48647  1.0000
  H   H19       1.0  0.53551  0.25186  0.54727  1.0000
  H   H20       1.0  0.46449  0.74815  0.45273  1.0000
  H   H21       1.0  0.83413  0.41097  0.62136  1.0000
  H   H22       1.0  0.16587  0.58904  0.37864  1.0000
  H   H23       1.0  0.48257  0.59162  0.63165  1.0000
  H   H24       1.0  0.51742  0.40839  0.36836  1.0000
  H   H25       1.0  0.36475  0.65646  0.69917  1.0000
  H   H26       1.0  0.63525  0.34354  0.30083  1.0000
  C   C1        1.0  0.40101  0.24281  0.79558  1.0000
  C   C2        1.0  0.59899  0.75719  0.20442  1.0000
  C   C3        1.0  0.43075  0.10834  0.81294  1.0000
  C   C4        1.0  0.56924  0.89166  0.18706  1.0000
  C   C5        1.0  0.58743  0.10951  0.88277  1.0000
  C   C6        1.0  0.41256  0.89049  0.11723  1.0000
  C   C7        1.0  0.69552  0.36833  0.92863  1.0000
  C   C8        1.0  0.30448  0.63167  0.07137  1.0000
  C   C9        1.0  0.54174  0.37425  0.85986  1.0000
  C   C10       1.0  0.45827  0.62575  0.14014  1.0000
  C   C11       1.0  0.88389  0.23415  0.01111  1.0000
  C   C12       1.0  0.11611  0.76584  0.98890  1.0000
  C   C13       1.0  0.96773  0.18124  0.93647  1.0000
  C   C14       1.0  0.03227  0.81875  0.06354  1.0000
  C   C15       1.0  0.12633  0.17736  0.00330  1.0000
  C   C16       1.0  0.87367  0.82264  0.99671  1.0000
  C   C17       1.0  0.19900  0.22721  0.14288  1.0000
  C   C18       1.0  0.80100  0.77279  0.85712  1.0000
  C   C19       1.0  0.11520  0.28086  0.21840  1.0000
  C   C20       1.0  0.88480  0.71914  0.78160  1.0000
  C   C21       1.0  0.95368  0.28358  0.15206  1.0000
  C   C22       1.0  0.04632  0.71642  0.84794  1.0000
  C   C23       1.0  0.85183  0.33822  0.22384  1.0000
  C   C24       1.0  0.14817  0.66178  0.77616  1.0000
  C   C25       1.0  0.19751  0.32778  0.37025  1.0000
  C   C26       1.0  0.80249  0.67223  0.62976  1.0000
  C   C27       1.0  0.88679  0.09796  0.57802  1.0000
  C   C28       1.0  0.11321  0.90204  0.42197  1.0000
  C   C29       1.0  0.72256  0.99920  0.53572  1.0000
  C   C30       1.0  0.27745  0.00080  0.46427  1.0000
  C   C31       1.0  0.58832  0.05028  0.52303  1.0000
  C   C32       1.0  0.41169  0.94972  0.47697  1.0000
  C   C33       1.0  0.63087  0.20200  0.55580  1.0000
  C   C34       1.0  0.36913  0.79800  0.44420  1.0000
  C   C35       1.0  0.79853  0.29310  0.59693  1.0000
  C   C36       1.0  0.20147  0.70690  0.40307  1.0000
  N   N1        1.0  0.92629  0.24343  0.60885  1.0000
  N   N2        1.0  0.07371  0.75657  0.39115  1.0000
  N   N3        1.0  0.71973  0.23758  0.93976  1.0000
  N   N4        1.0  0.28027  0.76242  0.06024  1.0000
  O   O1        1.0  0.09842  0.33846  0.43706  1.0000
  O   O2        1.0  0.90158  0.66154  0.56294  1.0000
  O   O3        1.0  0.89703  0.47819  0.24681  1.0000
  O   O4        1.0  0.10297  0.52181  0.75318  1.0000
  O   O5        1.0  0.39163  0.56747  0.67530  1.0000
  O   O6        1.0  0.60837  0.43253  0.32470  1.0000
  O   O7        1.0  0.25334  0.23957  0.72645  1.0000
  O   O8        1.0  0.74666  0.76044  0.27355  1.0000
  O   O9        1.0  0.35157  0.34879  0.42372  1.0000
  O   O10       1.0  0.64843  0.65121  0.57628  1.0000
  O   O11       1.0  0.72717  0.24531  0.24358  1.0000
  O   O12       1.0  0.27284  0.75470  0.75642  1.0000
