data_image0
_chemical_formula_structural       Ag4H12C8N24O8
_chemical_formula_sum              "Ag4 H12 C8 N24 O8"
_cell_length_a       6.60165
_cell_length_b       8.43537
_cell_length_c       10.7486
_cell_angle_alpha    90
_cell_angle_beta     104.517
_cell_angle_gamma    90.0001

_space_group_name_H-M_alt    "P 1"
_space_group_IT_number       1

loop_
  _space_group_symop_operation_xyz
  'x, y, z'

loop_
  _atom_site_type_symbol
  _atom_site_label
  _atom_site_symmetry_multiplicity
  _atom_site_fract_x
  _atom_site_fract_y
  _atom_site_fract_z
  _atom_site_occupancy
  Ag  Ag1       1.0  0.21656  0.06061  0.53416  1.0000
  Ag  Ag2       1.0  0.28344  0.56061  0.46584  1.0000
  Ag  Ag3       1.0  0.78344  0.93939  0.46584  1.0000
  Ag  Ag4       1.0  0.71656  0.43939  0.53416  1.0000
  H   H1        1.0  0.25593  0.03832  0.00277  1.0000
  H   H2        1.0  0.24407  0.53832  0.99723  1.0000
  H   H3        1.0  0.74407  0.96168  0.99723  1.0000
  H   H4        1.0  0.75593  0.46168  0.00277  1.0000
  H   H5        1.0  0.11420  0.85727  0.96037  1.0000
  H   H6        1.0  0.38580  0.35727  0.03963  1.0000
  H   H7        1.0  0.88580  0.14273  0.03963  1.0000
  H   H8        1.0  0.61420  0.64273  0.96037  1.0000
  H   H9        1.0  0.39371  0.85549  0.00658  1.0000
  H   H10       1.0  0.10629  0.35549  0.99342  1.0000
  H   H11       1.0  0.60629  0.14450  0.99342  1.0000
  H   H12       1.0  0.89371  0.64450  0.00658  1.0000
  C   C1        1.0  0.24142  0.00756  0.24464  1.0000
  C   C2        1.0  0.25858  0.50756  0.75536  1.0000
  C   C3        1.0  0.75858  0.99244  0.75536  1.0000
  C   C4        1.0  0.74142  0.49244  0.24464  1.0000
  C   C5        1.0  0.25371  0.91161  0.02323  1.0000
  C   C6        1.0  0.24629  0.41161  0.97677  1.0000
  C   C7        1.0  0.74629  0.08839  0.97677  1.0000
  C   C8        1.0  0.75371  0.58838  0.02323  1.0000
  N   N1        1.0  0.25552  0.93275  0.35765  1.0000
  N   N2        1.0  0.24448  0.43275  0.64235  1.0000
  N   N3        1.0  0.74448  0.06725  0.64235  1.0000
  N   N4        1.0  0.75552  0.56725  0.35765  1.0000
  N   N5        1.0  0.25207  0.89320  0.15715  1.0000
  N   N6        1.0  0.24793  0.39320  0.84285  1.0000
  N   N7        1.0  0.74793  0.10680  0.84285  1.0000
  N   N8        1.0  0.75207  0.60680  0.15715  1.0000
  N   N9        1.0  0.19853  0.15869  0.20354  1.0000
  N   N10       1.0  0.30147  0.65869  0.79646  1.0000
  N   N11       1.0  0.80147  0.84131  0.79646  1.0000
  N   N12       1.0  0.69853  0.34131  0.20354  1.0000
  N   N13       1.0  0.27076  0.77548  0.33344  1.0000
  N   N14       1.0  0.22923  0.27548  0.66656  1.0000
  N   N15       1.0  0.72923  0.22453  0.66656  1.0000
  N   N16       1.0  0.77076  0.72453  0.33344  1.0000
  N   N17       1.0  0.26425  0.27418  0.28722  1.0000
  N   N18       1.0  0.23576  0.77418  0.71278  1.0000
  N   N19       1.0  0.73576  0.72582  0.71278  1.0000
  N   N20       1.0  0.76425  0.22582  0.28723  1.0000
  N   N21       1.0  0.26990  0.75043  0.21392  1.0000
  N   N22       1.0  0.23010  0.25043  0.78608  1.0000
  N   N23       1.0  0.73010  0.24957  0.78608  1.0000
  N   N24       1.0  0.76990  0.74957  0.21392  1.0000
  O   O1        1.0  0.19988  0.41222  0.25228  1.0000
  O   O2        1.0  0.30013  0.91222  0.74772  1.0000
  O   O3        1.0  0.80013  0.58778  0.74772  1.0000
  O   O4        1.0  0.69988  0.08778  0.25228  1.0000
  O   O5        1.0  0.38877  0.25034  0.39695  1.0000
  O   O6        1.0  0.11123  0.75034  0.60305  1.0000
  O   O7        1.0  0.61123  0.74966  0.60305  1.0000
  O   O8        1.0  0.88877  0.24967  0.39695  1.0000
