data_image0
_chemical_formula_structural       U2H16C20N8O20
_chemical_formula_sum              "U2 H16 C20 N8 O20"
_cell_length_a       8.56361
_cell_length_b       8.92007
_cell_length_c       13.1467
_cell_angle_alpha    86.9256
_cell_angle_beta     70.9697
_cell_angle_gamma    61.3123

_space_group_name_H-M_alt    "P 1"
_space_group_IT_number       1

loop_
  _space_group_symop_operation_xyz
  'x, y, z'

loop_
  _atom_site_type_symbol
  _atom_site_label
  _atom_site_symmetry_multiplicity
  _atom_site_fract_x
  _atom_site_fract_y
  _atom_site_fract_z
  _atom_site_occupancy
  U   U1        1.0  0.50000  0.50000  0.00001  1.0000
  U   U2        1.0  0.50000  1.00000  0.49999  1.0000
  H   H1        1.0  0.85694  0.29133  0.66939  1.0000
  H   H2        1.0  0.31749  0.20866  0.83010  1.0000
  H   H3        1.0  0.14304  0.70869  0.33063  1.0000
  H   H4        1.0  0.68248  0.79139  0.16989  1.0000
  H   H5        1.0  0.82207  0.36618  0.49165  1.0000
  H   H6        1.0  0.18042  0.13338  0.00807  1.0000
  H   H7        1.0  0.17794  0.63381  0.50837  1.0000
  H   H8        1.0  0.81951  0.86669  0.99193  1.0000
  H   H9        1.0  0.21509  0.57295  0.65043  1.0000
  H   H10       1.0  0.93825  0.92681  0.84981  1.0000
  H   H11       1.0  0.78492  0.42704  0.34959  1.0000
  H   H12       1.0  0.06181  0.07313  0.15015  1.0000
  H   H13       1.0  0.27848  0.48575  0.82025  1.0000
  H   H14       1.0  0.08421  0.01389  0.67980  1.0000
  H   H15       1.0  0.72152  0.51424  0.17977  1.0000
  H   H16       1.0  0.91587  0.98606  0.32017  1.0000
  C   C1        1.0  0.72037  0.35240  0.65843  1.0000
  C   C2        1.0  0.23052  0.14799  0.84149  1.0000
  C   C3        1.0  0.27962  0.64761  0.34159  1.0000
  C   C4        1.0  0.76945  0.85204  0.15850  1.0000
  C   C5        1.0  0.69500  0.39760  0.56085  1.0000
  C   C6        1.0  0.15331  0.10244  0.93905  1.0000
  C   C7        1.0  0.30501  0.60240  0.43917  1.0000
  C   C8        1.0  0.84666  0.89759  0.06094  1.0000
  C   C9        1.0  0.51380  0.47707  0.55208  1.0000
  C   C10       1.0  0.04288  0.02291  0.94788  1.0000
  C   C11       1.0  0.48619  0.52294  0.44794  1.0000
  C   C12       1.0  0.95712  0.97709  0.05210  1.0000
  C   C13       1.0  0.36118  0.51057  0.64791  1.0000
  C   C14       1.0  0.01946  0.98924  0.85221  1.0000
  C   C15       1.0  0.63882  0.48942  0.35210  1.0000
  C   C16       1.0  0.98058  0.01073  0.14776  1.0000
  C   C17       1.0  0.39121  0.46337  0.74424  1.0000
  C   C18       1.0  0.09867  0.03629  0.75576  1.0000
  C   C19       1.0  0.60880  0.53662  0.25577  1.0000
  C   C20       1.0  0.90137  0.96368  0.24422  1.0000
  N   N1        1.0  0.82503  0.57207  0.90078  1.0000
  N   N2        1.0  0.79705  0.92800  0.59990  1.0000
  N   N3        1.0  0.17495  0.42794  0.09924  1.0000
  N   N4        1.0  0.20295  0.07200  0.40008  1.0000
  N   N5        1.0  0.56932  0.38286  0.74824  1.0000
  N   N6        1.0  0.19999  0.11703  0.75178  1.0000
  N   N7        1.0  0.43068  0.61714  0.25178  1.0000
  N   N8        1.0  0.80002  0.88296  0.24820  1.0000
  O   O1        1.0  0.36284  0.67740  0.93746  1.0000
  O   O2        1.0  0.47713  0.82262  0.56236  1.0000
  O   O3        1.0  0.63715  0.32260  0.06256  1.0000
  O   O4        1.0  0.52288  0.17738  0.43761  1.0000
  O   O5        1.0  0.80756  0.46021  0.85506  1.0000
  O   O6        1.0  0.62192  0.03957  0.64569  1.0000
  O   O7        1.0  0.19244  0.53976  0.14497  1.0000
  O   O8        1.0  0.37809  0.96044  0.35429  1.0000
  O   O9        1.0  0.69726  0.64666  0.99414  1.0000
  O   O10       1.0  0.83770  0.85375  0.50636  1.0000
  O   O11       1.0  0.30270  0.35337  0.00587  1.0000
  O   O12       1.0  0.16231  0.14624  0.49363  1.0000
  O   O13       1.0  0.95398  0.60610  0.85879  1.0000
  O   O14       1.0  0.91793  0.89380  0.64201  1.0000
  O   O15       1.0  0.04599  0.39392  0.14122  1.0000
  O   O16       1.0  0.08207  0.10620  0.35799  1.0000
  O   O17       1.0  0.59838  0.32650  0.83976  1.0000
  O   O18       1.0  0.26508  0.17283  0.66030  1.0000
  O   O19       1.0  0.40161  0.67350  0.16026  1.0000
  O   O20       1.0  0.73494  0.82717  0.33968  1.0000
