data_image0
_chemical_formula_structural       Cu4H36C52I4N4O4
_chemical_formula_sum              "Cu4 H36 C52 I4 N4 O4"
_cell_length_a       7.16075
_cell_length_b       9.40083
_cell_length_c       17.3729
_cell_angle_alpha    89.9998
_cell_angle_beta     89.9981
_cell_angle_gamma    97.2473

_space_group_name_H-M_alt    "P 1"
_space_group_IT_number       1

loop_
  _space_group_symop_operation_xyz
  'x, y, z'

loop_
  _atom_site_type_symbol
  _atom_site_label
  _atom_site_symmetry_multiplicity
  _atom_site_fract_x
  _atom_site_fract_y
  _atom_site_fract_z
  _atom_site_occupancy
  Cu  Cu1       1.0  0.75612  0.26811  0.21335  1.0000
  Cu  Cu2       1.0  0.74388  0.73189  0.71335  1.0000
  Cu  Cu3       1.0  0.24387  0.73189  0.78665  1.0000
  Cu  Cu4       1.0  0.25611  0.26812  0.28665  1.0000
  H   H1        1.0  0.69552  0.06628  0.34429  1.0000
  H   H2        1.0  0.80449  0.93372  0.84430  1.0000
  H   H3        1.0  0.30448  0.93372  0.65571  1.0000
  H   H4        1.0  0.19551  0.06629  0.15570  1.0000
  H   H5        1.0  0.75540  0.81387  0.37069  1.0000
  H   H6        1.0  0.74462  0.18613  0.87070  1.0000
  H   H7        1.0  0.24462  0.18613  0.62931  1.0000
  H   H8        1.0  0.25537  0.81388  0.12930  1.0000
  H   H9        1.0  0.81860  0.65680  0.25856  1.0000
  H   H10       1.0  0.68142  0.34321  0.75857  1.0000
  H   H11       1.0  0.18142  0.34321  0.74144  1.0000
  H   H12       1.0  0.31857  0.65679  0.24143  1.0000
  H   H13       1.0  0.83974  0.62631  0.11803  1.0000
  H   H14       1.0  0.66027  0.37369  0.61804  1.0000
  H   H15       1.0  0.16026  0.37368  0.88197  1.0000
  H   H16       1.0  0.33972  0.62631  0.38196  1.0000
  H   H17       1.0  0.82668  0.72961  0.98552  1.0000
  H   H18       1.0  0.67332  0.27040  0.48552  1.0000
  H   H19       1.0  0.17332  0.27039  0.01449  1.0000
  H   H20       1.0  0.32667  0.72960  0.51448  1.0000
  H   H21       1.0  0.75153  0.97730  0.96822  1.0000
  H   H22       1.0  0.74849  0.02271  0.46822  1.0000
  H   H23       1.0  0.24847  0.02270  0.03178  1.0000
  H   H24       1.0  0.25152  0.97730  0.53178  1.0000
  H   H25       1.0  0.45620  0.22325  0.15028  1.0000
  H   H26       1.0  0.04380  0.77674  0.65028  1.0000
  H   H27       1.0  0.54379  0.77673  0.84972  1.0000
  H   H28       1.0  0.95620  0.22326  0.34973  1.0000
  H   H29       1.0  0.51841  0.47942  0.07660  1.0000
  H   H30       1.0  0.98158  0.52057  0.57661  1.0000
  H   H31       1.0  0.48157  0.52057  0.92340  1.0000
  H   H32       1.0  0.01842  0.47943  0.42340  1.0000
  H   H33       1.0  0.78676  0.44182  0.96565  1.0000
  H   H34       1.0  0.71326  0.55818  0.46566  1.0000
  H   H35       1.0  0.21323  0.55817  0.03435  1.0000
  H   H36       1.0  0.28676  0.44182  0.53434  1.0000
  C   C1        1.0  0.72064  0.99421  0.29712  1.0000
  C   C2        1.0  0.77937  0.00578  0.79713  1.0000
  C   C3        1.0  0.27936  0.00579  0.70288  1.0000
  C   C4        1.0  0.22063  0.99422  0.20287  1.0000
  C   C5        1.0  0.75450  0.85248  0.31162  1.0000
  C   C6        1.0  0.74552  0.14751  0.81163  1.0000
  C   C7        1.0  0.24552  0.14752  0.68838  1.0000
  C   C8        1.0  0.25447  0.85249  0.18837  1.0000
  C   C9        1.0  0.78741  0.76636  0.25025  1.0000
  C   C10       1.0  0.71260  0.23364  0.75026  1.0000
  C   C11       1.0  0.21260  0.23364  0.74975  1.0000
  C   C12       1.0  0.28740  0.76637  0.24974  1.0000
  C   C13       1.0  0.77773  0.82005  0.17436  1.0000
  C   C14       1.0  0.72228  0.17994  0.67437  1.0000
  C   C15       1.0  0.22227  0.17994  0.82564  1.0000
  C   C16       1.0  0.27771  0.82006  0.32563  1.0000
  C   C17       1.0  0.80886  0.73587  0.10904  1.0000
  C   C18       1.0  0.69115  0.26412  0.60905  1.0000
  C   C19       1.0  0.19114  0.26412  0.89096  1.0000
  C   C20       1.0  0.30884  0.73588  0.39094  1.0000
  C   C21       1.0  0.80103  0.79275  0.03615  1.0000
  C   C22       1.0  0.69898  0.20725  0.53616  1.0000
  C   C23       1.0  0.19897  0.20724  0.96385  1.0000
  C   C24       1.0  0.30102  0.79275  0.46384  1.0000
  C   C25       1.0  0.76012  0.93411  0.02606  1.0000
  C   C26       1.0  0.73990  0.06589  0.52606  1.0000
  C   C27       1.0  0.23988  0.06588  0.97394  1.0000
  C   C28       1.0  0.26011  0.93412  0.47394  1.0000
  C   C29       1.0  0.72744  0.02092  0.08826  1.0000
  C   C30       1.0  0.77258  0.97909  0.58827  1.0000
  C   C31       1.0  0.27256  0.97908  0.91174  1.0000
  C   C32       1.0  0.22743  0.02091  0.41173  1.0000
  C   C33       1.0  0.73905  0.96458  0.16449  1.0000
  C   C34       1.0  0.76097  0.03541  0.66450  1.0000
  C   C35       1.0  0.26095  0.03541  0.83551  1.0000
  C   C36       1.0  0.23903  0.96459  0.33551  1.0000
  C   C37       1.0  0.68655  0.16665  0.07522  1.0000
  C   C38       1.0  0.81346  0.83335  0.57522  1.0000
  C   C39       1.0  0.31345  0.83334  0.92478  1.0000
  C   C40       1.0  0.18654  0.16665  0.42478  1.0000
  C   C41       1.0  0.56716  0.25486  0.10879  1.0000
  C   C42       1.0  0.93284  0.74514  0.60879  1.0000
  C   C43       1.0  0.43283  0.74513  0.89121  1.0000
  C   C44       1.0  0.06716  0.25487  0.39122  1.0000
  C   C45       1.0  0.58992  0.38646  0.06604  1.0000
  C   C46       1.0  0.91008  0.61353  0.56605  1.0000
  C   C47       1.0  0.41006  0.61352  0.93396  1.0000
  C   C48       1.0  0.08993  0.38647  0.43396  1.0000
  C   C49       1.0  0.72066  0.37227  0.01049  1.0000
  C   C50       1.0  0.77936  0.62773  0.51049  1.0000
  C   C51       1.0  0.27934  0.62773  0.98951  1.0000
  C   C52       1.0  0.22066  0.37227  0.48951  1.0000
  I   I1        1.0  0.08695  0.38971  0.17876  1.0000
  I   I2        1.0  0.41304  0.61030  0.67876  1.0000
  I   I3        1.0  0.91304  0.61029  0.82123  1.0000
  I   I4        1.0  0.58695  0.38972  0.32123  1.0000
  N   N1        1.0  0.71850  0.05095  0.22687  1.0000
  N   N2        1.0  0.78151  0.94905  0.72687  1.0000
  N   N3        1.0  0.28150  0.94905  0.77313  1.0000
  N   N4        1.0  0.21849  0.05096  0.27313  1.0000
  O   O1        1.0  0.77959  0.23879  0.01458  1.0000
  O   O2        1.0  0.72043  0.76123  0.51459  1.0000
  O   O3        1.0  0.22041  0.76121  0.98542  1.0000
  O   O4        1.0  0.27958  0.23878  0.48541  1.0000
