data_image0
_chemical_formula_structural       Cd4H32C56N8O36
_chemical_formula_sum              "Cd4 H32 C56 N8 O36"
_cell_length_a       6.88117
_cell_length_b       11.2608
_cell_length_c       17.934
_cell_angle_alpha    89.9998
_cell_angle_beta     90.0002
_cell_angle_gamma    90.0001

_space_group_name_H-M_alt    "P 1"
_space_group_IT_number       1

loop_
  _space_group_symop_operation_xyz
  'x, y, z'

loop_
  _atom_site_type_symbol
  _atom_site_label
  _atom_site_symmetry_multiplicity
  _atom_site_fract_x
  _atom_site_fract_y
  _atom_site_fract_z
  _atom_site_occupancy
  Cd  Cd1       1.0  0.67872  0.18391  0.59039  1.0000
  Cd  Cd2       1.0  0.32128  0.81609  0.09039  1.0000
  Cd  Cd3       1.0  0.17872  0.81609  0.59039  1.0000
  Cd  Cd4       1.0  0.82128  0.18391  0.09039  1.0000
  H   H1        1.0  0.32873  0.25648  0.51780  1.0000
  H   H2        1.0  0.67127  0.74352  0.01780  1.0000
  H   H3        1.0  0.82873  0.74352  0.51780  1.0000
  H   H4        1.0  0.17127  0.25648  0.01780  1.0000
  H   H5        1.0  0.29298  0.12299  0.54110  1.0000
  H   H6        1.0  0.70702  0.87701  0.04110  1.0000
  H   H7        1.0  0.79298  0.87701  0.54110  1.0000
  H   H8        1.0  0.20702  0.12299  0.04110  1.0000
  H   H9        1.0  0.78780  0.33879  0.95151  1.0000
  H   H10       1.0  0.21220  0.66121  0.45151  1.0000
  H   H11       1.0  0.28780  0.66121  0.95151  1.0000
  H   H12       1.0  0.71220  0.33879  0.45151  1.0000
  H   H13       1.0  0.34978  0.43819  0.96882  1.0000
  H   H14       1.0  0.65022  0.56182  0.46882  1.0000
  H   H15       1.0  0.84977  0.56181  0.96882  1.0000
  H   H16       1.0  0.15023  0.43818  0.46882  1.0000
  H   H17       1.0  0.58217  0.83813  0.79008  1.0000
  H   H18       1.0  0.41783  0.16187  0.29008  1.0000
  H   H19       1.0  0.08216  0.16187  0.79008  1.0000
  H   H20       1.0  0.91783  0.83813  0.29008  1.0000
  H   H21       1.0  0.63935  0.96463  0.90301  1.0000
  H   H22       1.0  0.36065  0.03537  0.40300  1.0000
  H   H23       1.0  0.13935  0.03537  0.90301  1.0000
  H   H24       1.0  0.86065  0.96463  0.40301  1.0000
  H   H25       1.0  0.45914  0.58916  0.80961  1.0000
  H   H26       1.0  0.54086  0.41084  0.30961  1.0000
  H   H27       1.0  0.95914  0.41084  0.80961  1.0000
  H   H28       1.0  0.04086  0.58916  0.30961  1.0000
  H   H29       1.0  0.58507  0.63539  0.68012  1.0000
  H   H30       1.0  0.41494  0.36461  0.18012  1.0000
  H   H31       1.0  0.08506  0.36461  0.68012  1.0000
  H   H32       1.0  0.91493  0.63539  0.18012  1.0000
  C   C1        1.0  0.57605  0.92350  0.64449  1.0000
  C   C2        1.0  0.42395  0.07650  0.14449  1.0000
  C   C3        1.0  0.07605  0.07650  0.64449  1.0000
  C   C4        1.0  0.92395  0.92350  0.14449  1.0000
  C   C5        1.0  0.57662  0.99149  0.71708  1.0000
  C   C6        1.0  0.42338  0.00851  0.21708  1.0000
  C   C7        1.0  0.07661  0.00851  0.71708  1.0000
  C   C8        1.0  0.92338  0.99149  0.21708  1.0000
  C   C9        1.0  0.58658  0.93443  0.78594  1.0000
  C   C10       1.0  0.41342  0.06557  0.28593  1.0000
  C   C11       1.0  0.08657  0.06556  0.78594  1.0000
  C   C12       1.0  0.91343  0.93443  0.28594  1.0000
  C   C13       1.0  0.61729  0.00496  0.84832  1.0000
  C   C14       1.0  0.38271  0.99504  0.34832  1.0000
  C   C15       1.0  0.11729  0.99504  0.84832  1.0000
  C   C16       1.0  0.88271  0.00496  0.34832  1.0000
  C   C17       1.0  0.62615  0.12908  0.84187  1.0000
  C   C18       1.0  0.37385  0.87092  0.34186  1.0000
  C   C19       1.0  0.12615  0.87092  0.84186  1.0000
  C   C20       1.0  0.87385  0.12908  0.34187  1.0000
  C   C21       1.0  0.59223  0.18096  0.77091  1.0000
  C   C22       1.0  0.40777  0.81904  0.27090  1.0000
  C   C23       1.0  0.09223  0.81904  0.77090  1.0000
  C   C24       1.0  0.90778  0.18096  0.27091  1.0000
  C   C25       1.0  0.57588  0.31062  0.75122  1.0000
  C   C26       1.0  0.42411  0.68938  0.25122  1.0000
  C   C27       1.0  0.07589  0.68938  0.75122  1.0000
  C   C28       1.0  0.92411  0.31062  0.25123  1.0000
  C   C29       1.0  0.50093  0.40117  0.79745  1.0000
  C   C30       1.0  0.49907  0.59883  0.29746  1.0000
  C   C31       1.0  0.00093  0.59883  0.79746  1.0000
  C   C32       1.0  0.99907  0.40117  0.29746  1.0000
  C   C33       1.0  0.51136  0.51897  0.77287  1.0000
  C   C34       1.0  0.48864  0.48103  0.27287  1.0000
  C   C35       1.0  0.01136  0.48103  0.77287  1.0000
  C   C36       1.0  0.98864  0.51897  0.27287  1.0000
  C   C37       1.0  0.57992  0.54489  0.70170  1.0000
  C   C38       1.0  0.42008  0.45511  0.20170  1.0000
  C   C39       1.0  0.07992  0.45511  0.70169  1.0000
  C   C40       1.0  0.92008  0.54489  0.20169  1.0000
  C   C41       1.0  0.63314  0.44948  0.65649  1.0000
  C   C42       1.0  0.36686  0.55052  0.15649  1.0000
  C   C43       1.0  0.13314  0.55051  0.65649  1.0000
  C   C44       1.0  0.86686  0.44948  0.15649  1.0000
  C   C45       1.0  0.68587  0.46674  0.57524  1.0000
  C   C46       1.0  0.31413  0.53326  0.07524  1.0000
  C   C47       1.0  0.18588  0.53326  0.57524  1.0000
  C   C48       1.0  0.81412  0.46674  0.07524  1.0000
  C   C49       1.0  0.39454  0.37472  0.86830  1.0000
  C   C50       1.0  0.60546  0.62528  0.36830  1.0000
  C   C51       1.0  0.89455  0.62527  0.86830  1.0000
  C   C52       1.0  0.10545  0.37472  0.36830  1.0000
  C   C53       1.0  0.68465  0.19229  0.91166  1.0000
  C   C54       1.0  0.31535  0.80771  0.41166  1.0000
  C   C55       1.0  0.18465  0.80771  0.91166  1.0000
  C   C56       1.0  0.81535  0.19229  0.41166  1.0000
  N   N1        1.0  0.57612  0.10998  0.71106  1.0000
  N   N2        1.0  0.42387  0.89002  0.21105  1.0000
  N   N3        1.0  0.07613  0.89002  0.71105  1.0000
  N   N4        1.0  0.92387  0.10998  0.21105  1.0000
  N   N5        1.0  0.63449  0.33755  0.68185  1.0000
  N   N6        1.0  0.36551  0.66244  0.18184  1.0000
  N   N7        1.0  0.13450  0.66244  0.68185  1.0000
  N   N8        1.0  0.86550  0.33755  0.18185  1.0000
  O   O1        1.0  0.39303  0.17935  0.52144  1.0000
  O   O2        1.0  0.60698  0.82065  0.02144  1.0000
  O   O3        1.0  0.89302  0.82065  0.52144  1.0000
  O   O4        1.0  0.10698  0.17935  0.02144  1.0000
  O   O5        1.0  0.65790  0.97410  0.58901  1.0000
  O   O6        1.0  0.34211  0.02590  0.08900  1.0000
  O   O7        1.0  0.15791  0.02591  0.58900  1.0000
  O   O8        1.0  0.84210  0.97409  0.08901  1.0000
  O   O9        1.0  0.49918  0.82174  0.64434  1.0000
  O   O10       1.0  0.50082  0.17826  0.14434  1.0000
  O   O11       1.0  0.99918  0.17826  0.64434  1.0000
  O   O12       1.0  0.00082  0.82174  0.14434  1.0000
  O   O13       1.0  0.66140  0.14432  0.97315  1.0000
  O   O14       1.0  0.33859  0.85569  0.47315  1.0000
  O   O15       1.0  0.16141  0.85568  0.97315  1.0000
  O   O16       1.0  0.83860  0.14431  0.47315  1.0000
  O   O17       1.0  0.76695  0.29707  0.90112  1.0000
  O   O18       1.0  0.23305  0.70293  0.40112  1.0000
  O   O19       1.0  0.26695  0.70294  0.90112  1.0000
  O   O20       1.0  0.73305  0.29707  0.40112  1.0000
  O   O21       1.0  0.29162  0.28591  0.87552  1.0000
  O   O22       1.0  0.70837  0.71410  0.37553  1.0000
  O   O23       1.0  0.79161  0.71411  0.87553  1.0000
  O   O24       1.0  0.20839  0.28589  0.37553  1.0000
  O   O25       1.0  0.42011  0.45803  0.91913  1.0000
  O   O26       1.0  0.57989  0.54197  0.41913  1.0000
  O   O27       1.0  0.92011  0.54197  0.91913  1.0000
  O   O28       1.0  0.07989  0.45802  0.41913  1.0000
  O   O29       1.0  0.70629  0.57143  0.55124  1.0000
  O   O30       1.0  0.29372  0.42857  0.05124  1.0000
  O   O31       1.0  0.20631  0.42857  0.55124  1.0000
  O   O32       1.0  0.79369  0.57143  0.05124  1.0000
  O   O33       1.0  0.70014  0.37288  0.53564  1.0000
  O   O34       1.0  0.29986  0.62712  0.03564  1.0000
  O   O35       1.0  0.20014  0.62712  0.53564  1.0000
  O   O36       1.0  0.79986  0.37288  0.03564  1.0000
