data_image0
_chemical_formula_structural       Cu4H16C28N4O20
_chemical_formula_sum              "Cu4 H16 C28 N4 O20"
_cell_length_a       7.50681
_cell_length_b       10.6666
_cell_length_c       10.2361
_cell_angle_alpha    108.993
_cell_angle_beta     111.412
_cell_angle_gamma    89.9972

_space_group_name_H-M_alt    "P 1"
_space_group_IT_number       1

loop_
  _space_group_symop_operation_xyz
  'x, y, z'

loop_
  _atom_site_type_symbol
  _atom_site_label
  _atom_site_symmetry_multiplicity
  _atom_site_fract_x
  _atom_site_fract_y
  _atom_site_fract_z
  _atom_site_occupancy
  Cu  Cu1       1.0  0.73530  0.40508  0.26525  1.0000
  Cu  Cu2       1.0  0.47121  0.09485  0.73515  1.0000
  Cu  Cu3       1.0  0.26367  0.59491  0.73465  1.0000
  Cu  Cu4       1.0  0.52971  0.90513  0.26481  1.0000
  H   H1        1.0  0.78689  0.46216  0.73414  1.0000
  H   H2        1.0  0.05178  0.03754  0.26601  1.0000
  H   H3        1.0  0.21331  0.53787  0.26606  1.0000
  H   H4        1.0  0.94825  0.96245  0.73414  1.0000
  H   H5        1.0  0.70371  0.64619  0.92073  1.0000
  H   H6        1.0  0.78320  0.85340  0.07938  1.0000
  H   H7        1.0  0.29624  0.35377  0.07945  1.0000
  H   H8        1.0  0.21706  0.14656  0.92080  1.0000
  H   H9        1.0  0.77870  0.49670  0.53068  1.0000
  H   H10       1.0  0.24914  0.00344  0.46997  1.0000
  H   H11       1.0  0.21935  0.50330  0.46907  1.0000
  H   H12       1.0  0.75247  0.99657  0.52986  1.0000
  H   H13       1.0  0.57066  0.39274  0.43292  1.0000
  H   H14       1.0  0.13942  0.10773  0.56850  1.0000
  H   H15       1.0  0.42736  0.60729  0.56646  1.0000
  H   H16       1.0  0.86190  0.89240  0.43093  1.0000
  C   C1        1.0  0.80468  0.31312  0.98405  1.0000
  C   C2        1.0  0.82057  0.18652  0.01606  1.0000
  C   C3        1.0  0.19528  0.68679  0.01601  1.0000
  C   C4        1.0  0.17952  0.81339  0.98401  1.0000
  C   C5        1.0  0.80952  0.32551  0.85241  1.0000
  C   C6        1.0  0.95641  0.17417  0.14773  1.0000
  C   C7        1.0  0.19054  0.67447  0.14769  1.0000
  C   C8        1.0  0.04362  0.82580  0.85238  1.0000
  C   C9        1.0  0.78069  0.44914  0.83354  1.0000
  C   C10       1.0  0.94656  0.05054  0.16661  1.0000
  C   C11       1.0  0.21935  0.55085  0.16660  1.0000
  C   C12       1.0  0.05354  0.94945  0.83351  1.0000
  C   C13       1.0  0.73911  0.55238  0.93824  1.0000
  C   C14       1.0  0.80084  0.94722  0.06184  1.0000
  C   C15       1.0  0.26088  0.44755  0.06186  1.0000
  C   C16       1.0  0.19930  0.05270  0.93826  1.0000
  C   C17       1.0  0.73176  0.53160  0.06367  1.0000
  C   C18       1.0  0.66843  0.96799  0.93643  1.0000
  C   C19       1.0  0.26818  0.46825  0.93637  1.0000
  C   C20       1.0  0.33168  0.03186  0.06360  1.0000
  C   C21       1.0  0.83740  0.21146  0.72856  1.0000
  C   C22       1.0  0.10748  0.28825  0.27156  1.0000
  C   C23       1.0  0.16287  0.78870  0.27150  1.0000
  C   C24       1.0  0.89233  0.71188  0.72853  1.0000
  C   C25       1.0  0.67218  0.62915  0.17938  1.0000
  C   C26       1.0  0.49360  0.87049  0.82075  1.0000
  C   C27       1.0  0.32789  0.37077  0.82070  1.0000
  C   C28       1.0  0.50646  0.12942  0.17932  1.0000
  N   N1        1.0  0.76795  0.41498  0.08558  1.0000
  N   N2        1.0  0.68272  0.08467  0.91456  1.0000
  N   N3        1.0  0.23189  0.58487  0.91443  1.0000
  N   N4        1.0  0.31748  0.91519  0.08546  1.0000
  O   O1        1.0  0.69950  0.11309  0.65479  1.0000
  O   O2        1.0  0.04300  0.38660  0.34542  1.0000
  O   O3        1.0  0.30139  0.88662  0.34558  1.0000
  O   O4        1.0  0.95646  0.61316  0.65483  1.0000
  O   O5        1.0  0.98684  0.21983  0.70362  1.0000
  O   O6        1.0  0.28174  0.27997  0.29648  1.0000
  O   O7        1.0  0.01299  0.78086  0.29604  1.0000
  O   O8        1.0  0.71810  0.72060  0.70332  1.0000
  O   O9        1.0  0.68138  0.59646  0.29063  1.0000
  O   O10       1.0  0.39153  0.90359  0.70995  1.0000
  O   O11       1.0  0.31913  0.40365  0.70967  1.0000
  O   O12       1.0  0.60838  0.09651  0.29032  1.0000
  O   O13       1.0  0.60716  0.73107  0.15161  1.0000
  O   O14       1.0  0.45658  0.76815  0.84796  1.0000
  O   O15       1.0  0.39266  0.26872  0.84833  1.0000
  O   O16       1.0  0.54355  0.23163  0.15196  1.0000
  O   O17       1.0  0.70700  0.40894  0.44867  1.0000
  O   O18       1.0  0.25973  0.09126  0.55216  1.0000
  O   O19       1.0  0.29112  0.59119  0.55096  1.0000
  O   O20       1.0  0.74173  0.90889  0.44754  1.0000
