data_image0
_chemical_formula_structural       Hg8H64C40I16N16
_chemical_formula_sum              "Hg8 H64 C40 I16 N16"
_cell_length_a       8.45704
_cell_length_b       15.764
_cell_length_c       15.7176
_cell_angle_alpha    90
_cell_angle_beta     99.523
_cell_angle_gamma    89.9999

_space_group_name_H-M_alt    "P 1"
_space_group_IT_number       1

loop_
  _space_group_symop_operation_xyz
  'x, y, z'

loop_
  _atom_site_type_symbol
  _atom_site_label
  _atom_site_symmetry_multiplicity
  _atom_site_fract_x
  _atom_site_fract_y
  _atom_site_fract_z
  _atom_site_occupancy
  Hg  Hg1       1.0  0.89846  0.29707  0.55274  1.0000
  Hg  Hg2       1.0  0.10153  0.79707  0.94726  1.0000
  Hg  Hg3       1.0  0.10153  0.70293  0.44726  1.0000
  Hg  Hg4       1.0  0.89847  0.20293  0.05274  1.0000
  Hg  Hg5       1.0  0.50153  0.25845  0.78218  1.0000
  Hg  Hg6       1.0  0.49847  0.75845  0.71782  1.0000
  Hg  Hg7       1.0  0.49847  0.74155  0.21782  1.0000
  Hg  Hg8       1.0  0.50153  0.24155  0.28218  1.0000
  H   H1        1.0  0.08708  0.27394  0.39092  1.0000
  H   H2        1.0  0.91292  0.77394  0.10908  1.0000
  H   H3        1.0  0.91292  0.72606  0.60908  1.0000
  H   H4        1.0  0.08708  0.22606  0.89092  1.0000
  H   H5        1.0  0.20297  0.18186  0.37803  1.0000
  H   H6        1.0  0.79704  0.68186  0.12197  1.0000
  H   H7        1.0  0.79703  0.81814  0.62197  1.0000
  H   H8        1.0  0.20297  0.31814  0.87803  1.0000
  H   H9        1.0  0.21451  0.22763  0.48275  1.0000
  H   H10       1.0  0.78548  0.72763  0.01725  1.0000
  H   H11       1.0  0.78549  0.77237  0.51725  1.0000
  H   H12       1.0  0.21452  0.27237  0.98275  1.0000
  H   H13       1.0  0.04099  0.05394  0.35634  1.0000
  H   H14       1.0  0.95901  0.55394  0.14366  1.0000
  H   H15       1.0  0.95901  0.94606  0.64366  1.0000
  H   H16       1.0  0.04099  0.44606  0.85634  1.0000
  H   H17       1.0  0.76618  0.99497  0.41516  1.0000
  H   H18       1.0  0.23382  0.49497  0.08484  1.0000
  H   H19       1.0  0.23382  0.00503  0.58484  1.0000
  H   H20       1.0  0.76618  0.50502  0.91516  1.0000
  H   H21       1.0  0.69287  0.07955  0.59278  1.0000
  H   H22       1.0  0.30713  0.57955  0.90722  1.0000
  H   H23       1.0  0.30713  0.92045  0.40722  1.0000
  H   H24       1.0  0.69287  0.42044  0.09278  1.0000
  H   H25       1.0  0.56322  0.06946  0.49025  1.0000
  H   H26       1.0  0.43678  0.56946  0.00975  1.0000
  H   H27       1.0  0.43678  0.93054  0.50975  1.0000
  H   H28       1.0  0.56322  0.43054  0.99025  1.0000
  H   H29       1.0  0.60602  0.17152  0.53688  1.0000
  H   H30       1.0  0.39398  0.67151  0.96312  1.0000
  H   H31       1.0  0.39398  0.82849  0.46312  1.0000
  H   H32       1.0  0.60603  0.32848  0.03688  1.0000
  H   H33       1.0  0.27881  0.36915  0.59814  1.0000
  H   H34       1.0  0.72118  0.86915  0.90186  1.0000
  H   H35       1.0  0.72118  0.63086  0.40186  1.0000
  H   H36       1.0  0.27882  0.13085  0.09814  1.0000
  H   H37       1.0  0.31691  0.47262  0.55921  1.0000
  H   H38       1.0  0.68308  0.97262  0.94079  1.0000
  H   H39       1.0  0.68308  0.52738  0.44079  1.0000
  H   H40       1.0  0.31692  0.02738  0.05921  1.0000
  H   H41       1.0  0.18119  0.40313  0.49369  1.0000
  H   H42       1.0  0.81880  0.90313  0.00631  1.0000
  H   H43       1.0  0.81881  0.59687  0.50631  1.0000
  H   H44       1.0  0.18119  0.09687  0.99369  1.0000
  H   H45       1.0  0.20365  0.57757  0.64536  1.0000
  H   H46       1.0  0.79634  0.07758  0.85464  1.0000
  H   H47       1.0  0.79634  0.42243  0.35464  1.0000
  H   H48       1.0  0.20366  0.92243  0.14536  1.0000
  H   H49       1.0  0.91132  0.59489  0.70595  1.0000
  H   H50       1.0  0.08868  0.09489  0.79405  1.0000
  H   H51       1.0  0.08868  0.40511  0.29405  1.0000
  H   H52       1.0  0.91132  0.90511  0.20595  1.0000
  H   H53       1.0  0.63953  0.51622  0.65416  1.0000
  H   H54       1.0  0.36047  0.01622  0.84584  1.0000
  H   H55       1.0  0.36047  0.48378  0.34584  1.0000
  H   H56       1.0  0.63953  0.98378  0.15416  1.0000
  H   H57       1.0  0.71815  0.43834  0.73274  1.0000
  H   H58       1.0  0.28184  0.93834  0.76726  1.0000
  H   H59       1.0  0.28185  0.56166  0.26726  1.0000
  H   H60       1.0  0.71815  0.06166  0.23274  1.0000
  H   H61       1.0  0.65048  0.40727  0.62361  1.0000
  H   H62       1.0  0.34952  0.90727  0.87639  1.0000
  H   H63       1.0  0.34952  0.59273  0.37639  1.0000
  H   H64       1.0  0.65049  0.09273  0.12361  1.0000
  C   C1        1.0  0.89463  0.18118  0.48765  1.0000
  C   C2        1.0  0.10537  0.68118  0.01235  1.0000
  C   C3        1.0  0.10537  0.81882  0.51235  1.0000
  C   C4        1.0  0.89463  0.31882  0.98765  1.0000
  C   C5        1.0  0.13505  0.21478  0.42155  1.0000
  C   C6        1.0  0.86495  0.71478  0.07845  1.0000
  C   C7        1.0  0.86495  0.78522  0.57845  1.0000
  C   C8        1.0  0.13505  0.28522  0.92155  1.0000
  C   C9        1.0  0.96822  0.08167  0.39979  1.0000
  C   C10       1.0  0.03178  0.58167  0.10021  1.0000
  C   C11       1.0  0.03178  0.91833  0.60021  1.0000
  C   C12       1.0  0.96822  0.41833  0.89979  1.0000
  C   C13       1.0  0.83439  0.05305  0.42909  1.0000
  C   C14       1.0  0.16561  0.55305  0.07091  1.0000
  C   C15       1.0  0.16561  0.94695  0.57091  1.0000
  C   C16       1.0  0.83439  0.44695  0.92909  1.0000
  C   C17       1.0  0.65535  0.10831  0.52912  1.0000
  C   C18       1.0  0.34465  0.60831  0.97088  1.0000
  C   C19       1.0  0.34465  0.89169  0.47088  1.0000
  C   C20       1.0  0.65535  0.39168  0.02912  1.0000
  C   C21       1.0  0.95358  0.41918  0.60153  1.0000
  C   C22       1.0  0.04642  0.91918  0.89847  1.0000
  C   C23       1.0  0.04641  0.58082  0.39847  1.0000
  C   C24       1.0  0.95359  0.08082  0.10153  1.0000
  C   C25       1.0  0.22586  0.42344  0.55995  1.0000
  C   C26       1.0  0.77414  0.92344  0.94005  1.0000
  C   C27       1.0  0.77414  0.57656  0.44005  1.0000
  C   C28       1.0  0.22586  0.07656  0.05995  1.0000
  C   C29       1.0  0.10008  0.53622  0.64001  1.0000
  C   C30       1.0  0.89992  0.03623  0.85999  1.0000
  C   C31       1.0  0.89992  0.46378  0.35999  1.0000
  C   C32       1.0  0.10009  0.96378  0.14001  1.0000
  C   C33       1.0  0.95728  0.54492  0.66917  1.0000
  C   C34       1.0  0.04272  0.04493  0.83084  1.0000
  C   C35       1.0  0.04272  0.45507  0.33083  1.0000
  C   C36       1.0  0.95728  0.95507  0.16917  1.0000
  C   C37       1.0  0.70954  0.45757  0.66517  1.0000
  C   C38       1.0  0.29046  0.95757  0.83483  1.0000
  C   C39       1.0  0.29046  0.54243  0.33483  1.0000
  C   C40       1.0  0.70954  0.04243  0.16517  1.0000
  I   I1        1.0  0.80661  0.23509  0.73360  1.0000
  I   I2        1.0  0.19339  0.73509  0.76640  1.0000
  I   I3        1.0  0.19339  0.76491  0.26640  1.0000
  I   I4        1.0  0.80661  0.26491  0.23360  1.0000
  I   I5        1.0  0.53301  0.16115  0.94228  1.0000
  I   I6        1.0  0.46700  0.66115  0.55772  1.0000
  I   I7        1.0  0.46700  0.83885  0.05772  1.0000
  I   I8        1.0  0.53300  0.33885  0.44228  1.0000
  I   I9        1.0  0.40239  0.42671  0.80098  1.0000
  I   I10       1.0  0.59760  0.92671  0.69902  1.0000
  I   I11       1.0  0.59761  0.57329  0.19902  1.0000
  I   I12       1.0  0.40240  0.07329  0.30098  1.0000
  I   I13       1.0  0.26095  0.17438  0.66520  1.0000
  I   I14       1.0  0.73905  0.67438  0.83480  1.0000
  I   I15       1.0  0.73905  0.82562  0.33480  1.0000
  I   I16       1.0  0.26095  0.32562  0.16520  1.0000
  N   N1        1.0  0.00329  0.16034  0.43681  1.0000
  N   N2        1.0  0.99671  0.66034  0.06319  1.0000
  N   N3        1.0  0.99671  0.83966  0.56319  1.0000
  N   N4        1.0  0.00329  0.33966  0.93681  1.0000
  N   N5        1.0  0.79108  0.11512  0.48303  1.0000
  N   N6        1.0  0.20891  0.61512  0.01697  1.0000
  N   N7        1.0  0.20892  0.88488  0.51697  1.0000
  N   N8        1.0  0.79109  0.38487  0.98303  1.0000
  N   N9        1.0  0.09482  0.45894  0.59838  1.0000
  N   N10       1.0  0.90517  0.95895  0.90162  1.0000
  N   N11       1.0  0.90517  0.54106  0.40162  1.0000
  N   N12       1.0  0.09483  0.04105  0.09838  1.0000
  N   N13       1.0  0.86905  0.47246  0.64458  1.0000
  N   N14       1.0  0.13094  0.97246  0.85542  1.0000
  N   N15       1.0  0.13094  0.52754  0.35542  1.0000
  N   N16       1.0  0.86906  0.02754  0.14458  1.0000
