data_image0
_chemical_formula_structural       Cd2H12C12N16O8
_chemical_formula_sum              "Cd2 H12 C12 N16 O8"
_cell_length_a       4.95495
_cell_length_b       7.99541
_cell_length_c       13.8253
_cell_angle_alpha    89.9999
_cell_angle_beta     90
_cell_angle_gamma    104.511

_space_group_name_H-M_alt    "P 1"
_space_group_IT_number       1

loop_
  _space_group_symop_operation_xyz
  'x, y, z'

loop_
  _atom_site_type_symbol
  _atom_site_label
  _atom_site_symmetry_multiplicity
  _atom_site_fract_x
  _atom_site_fract_y
  _atom_site_fract_z
  _atom_site_occupancy
  Cd  Cd1       1.0  0.00000  0.50000  0.50000  1.0000
  Cd  Cd2       1.0  0.50000  1.00000  0.00000  1.0000
  H   H1        1.0  0.27404  0.31734  0.30562  1.0000
  H   H2        1.0  0.22596  0.18266  0.80562  1.0000
  H   H3        1.0  0.72596  0.68266  0.69438  1.0000
  H   H4        1.0  0.77404  0.81734  0.19438  1.0000
  H   H5        1.0  0.46073  0.37609  0.12166  1.0000
  H   H6        1.0  0.03927  0.12391  0.62166  1.0000
  H   H7        1.0  0.53927  0.62391  0.87834  1.0000
  H   H8        1.0  0.96073  0.87609  0.37834  1.0000
  H   H9        1.0  0.32297  0.52795  0.05590  1.0000
  H   H10       1.0  0.17704  0.97205  0.55590  1.0000
  H   H11       1.0  0.67703  0.47205  0.94410  1.0000
  H   H12       1.0  0.82296  0.02795  0.44410  1.0000
  C   C1        1.0  0.14236  0.39665  0.27876  1.0000
  C   C2        1.0  0.35763  0.10334  0.77876  1.0000
  C   C3        1.0  0.85763  0.60335  0.72124  1.0000
  C   C4        1.0  0.64237  0.89666  0.22124  1.0000
  C   C5        1.0  0.26893  0.41101  0.10090  1.0000
  C   C6        1.0  0.23107  0.08898  0.60090  1.0000
  C   C7        1.0  0.73107  0.58899  0.89910  1.0000
  C   C8        1.0  0.76893  0.91101  0.39910  1.0000
  C   C9        1.0  0.08112  0.26427  0.04111  1.0000
  C   C10       1.0  0.41888  0.23573  0.54111  1.0000
  C   C11       1.0  0.91888  0.73573  0.95889  1.0000
  C   C12       1.0  0.58112  0.76427  0.45889  1.0000
  N   N1        1.0  0.13222  0.45232  0.18741  1.0000
  N   N2        1.0  0.36778  0.04768  0.68741  1.0000
  N   N3        1.0  0.86778  0.54768  0.81259  1.0000
  N   N4        1.0  0.63222  0.95232  0.31259  1.0000
  N   N5        1.0  0.94631  0.55071  0.18339  1.0000
  N   N6        1.0  0.55370  0.94929  0.68339  1.0000
  N   N7        1.0  0.05369  0.44929  0.81661  1.0000
  N   N8        1.0  0.44631  0.05071  0.31661  1.0000
  N   N9        1.0  0.84777  0.55430  0.27034  1.0000
  N   N10       1.0  0.65223  0.94570  0.77034  1.0000
  N   N11       1.0  0.15223  0.44571  0.72966  1.0000
  N   N12       1.0  0.34777  0.05430  0.22966  1.0000
  N   N13       1.0  0.96539  0.45916  0.33106  1.0000
  N   N14       1.0  0.53461  0.04084  0.83106  1.0000
  N   N15       1.0  0.03461  0.54084  0.66894  1.0000
  N   N16       1.0  0.46539  0.95916  0.16894  1.0000
  O   O1        1.0  0.20163  0.18585  0.98281  1.0000
  O   O2        1.0  0.29837  0.31415  0.48281  1.0000
  O   O3        1.0  0.79836  0.81415  0.01719  1.0000
  O   O4        1.0  0.70164  0.68585  0.51719  1.0000
  O   O5        1.0  0.82059  0.24033  0.05335  1.0000
  O   O6        1.0  0.67941  0.25967  0.55335  1.0000
  O   O7        1.0  0.17940  0.75967  0.94665  1.0000
  O   O8        1.0  0.32060  0.74033  0.44665  1.0000
