data_image0
_chemical_formula_structural       Cd2H12C12N16O8
_chemical_formula_sum              "Cd2 H12 C12 N16 O8"
_cell_length_a       8.61281
_cell_length_b       8.61282
_cell_length_c       9.55776
_cell_angle_alpha    66.0752
_cell_angle_beta     66.0749
_cell_angle_gamma    61.8487

_space_group_name_H-M_alt    "P 1"
_space_group_IT_number       1

loop_
  _space_group_symop_operation_xyz
  'x, y, z'

loop_
  _atom_site_type_symbol
  _atom_site_label
  _atom_site_symmetry_multiplicity
  _atom_site_fract_x
  _atom_site_fract_y
  _atom_site_fract_z
  _atom_site_occupancy
  Cd  Cd1       1.0  0.53548  0.46452  0.75000  1.0000
  Cd  Cd2       1.0  0.46451  0.53549  0.25000  1.0000
  H   H1        1.0  0.49430  0.13157  0.64542  1.0000
  H   H2        1.0  0.86844  0.50570  0.85458  1.0000
  H   H3        1.0  0.50570  0.86843  0.35458  1.0000
  H   H4        1.0  0.13157  0.49430  0.14542  1.0000
  H   H5        1.0  0.31434  0.91958  0.70410  1.0000
  H   H6        1.0  0.08042  0.68566  0.79590  1.0000
  H   H7        1.0  0.68566  0.08042  0.29590  1.0000
  H   H8        1.0  0.91958  0.31433  0.20409  1.0000
  H   H9        1.0  0.09212  0.97528  0.83823  1.0000
  H   H10       1.0  0.02472  0.90788  0.66177  1.0000
  H   H11       1.0  0.90788  0.02472  0.16177  1.0000
  H   H12       1.0  0.97528  0.09212  0.33823  1.0000
  C   C1        1.0  0.38511  0.16776  0.74867  1.0000
  C   C2        1.0  0.83224  0.61489  0.75133  1.0000
  C   C3        1.0  0.61490  0.83224  0.25133  1.0000
  C   C4        1.0  0.16776  0.38511  0.24867  1.0000
  C   C5        1.0  0.30189  0.76646  0.95131  1.0000
  C   C6        1.0  0.23353  0.69811  0.54869  1.0000
  C   C7        1.0  0.69811  0.23354  0.04871  1.0000
  C   C8        1.0  0.76645  0.30189  0.45129  1.0000
  C   C9        1.0  0.23706  0.94183  0.82223  1.0000
  C   C10       1.0  0.05818  0.76294  0.67777  1.0000
  C   C11       1.0  0.76295  0.05818  0.17777  1.0000
  C   C12       1.0  0.94183  0.23705  0.32223  1.0000
  N   N1        1.0  0.19547  0.30482  0.93206  1.0000
  N   N2        1.0  0.69518  0.80452  0.56794  1.0000
  N   N3        1.0  0.80453  0.69518  0.06794  1.0000
  N   N4        1.0  0.30482  0.19547  0.43206  1.0000
  N   N5        1.0  0.34963  0.29837  0.80977  1.0000
  N   N6        1.0  0.70163  0.65037  0.69023  1.0000
  N   N7        1.0  0.65037  0.70163  0.19023  1.0000
  N   N8        1.0  0.29837  0.34963  0.30977  1.0000
  N   N9        1.0  0.25472  0.09631  0.83174  1.0000
  N   N10       1.0  0.90369  0.74528  0.66826  1.0000
  N   N11       1.0  0.74528  0.90369  0.16827  1.0000
  N   N12       1.0  0.09631  0.25472  0.33173  1.0000
  N   N13       1.0  0.13743  0.18342  0.94604  1.0000
  N   N14       1.0  0.81658  0.86257  0.55396  1.0000
  N   N15       1.0  0.86257  0.81658  0.05396  1.0000
  N   N16       1.0  0.18342  0.13743  0.44604  1.0000
  O   O1        1.0  0.31106  0.62182  0.93764  1.0000
  O   O2        1.0  0.37818  0.68894  0.56236  1.0000
  O   O3        1.0  0.68894  0.37817  0.06237  1.0000
  O   O4        1.0  0.62183  0.31106  0.43763  1.0000
  O   O5        1.0  0.33478  0.78193  0.06135  1.0000
  O   O6        1.0  0.21808  0.66522  0.43866  1.0000
  O   O7        1.0  0.66521  0.21808  0.93866  1.0000
  O   O8        1.0  0.78192  0.33479  0.56134  1.0000
