data_image0
_chemical_formula_structural       Zn2H12C12N16O8
_chemical_formula_sum              "Zn2 H12 C12 N16 O8"
_cell_length_a       8.33043
_cell_length_b       8.33042
_cell_length_c       9.58031
_cell_angle_alpha    65.6921
_cell_angle_beta     65.6922
_cell_angle_gamma    59.9307

_space_group_name_H-M_alt    "P 1"
_space_group_IT_number       1

loop_
  _space_group_symop_operation_xyz
  'x, y, z'

loop_
  _atom_site_type_symbol
  _atom_site_label
  _atom_site_symmetry_multiplicity
  _atom_site_fract_x
  _atom_site_fract_y
  _atom_site_fract_z
  _atom_site_occupancy
  Zn  Zn1       1.0  0.54265  0.45735  0.25000  1.0000
  Zn  Zn2       1.0  0.45735  0.54265  0.75000  1.0000
  H   H1        1.0  0.51464  0.12302  0.15153  1.0000
  H   H2        1.0  0.87697  0.48537  0.34847  1.0000
  H   H3        1.0  0.48537  0.87697  0.84847  1.0000
  H   H4        1.0  0.12303  0.51463  0.65153  1.0000
  H   H5        1.0  0.32584  0.91601  0.20826  1.0000
  H   H6        1.0  0.08399  0.67416  0.29174  1.0000
  H   H7        1.0  0.67416  0.08399  0.79174  1.0000
  H   H8        1.0  0.91601  0.32584  0.70826  1.0000
  H   H9        1.0  0.09033  0.98646  0.33721  1.0000
  H   H10       1.0  0.01354  0.90967  0.16279  1.0000
  H   H11       1.0  0.90967  0.01355  0.66278  1.0000
  H   H12       1.0  0.98645  0.09033  0.83722  1.0000
  C   C1        1.0  0.40452  0.16104  0.25710  1.0000
  C   C2        1.0  0.83895  0.59549  0.24289  1.0000
  C   C3        1.0  0.59549  0.83895  0.74290  1.0000
  C   C4        1.0  0.16105  0.40451  0.75711  1.0000
  C   C5        1.0  0.24302  0.93971  0.32624  1.0000
  C   C6        1.0  0.06029  0.75698  0.17376  1.0000
  C   C7        1.0  0.75698  0.06029  0.67375  1.0000
  C   C8        1.0  0.93971  0.24302  0.82625  1.0000
  C   C9        1.0  0.30308  0.75129  0.45534  1.0000
  C   C10       1.0  0.24870  0.69692  0.04466  1.0000
  C   C11       1.0  0.69692  0.24870  0.54466  1.0000
  C   C12       1.0  0.75130  0.30308  0.95534  1.0000
  N   N1        1.0  0.37286  0.29229  0.32066  1.0000
  N   N2        1.0  0.70771  0.62714  0.17933  1.0000
  N   N3        1.0  0.62715  0.70770  0.67934  1.0000
  N   N4        1.0  0.29229  0.37285  0.82067  1.0000
  N   N5        1.0  0.21353  0.30245  0.44485  1.0000
  N   N6        1.0  0.69755  0.78647  0.05514  1.0000
  N   N7        1.0  0.78647  0.69755  0.55514  1.0000
  N   N8        1.0  0.30245  0.21353  0.94486  1.0000
  N   N9        1.0  0.14859  0.18275  0.45764  1.0000
  N   N10       1.0  0.81725  0.85141  0.04235  1.0000
  N   N11       1.0  0.85141  0.81726  0.54235  1.0000
  N   N12       1.0  0.18274  0.14859  0.95765  1.0000
  N   N13       1.0  0.26689  0.09263  0.34070  1.0000
  N   N14       1.0  0.90736  0.73312  0.15930  1.0000
  N   N15       1.0  0.73312  0.90736  0.65930  1.0000
  N   N16       1.0  0.09264  0.26688  0.84071  1.0000
  O   O1        1.0  0.33196  0.60182  0.42745  1.0000
  O   O2        1.0  0.39818  0.66804  0.07255  1.0000
  O   O3        1.0  0.66804  0.39819  0.57255  1.0000
  O   O4        1.0  0.60181  0.33196  0.92745  1.0000
  O   O5        1.0  0.30857  0.76251  0.58082  1.0000
  O   O6        1.0  0.23749  0.69143  0.91918  1.0000
  O   O7        1.0  0.69142  0.23749  0.41918  1.0000
  O   O8        1.0  0.76251  0.30858  0.08082  1.0000
