data_image0
_chemical_formula_structural       Mn2H12C12N16O8
_chemical_formula_sum              "Mn2 H12 C12 N16 O8"
_cell_length_a       4.95319
_cell_length_b       7.77995
_cell_length_c       13.5249
_cell_angle_alpha    90
_cell_angle_beta     90
_cell_angle_gamma    104.622

_space_group_name_H-M_alt    "P 1"
_space_group_IT_number       1

loop_
  _space_group_symop_operation_xyz
  'x, y, z'

loop_
  _atom_site_type_symbol
  _atom_site_label
  _atom_site_symmetry_multiplicity
  _atom_site_fract_x
  _atom_site_fract_y
  _atom_site_fract_z
  _atom_site_occupancy
  Mn  Mn1       1.0  1.00000  0.00000  1.00000  1.0000
  Mn  Mn2       1.0  0.50000  0.50000  0.50000  1.0000
  H   H1        1.0  0.27370  0.82143  0.80946  1.0000
  H   H2        1.0  0.22630  0.67857  0.30946  1.0000
  H   H3        1.0  0.72630  0.17857  0.19054  1.0000
  H   H4        1.0  0.77370  0.32143  0.69054  1.0000
  H   H5        1.0  0.46018  0.88494  0.62268  1.0000
  H   H6        1.0  0.03982  0.61506  0.12268  1.0000
  H   H7        1.0  0.53982  0.11506  0.37732  1.0000
  H   H8        1.0  0.96018  0.38494  0.87732  1.0000
  H   H9        1.0  0.30898  0.03184  0.55328  1.0000
  H   H10       1.0  0.19102  0.46816  0.05328  1.0000
  H   H11       1.0  0.69102  0.96816  0.44672  1.0000
  H   H12       1.0  0.80898  0.53184  0.94672  1.0000
  C   C1        1.0  0.13547  0.89790  0.78156  1.0000
  C   C2        1.0  0.36453  0.60210  0.28156  1.0000
  C   C3        1.0  0.86452  0.10211  0.21844  1.0000
  C   C4        1.0  0.63547  0.39790  0.71843  1.0000
  C   C5        1.0  0.26336  0.91242  0.60006  1.0000
  C   C6        1.0  0.23664  0.58758  0.10006  1.0000
  C   C7        1.0  0.73664  0.08758  0.39994  1.0000
  C   C8        1.0  0.76336  0.41242  0.89994  1.0000
  C   C9        1.0  0.08997  0.75607  0.53913  1.0000
  C   C10       1.0  0.41003  0.74393  0.03913  1.0000
  C   C11       1.0  0.91003  0.24393  0.46087  1.0000
  C   C12       1.0  0.58997  0.25607  0.96087  1.0000
  N   N1        1.0  0.95553  0.95940  0.83516  1.0000
  N   N2        1.0  0.54447  0.54060  0.33516  1.0000
  N   N3        1.0  0.04448  0.04060  0.16484  1.0000
  N   N4        1.0  0.45553  0.45940  0.66484  1.0000
  N   N5        1.0  0.11967  0.95119  0.68767  1.0000
  N   N6        1.0  0.38033  0.54881  0.18767  1.0000
  N   N7        1.0  0.88033  0.04881  0.31233  1.0000
  N   N8        1.0  0.61967  0.45119  0.81233  1.0000
  N   N9        1.0  0.92693  0.04718  0.68310  1.0000
  N   N10       1.0  0.57307  0.45282  0.18310  1.0000
  N   N11       1.0  0.07307  0.95282  0.31690  1.0000
  N   N12       1.0  0.42693  0.54718  0.81690  1.0000
  N   N13       1.0  0.82967  0.05127  0.77230  1.0000
  N   N14       1.0  0.67033  0.44873  0.27230  1.0000
  N   N15       1.0  0.17033  0.94873  0.22770  1.0000
  N   N16       1.0  0.32967  0.55127  0.72770  1.0000
  O   O1        1.0  0.22752  0.67478  0.48604  1.0000
  O   O2        1.0  0.27248  0.82522  0.98604  1.0000
  O   O3        1.0  0.77248  0.32522  0.51396  1.0000
  O   O4        1.0  0.72752  0.17478  0.01396  1.0000
  O   O5        1.0  0.82728  0.72767  0.54402  1.0000
  O   O6        1.0  0.67273  0.77233  0.04402  1.0000
  O   O7        1.0  0.17272  0.27233  0.45598  1.0000
  O   O8        1.0  0.32728  0.22767  0.95598  1.0000
