data_image0
_chemical_formula_structural       Co2H12C12N16O8
_chemical_formula_sum              "Co2 H12 C12 N16 O8"
_cell_length_a       4.86628
_cell_length_b       7.73454
_cell_length_c       13.2466
_cell_angle_alpha    90.0001
_cell_angle_beta     89.9997
_cell_angle_gamma    103.503

_space_group_name_H-M_alt    "P 1"
_space_group_IT_number       1

loop_
  _space_group_symop_operation_xyz
  'x, y, z'

loop_
  _atom_site_type_symbol
  _atom_site_label
  _atom_site_symmetry_multiplicity
  _atom_site_fract_x
  _atom_site_fract_y
  _atom_site_fract_z
  _atom_site_occupancy
  Co  Co1       1.0  1.00000  0.00000  0.00000  1.0000
  Co  Co2       1.0  0.50000  0.50000  0.50000  1.0000
  H   H1        1.0  0.45663  0.88440  0.62028  1.0000
  H   H2        1.0  0.04337  0.61560  0.12028  1.0000
  H   H3        1.0  0.54337  0.11560  0.37972  1.0000
  H   H4        1.0  0.95663  0.38440  0.87972  1.0000
  H   H5        1.0  0.28498  0.02610  0.55032  1.0000
  H   H6        1.0  0.21502  0.47390  0.05032  1.0000
  H   H7        1.0  0.71502  0.97390  0.44968  1.0000
  H   H8        1.0  0.78498  0.52610  0.94968  1.0000
  H   H9        1.0  0.28142  0.82218  0.81319  1.0000
  H   H10       1.0  0.21857  0.67782  0.31319  1.0000
  H   H11       1.0  0.71858  0.17782  0.18681  1.0000
  H   H12       1.0  0.78142  0.32218  0.68681  1.0000
  C   C1        1.0  0.25136  0.90806  0.59922  1.0000
  C   C2        1.0  0.24865  0.59194  0.09922  1.0000
  C   C3        1.0  0.74865  0.09194  0.40078  1.0000
  C   C4        1.0  0.75135  0.40806  0.90078  1.0000
  C   C5        1.0  0.13636  0.89799  0.78577  1.0000
  C   C6        1.0  0.36363  0.60201  0.28578  1.0000
  C   C7        1.0  0.86363  0.10201  0.21423  1.0000
  C   C8        1.0  0.63637  0.39799  0.71422  1.0000
  C   C9        1.0  0.08036  0.74749  0.54029  1.0000
  C   C10       1.0  0.41964  0.75251  0.04029  1.0000
  C   C11       1.0  0.91964  0.25251  0.45971  1.0000
  C   C12       1.0  0.58036  0.24749  0.95971  1.0000
  N   N1        1.0  0.95778  0.96255  0.84220  1.0000
  N   N2        1.0  0.54222  0.53744  0.34220  1.0000
  N   N3        1.0  0.04222  0.03745  0.15780  1.0000
  N   N4        1.0  0.45778  0.46255  0.65780  1.0000
  N   N5        1.0  0.82083  0.05219  0.77885  1.0000
  N   N6        1.0  0.67916  0.44780  0.27885  1.0000
  N   N7        1.0  0.17917  0.94780  0.22115  1.0000
  N   N8        1.0  0.32083  0.55220  0.72115  1.0000
  N   N9        1.0  0.91106  0.04454  0.68671  1.0000
  N   N10       1.0  0.58894  0.45546  0.18671  1.0000
  N   N11       1.0  0.08895  0.95546  0.31329  1.0000
  N   N12       1.0  0.41106  0.54454  0.81329  1.0000
  N   N13       1.0  0.10960  0.94797  0.68980  1.0000
  N   N14       1.0  0.39040  0.55203  0.18980  1.0000
  N   N15       1.0  0.89040  0.05203  0.31020  1.0000
  N   N16       1.0  0.60960  0.44797  0.81020  1.0000
  O   O1        1.0  0.81401  0.72295  0.54243  1.0000
  O   O2        1.0  0.68600  0.77706  0.04244  1.0000
  O   O3        1.0  0.18599  0.27705  0.45757  1.0000
  O   O4        1.0  0.31400  0.22295  0.95756  1.0000
  O   O5        1.0  0.22198  0.65984  0.48991  1.0000
  O   O6        1.0  0.27803  0.84015  0.98991  1.0000
  O   O7        1.0  0.77802  0.34016  0.51009  1.0000
  O   O8        1.0  0.72197  0.15985  0.01009  1.0000
