data_image0
_chemical_formula_structural       Mn2H12C12N16O8
_chemical_formula_sum              "Mn2 H12 C12 N16 O8"
_cell_length_a       8.41012
_cell_length_b       8.46532
_cell_length_c       9.67382
_cell_angle_alpha    114.92
_cell_angle_beta     90.0016
_cell_angle_gamma    119.782

_space_group_name_H-M_alt    "P 1"
_space_group_IT_number       1

loop_
  _space_group_symop_operation_xyz
  'x, y, z'

loop_
  _atom_site_type_symbol
  _atom_site_label
  _atom_site_symmetry_multiplicity
  _atom_site_fract_x
  _atom_site_fract_y
  _atom_site_fract_z
  _atom_site_occupancy
  Mn  Mn1       1.0  0.95980  1.00000  0.25000  1.0000
  Mn  Mn2       1.0  0.04020  0.00000  0.75000  1.0000
  H   H1        1.0  0.37470  0.36924  0.65121  1.0000
  H   H2        1.0  0.00545  0.63077  0.84880  1.0000
  H   H3        1.0  0.62531  0.63077  0.34879  1.0000
  H   H4        1.0  0.99455  0.36923  0.15120  1.0000
  H   H5        1.0  0.51399  0.92401  0.83682  1.0000
  H   H6        1.0  0.58998  0.07600  0.66318  1.0000
  H   H7        1.0  0.48601  0.07599  0.16318  1.0000
  H   H8        1.0  0.41002  0.92400  0.33682  1.0000
  H   H9        1.0  0.58185  0.75801  0.70853  1.0000
  H   H10       1.0  0.82383  0.24199  0.79147  1.0000
  H   H11       1.0  0.41815  0.24199  0.29147  1.0000
  H   H12       1.0  0.17617  0.75801  0.20853  1.0000
  C   C1        1.0  0.33958  0.44256  0.75753  1.0000
  C   C2        1.0  0.89702  0.55745  0.74247  1.0000
  C   C3        1.0  0.66042  0.55744  0.24247  1.0000
  C   C4        1.0  0.10297  0.44255  0.25753  1.0000
  C   C5        1.0  0.55996  0.81939  0.82626  1.0000
  C   C6        1.0  0.74056  0.18061  0.67375  1.0000
  C   C7        1.0  0.44004  0.18061  0.17374  1.0000
  C   C8        1.0  0.25944  0.81939  0.32625  1.0000
  C   C9        1.0  0.74721  0.94754  0.95435  1.0000
  C   C10       1.0  0.79967  0.05245  0.54565  1.0000
  C   C11       1.0  0.25279  0.05246  0.04565  1.0000
  C   C12       1.0  0.20033  0.94755  0.45435  1.0000
  N   N1        1.0  0.21111  0.34622  0.82151  1.0000
  N   N2        1.0  0.86489  0.65379  0.67849  1.0000
  N   N3        1.0  0.78888  0.65377  0.17849  1.0000
  N   N4        1.0  0.13511  0.34621  0.32151  1.0000
  N   N5        1.0  0.20421  0.49649  0.94656  1.0000
  N   N6        1.0  0.70773  0.50353  0.55344  1.0000
  N   N7        1.0  0.79579  0.50351  0.05344  1.0000
  N   N8        1.0  0.29227  0.49647  0.44656  1.0000
  N   N9        1.0  0.32310  0.67790  0.95936  1.0000
  N   N10       1.0  0.64520  0.32211  0.54064  1.0000
  N   N11       1.0  0.67689  0.32209  0.04063  1.0000
  N   N12       1.0  0.35480  0.67789  0.45936  1.0000
  N   N13       1.0  0.40949  0.64692  0.84159  1.0000
  N   N14       1.0  0.76257  0.35309  0.65842  1.0000
  N   N15       1.0  0.59051  0.35308  0.15841  1.0000
  N   N16       1.0  0.23743  0.64691  0.34159  1.0000
  O   O1        1.0  0.74020  0.93115  0.07849  1.0000
  O   O2        1.0  0.80905  0.06883  0.42151  1.0000
  O   O3        1.0  0.25980  0.06885  0.92151  1.0000
  O   O4        1.0  0.19095  0.93117  0.57849  1.0000
  O   O5        1.0  0.89382  0.06688  0.92631  1.0000
  O   O6        1.0  0.82693  0.93311  0.57371  1.0000
  O   O7        1.0  0.10618  0.93312  0.07369  1.0000
  O   O8        1.0  0.17307  0.06689  0.42629  1.0000
