data_image0
_chemical_formula_structural       Co2H12C12N16O8
_chemical_formula_sum              "Co2 H12 C12 N16 O8"
_cell_length_a       8.29828
_cell_length_b       8.29832
_cell_length_c       9.52743
_cell_angle_alpha    65.5729
_cell_angle_beta     65.5728
_cell_angle_gamma    60.2931

_space_group_name_H-M_alt    "P 1"
_space_group_IT_number       1

loop_
  _space_group_symop_operation_xyz
  'x, y, z'

loop_
  _atom_site_type_symbol
  _atom_site_label
  _atom_site_symmetry_multiplicity
  _atom_site_fract_x
  _atom_site_fract_y
  _atom_site_fract_z
  _atom_site_occupancy
  Co  Co1       1.0  0.53829  0.46171  0.75000  1.0000
  Co  Co2       1.0  0.46171  0.53829  0.25000  1.0000
  H   H1        1.0  0.51948  0.12202  0.65261  1.0000
  H   H2        1.0  0.87798  0.48052  0.84739  1.0000
  H   H3        1.0  0.48052  0.87798  0.34740  1.0000
  H   H4        1.0  0.12202  0.51948  0.15260  1.0000
  H   H5        1.0  0.32783  0.91869  0.70692  1.0000
  H   H6        1.0  0.08131  0.67218  0.79308  1.0000
  H   H7        1.0  0.67217  0.08131  0.29308  1.0000
  H   H8        1.0  0.91869  0.32783  0.20692  1.0000
  H   H9        1.0  0.09255  0.98509  0.83870  1.0000
  H   H10       1.0  0.01491  0.90745  0.66130  1.0000
  H   H11       1.0  0.90745  0.01491  0.16131  1.0000
  H   H12       1.0  0.98509  0.09255  0.33869  1.0000
  C   C1        1.0  0.40811  0.16228  0.75756  1.0000
  C   C2        1.0  0.83772  0.59190  0.74244  1.0000
  C   C3        1.0  0.59190  0.83771  0.24244  1.0000
  C   C4        1.0  0.16228  0.40810  0.25756  1.0000
  C   C5        1.0  0.24555  0.94019  0.82646  1.0000
  C   C6        1.0  0.05981  0.75446  0.67354  1.0000
  C   C7        1.0  0.75445  0.05981  0.17355  1.0000
  C   C8        1.0  0.94019  0.24555  0.32646  1.0000
  C   C9        1.0  0.30819  0.75041  0.95416  1.0000
  C   C10       1.0  0.24960  0.69181  0.54583  1.0000
  C   C11       1.0  0.69180  0.24959  0.04584  1.0000
  C   C12       1.0  0.75040  0.30819  0.45416  1.0000
  N   N1        1.0  0.26927  0.09351  0.84149  1.0000
  N   N2        1.0  0.90649  0.73074  0.65851  1.0000
  N   N3        1.0  0.73074  0.90648  0.15852  1.0000
  N   N4        1.0  0.09352  0.26927  0.34149  1.0000
  N   N5        1.0  0.14911  0.18498  0.95777  1.0000
  N   N6        1.0  0.81502  0.85089  0.54223  1.0000
  N   N7        1.0  0.85089  0.81502  0.04224  1.0000
  N   N8        1.0  0.18498  0.14911  0.45776  1.0000
  N   N9        1.0  0.21418  0.30608  0.94422  1.0000
  N   N10       1.0  0.69392  0.78582  0.55578  1.0000
  N   N11       1.0  0.78582  0.69392  0.05578  1.0000
  N   N12       1.0  0.30608  0.21418  0.44422  1.0000
  N   N13       1.0  0.37566  0.29551  0.82006  1.0000
  N   N14       1.0  0.70449  0.62434  0.67994  1.0000
  N   N15       1.0  0.62434  0.70449  0.17994  1.0000
  N   N16       1.0  0.29550  0.37566  0.32006  1.0000
  O   O1        1.0  0.34149  0.60067  0.92257  1.0000
  O   O2        1.0  0.39933  0.65851  0.57743  1.0000
  O   O3        1.0  0.65851  0.39933  0.07743  1.0000
  O   O4        1.0  0.60067  0.34149  0.42257  1.0000
  O   O5        1.0  0.31257  0.75825  0.08207  1.0000
  O   O6        1.0  0.24176  0.68743  0.41793  1.0000
  O   O7        1.0  0.68744  0.24175  0.91793  1.0000
  O   O8        1.0  0.75825  0.31256  0.58207  1.0000
