data_image0
_chemical_formula_structural       Th2H16C24N8O20
_chemical_formula_sum              "Th2 H16 C24 N8 O20"
_cell_length_a       6.89739
_cell_length_b       8.40911
_cell_length_c       14.4876
_cell_angle_alpha    79.0849
_cell_angle_beta     76.2313
_cell_angle_gamma    65.8228

_space_group_name_H-M_alt    "P 1"
_space_group_IT_number       1

loop_
  _space_group_symop_operation_xyz
  'x, y, z'

loop_
  _atom_site_type_symbol
  _atom_site_label
  _atom_site_symmetry_multiplicity
  _atom_site_fract_x
  _atom_site_fract_y
  _atom_site_fract_z
  _atom_site_occupancy
  Th  Th1       1.0  0.73904  0.74988  0.25006  1.0000
  Th  Th2       1.0  0.26096  0.25012  0.74994  1.0000
  H   H1        1.0  0.74297  0.52169  0.90383  1.0000
  H   H2        1.0  0.16803  0.97888  0.59600  1.0000
  H   H3        1.0  0.25703  0.47831  0.09617  1.0000
  H   H4        1.0  0.83196  0.02111  0.40400  1.0000
  H   H5        1.0  0.39011  0.36989  0.47425  1.0000
  H   H6        1.0  0.23511  0.12953  0.02569  1.0000
  H   H7        1.0  0.60988  0.63011  0.52575  1.0000
  H   H8        1.0  0.76490  0.87048  0.97431  1.0000
  H   H9        1.0  0.47340  0.16877  0.24791  1.0000
  H   H10       1.0  0.88997  0.33099  0.25218  1.0000
  H   H11       1.0  0.52660  0.83123  0.75209  1.0000
  H   H12       1.0  0.11003  0.66901  0.74782  1.0000
  H   H13       1.0  0.33442  0.08672  0.21363  1.0000
  H   H14       1.0  0.63469  0.41282  0.28640  1.0000
  H   H15       1.0  0.66558  0.91327  0.78638  1.0000
  H   H16       1.0  0.36531  0.58718  0.71359  1.0000
  C   C1        1.0  0.78949  0.58257  0.03385  1.0000
  C   C2        1.0  0.40590  0.91726  0.46617  1.0000
  C   C3        1.0  0.21051  0.41743  0.96615  1.0000
  C   C4        1.0  0.59410  0.08273  0.53383  1.0000
  C   C5        1.0  0.55375  0.68932  0.06844  1.0000
  C   C6        1.0  0.31142  0.81043  0.43160  1.0000
  C   C7        1.0  0.44626  0.31068  0.93156  1.0000
  C   C8        1.0  0.68858  0.18957  0.56840  1.0000
  C   C9        1.0  0.85830  0.51195  0.94638  1.0000
  C   C10       1.0  0.31639  0.98835  0.55352  1.0000
  C   C11       1.0  0.14170  0.48805  0.05362  1.0000
  C   C12       1.0  0.68361  0.01164  0.44648  1.0000
  C   C13       1.0  0.21469  0.42578  0.48773  1.0000
  C   C14       1.0  0.12873  0.07386  0.01223  1.0000
  C   C15       1.0  0.78530  0.57422  0.51226  1.0000
  C   C16       1.0  0.87128  0.92615  0.98777  1.0000
  C   C17       1.0  0.10720  0.49335  0.41019  1.0000
  C   C18       1.0  0.01120  0.00628  0.08981  1.0000
  C   C19       1.0  0.89280  0.50664  0.58981  1.0000
  C   C20       1.0  0.98881  0.99372  0.91020  1.0000
  C   C21       1.0  0.22725  0.47367  0.30934  1.0000
  C   C22       1.0  0.01074  0.02604  0.19066  1.0000
  C   C23       1.0  0.77275  0.52633  0.69066  1.0000
  C   C24       1.0  0.98927  0.97396  0.80935  1.0000
  N   N1        1.0  0.93119  0.57062  0.08715  1.0000
  N   N2        1.0  0.58915  0.92899  0.41297  1.0000
  N   N3        1.0  0.06881  0.42938  0.91285  1.0000
  N   N4        1.0  0.41084  0.07100  0.58703  1.0000
  N   N5        1.0  0.89113  0.57104  0.42222  1.0000
  N   N6        1.0  0.88432  0.92896  0.07780  1.0000
  N   N7        1.0  0.10886  0.42896  0.57778  1.0000
  N   N8        1.0  0.11569  0.07104  0.92220  1.0000
  O   O1        1.0  0.51914  0.76531  0.14463  1.0000
  O   O2        1.0  0.42908  0.73427  0.35548  1.0000
  O   O3        1.0  0.48086  0.23469  0.85537  1.0000
  O   O4        1.0  0.57091  0.26574  0.64452  1.0000
  O   O5        1.0  0.41644  0.70430  0.02249  1.0000
  O   O6        1.0  0.14295  0.79564  0.47746  1.0000
  O   O7        1.0  0.58357  0.29570  0.97751  1.0000
  O   O8        1.0  0.85704  0.20436  0.52253  1.0000
  O   O9        1.0  0.41973  0.36327  0.29582  1.0000
  O   O10       1.0  0.07942  0.13642  0.20420  1.0000
  O   O11       1.0  0.58026  0.63673  0.70418  1.0000
  O   O12       1.0  0.92059  0.86358  0.79581  1.0000
  O   O13       1.0  0.11957  0.56425  0.24411  1.0000
  O   O14       1.0  0.92792  0.93569  0.25590  1.0000
  O   O15       1.0  0.88043  0.43575  0.75588  1.0000
  O   O16       1.0  0.07209  0.06430  0.74410  1.0000
  O   O17       1.0  0.48177  0.06231  0.22447  1.0000
  O   O18       1.0  0.76841  0.43734  0.27563  1.0000
  O   O19       1.0  0.51823  0.93769  0.77553  1.0000
  O   O20       1.0  0.23158  0.56266  0.72436  1.0000
