data_image0
_chemical_formula_structural       Ti2Cu2H40C40N8F12
_chemical_formula_sum              "Ti2 Cu2 H40 C40 N8 F12"
_cell_length_a       8.58825
_cell_length_b       8.58764
_cell_length_c       17.5523
_cell_angle_alpha    104.121
_cell_angle_beta     102.245
_cell_angle_gamma    93.9154

_space_group_name_H-M_alt    "P 1"
_space_group_IT_number       1

loop_
  _space_group_symop_operation_xyz
  'x, y, z'

loop_
  _atom_site_type_symbol
  _atom_site_label
  _atom_site_symmetry_multiplicity
  _atom_site_fract_x
  _atom_site_fract_y
  _atom_site_fract_z
  _atom_site_occupancy
  Ti  Ti1       1.0  0.50001  0.50001  0.50000  1.0000
  Ti  Ti2       1.0  0.50000  1.00000  0.00000  1.0000
  Cu  Cu1       1.0  0.50000  0.00000  0.50000  1.0000
  Cu  Cu2       1.0  0.00000  0.00000  1.00000  1.0000
  H   H1        1.0  0.24814  0.71093  0.43623  1.0000
  H   H2        1.0  0.77495  0.81147  0.06373  1.0000
  H   H3        1.0  0.75186  0.28908  0.56377  1.0000
  H   H4        1.0  0.22506  0.18854  0.93626  1.0000
  H   H5        1.0  0.95866  0.65177  0.36452  1.0000
  H   H6        1.0  0.78773  0.59373  0.13547  1.0000
  H   H7        1.0  0.04134  0.34823  0.63548  1.0000
  H   H8        1.0  0.21226  0.40627  0.86452  1.0000
  H   H9        1.0  0.80593  0.88372  0.34326  1.0000
  H   H10       1.0  0.04113  0.46261  0.15682  1.0000
  H   H11       1.0  0.19406  0.11627  0.65674  1.0000
  H   H12       1.0  0.95886  0.53738  0.84318  1.0000
  H   H13       1.0  0.95044  0.16746  0.40093  1.0000
  H   H14       1.0  0.26709  0.54952  0.09911  1.0000
  H   H15       1.0  0.04955  0.83254  0.59906  1.0000
  H   H16       1.0  0.73291  0.45048  0.90089  1.0000
  H   H17       1.0  0.24101  0.20627  0.46869  1.0000
  H   H18       1.0  0.23792  0.77236  0.03137  1.0000
  H   H19       1.0  0.75898  0.79373  0.53131  1.0000
  H   H20       1.0  0.76208  0.22765  0.96864  1.0000
  H   H21       1.0  0.43370  0.81332  0.61375  1.0000
  H   H22       1.0  0.69935  0.81958  0.88613  1.0000
  H   H23       1.0  0.56630  0.18668  0.38625  1.0000
  H   H24       1.0  0.30065  0.18043  0.11387  1.0000
  H   H25       1.0  0.42144  0.87335  0.75985  1.0000
  H   H26       1.0  0.61332  0.66122  0.74001  1.0000
  H   H27       1.0  0.57856  0.12663  0.24015  1.0000
  H   H28       1.0  0.38668  0.33879  0.25999  1.0000
  H   H29       1.0  0.46300  0.15965  0.84219  1.0000
  H   H30       1.0  0.81729  0.62076  0.65768  1.0000
  H   H31       1.0  0.53701  0.84033  0.15782  1.0000
  H   H32       1.0  0.18271  0.37925  0.34233  1.0000
  H   H33       1.0  0.50748  0.38127  0.77315  1.0000
  H   H34       1.0  0.10783  0.73443  0.72675  1.0000
  H   H35       1.0  0.49252  0.61871  0.22686  1.0000
  H   H36       1.0  0.89217  0.26556  0.27325  1.0000
  H   H37       1.0  0.51384  0.30365  0.62795  1.0000
  H   H38       1.0  0.17549  0.88594  0.87195  1.0000
  H   H39       1.0  0.48615  0.69635  0.37205  1.0000
  H   H40       1.0  0.82452  0.11405  0.12805  1.0000
  C   C1        1.0  0.17848  0.80811  0.42553  1.0000
  C   C2        1.0  0.88289  0.75261  0.07446  1.0000
  C   C3        1.0  0.82152  0.19189  0.57447  1.0000
  C   C4        1.0  0.11711  0.24740  0.92554  1.0000
  C   C5        1.0  0.01674  0.77643  0.38569  1.0000
  C   C6        1.0  0.89119  0.63075  0.11432  1.0000
  C   C7        1.0  0.98326  0.22357  0.61431  1.0000
  C   C8        1.0  0.10881  0.36925  0.88567  1.0000
  C   C9        1.0  0.93206  0.90537  0.37491  1.0000
  C   C10       1.0  0.03104  0.55704  0.12513  1.0000
  C   C11       1.0  0.06794  0.09462  0.62509  1.0000
  C   C12       1.0  0.96896  0.44295  0.87487  1.0000
  C   C13       1.0  0.01185  0.06226  0.40593  1.0000
  C   C14       1.0  0.15686  0.60589  0.09411  1.0000
  C   C15       1.0  0.98814  0.93774  0.59407  1.0000
  C   C16       1.0  0.84314  0.39411  0.90589  1.0000
  C   C17       1.0  0.17404  0.08552  0.44487  1.0000
  C   C18       1.0  0.14101  0.72910  0.05516  1.0000
  C   C19       1.0  0.82595  0.91448  0.55513  1.0000
  C   C20       1.0  0.85899  0.27090  0.94484  1.0000
  C   C21       1.0  0.44777  0.93722  0.65124  1.0000
  C   C22       1.0  0.78578  0.79626  0.84866  1.0000
  C   C23       1.0  0.55223  0.06278  0.34876  1.0000
  C   C24       1.0  0.21422  0.20375  0.15134  1.0000
  C   C25       1.0  0.44149  0.97113  0.73218  1.0000
  C   C26       1.0  0.73872  0.70904  0.76771  1.0000
  C   C27       1.0  0.55851  0.02886  0.26782  1.0000
  C   C28       1.0  0.26128  0.29097  0.23229  1.0000
  C   C29       1.0  0.46429  0.13179  0.77822  1.0000
  C   C30       1.0  0.85331  0.68600  0.72165  1.0000
  C   C31       1.0  0.53572  0.86820  0.22178  1.0000
  C   C32       1.0  0.14669  0.31400  0.27835  1.0000
  C   C33       1.0  0.49045  0.25357  0.74059  1.0000
  C   C34       1.0  0.01267  0.74986  0.75930  1.0000
  C   C35       1.0  0.50955  0.74643  0.25941  1.0000
  C   C36       1.0  0.98733  0.25013  0.24070  1.0000
  C   C37       1.0  0.49539  0.21173  0.65943  1.0000
  C   C38       1.0  0.05206  0.83596  0.84048  1.0000
  C   C39       1.0  0.50461  0.78827  0.34058  1.0000
  C   C40       1.0  0.94795  0.16403  0.15952  1.0000
  N   N1        1.0  0.25601  0.96023  0.45374  1.0000
  N   N2        1.0  0.00677  0.80208  0.04628  1.0000
  N   N3        1.0  0.74399  0.03978  0.54626  1.0000
  N   N4        1.0  0.99323  0.19793  0.95372  1.0000
  N   N5        1.0  0.47503  0.05589  0.61575  1.0000
  N   N6        1.0  0.93993  0.85918  0.88416  1.0000
  N   N7        1.0  0.52496  0.94411  0.38425  1.0000
  N   N8        1.0  0.06008  0.14082  0.11584  1.0000
  F   F1        1.0  0.72607  0.53007  0.53516  1.0000
  F   F2        1.0  0.49508  0.19101  0.96493  1.0000
  F   F3        1.0  0.27393  0.46994  0.46484  1.0000
  F   F4        1.0  0.50492  0.80898  0.03507  1.0000
  F   F5        1.0  0.50115  0.72265  0.50081  1.0000
  F   F6        1.0  0.72190  0.00023  0.99931  1.0000
  F   F7        1.0  0.49886  0.27736  0.49919  1.0000
  F   F8        1.0  0.27810  0.99977  0.00069  1.0000
  F   F9        1.0  0.48201  0.55000  0.60822  1.0000
  F   F10       1.0  0.44186  0.87395  0.89175  1.0000
  F   F11       1.0  0.51800  0.45001  0.39178  1.0000
  F   F12       1.0  0.55813  0.12604  0.10826  1.0000
