data_image0
_chemical_formula_structural       Cd2P4H68C60N4O12
_chemical_formula_sum              "Cd2 P4 H68 C60 N4 O12"
_cell_length_a       5.63458
_cell_length_b       15.2775
_cell_length_c       16.9657
_cell_angle_alpha    100.531
_cell_angle_beta     89.9997
_cell_angle_gamma    89.9997

_space_group_name_H-M_alt    "P 1"
_space_group_IT_number       1

loop_
  _space_group_symop_operation_xyz
  'x, y, z'

loop_
  _atom_site_type_symbol
  _atom_site_label
  _atom_site_symmetry_multiplicity
  _atom_site_fract_x
  _atom_site_fract_y
  _atom_site_fract_z
  _atom_site_occupancy
  Cd  Cd1       1.0  0.81321  0.80802  0.27744  1.0000
  Cd  Cd2       1.0  0.31323  0.19198  0.72257  1.0000
  P   P1        1.0  0.29659  0.92571  0.21131  1.0000
  P   P2        1.0  0.79659  0.07429  0.78869  1.0000
  P   P3        1.0  0.30470  0.67062  0.33082  1.0000
  P   P4        1.0  0.80475  0.32938  0.66918  1.0000
  H   H1        1.0  0.86665  0.96095  0.12080  1.0000
  H   H2        1.0  0.36661  0.03903  0.87918  1.0000
  H   H3        1.0  0.78379  0.93881  0.97479  1.0000
  H   H4        1.0  0.28374  0.06116  0.02518  1.0000
  H   H5        1.0  0.08286  0.86578  0.87679  1.0000
  H   H6        1.0  0.58278  0.13419  0.12320  1.0000
  H   H7        1.0  0.47074  0.81722  0.92495  1.0000
  H   H8        1.0  0.97066  0.18276  0.07504  1.0000
  H   H9        1.0  0.55615  0.84211  0.07202  1.0000
  H   H10       1.0  0.05610  0.15789  0.92799  1.0000
  H   H11       1.0  0.73612  0.01539  0.27430  1.0000
  H   H12       1.0  0.23612  0.98461  0.72571  1.0000
  H   H13       1.0  0.83965  0.17597  0.31625  1.0000
  H   H14       1.0  0.33966  0.82403  0.68375  1.0000
  H   H15       1.0  0.55079  0.29292  0.29960  1.0000
  H   H16       1.0  0.05081  0.70707  0.70040  1.0000
  H   H17       1.0  0.15386  0.25010  0.23804  1.0000
  H   H18       1.0  0.65386  0.74989  0.76196  1.0000
  H   H19       1.0  0.04894  0.09096  0.19741  1.0000
  H   H20       1.0  0.54894  0.90903  0.80259  1.0000
  H   H21       1.0  0.72696  0.71209  0.43238  1.0000
  H   H22       1.0  0.22704  0.28792  0.56763  1.0000
  H   H23       1.0  0.81750  0.69128  0.57119  1.0000
  H   H24       1.0  0.31756  0.30872  0.42881  1.0000
  H   H25       1.0  0.53387  0.61076  0.64489  1.0000
  H   H26       1.0  0.03394  0.38923  0.35511  1.0000
  H   H27       1.0  0.15388  0.55191  0.57900  1.0000
  H   H28       1.0  0.65395  0.44809  0.42100  1.0000
  H   H29       1.0  0.05625  0.57850  0.44336  1.0000
  H   H30       1.0  0.55631  0.42151  0.55664  1.0000
  H   H31       1.0  0.85788  0.60651  0.24886  1.0000
  H   H32       1.0  0.35790  0.39349  0.75114  1.0000
  H   H33       1.0  0.75838  0.46687  0.15514  1.0000
  H   H34       1.0  0.25841  0.53314  0.84486  1.0000
  H   H35       1.0  0.05030  0.34224  0.12908  1.0000
  H   H36       1.0  0.55035  0.65776  0.87093  1.0000
  H   H37       1.0  0.44432  0.35904  0.19631  1.0000
  H   H38       1.0  0.94436  0.64095  0.80369  1.0000
  H   H39       1.0  0.54819  0.50045  0.28748  1.0000
  H   H40       1.0  0.04822  0.49955  0.71252  1.0000
  H   H41       1.0  0.26265  0.71143  0.18347  1.0000
  H   H42       1.0  0.76269  0.28858  0.81654  1.0000
  H   H43       1.0  0.98067  0.58449  0.97729  1.0000
  H   H44       1.0  0.48072  0.41552  0.02272  1.0000
  H   H45       1.0  0.15190  0.66947  0.94424  1.0000
  H   H46       1.0  0.65193  0.33053  0.05577  1.0000
  H   H47       1.0  0.90242  0.69928  0.00832  1.0000
  H   H48       1.0  0.40243  0.30073  0.99169  1.0000
  H   H49       1.0  0.54035  0.64519  0.11093  1.0000
  H   H50       1.0  0.04035  0.35483  0.88908  1.0000
  H   H51       1.0  0.53110  0.64806  0.00639  1.0000
  H   H52       1.0  0.03111  0.35196  0.99361  1.0000
  H   H53       1.0  0.43190  0.55107  0.04108  1.0000
  H   H54       1.0  0.93188  0.44895  0.95892  1.0000
  H   H55       1.0  0.35274  0.86257  0.37870  1.0000
  H   H56       1.0  0.85275  0.13744  0.62130  1.0000
  H   H57       1.0  0.07189  0.86395  0.46441  1.0000
  H   H58       1.0  0.57192  0.13606  0.53560  1.0000
  H   H59       1.0  0.11096  0.92712  0.56375  1.0000
  H   H60       1.0  0.61098  0.07288  0.43626  1.0000
  H   H61       1.0  0.18241  0.81158  0.54275  1.0000
  H   H62       1.0  0.68243  0.18843  0.45726  1.0000
  H   H63       1.0  0.74688  0.95022  0.54159  1.0000
  H   H64       1.0  0.24691  0.04978  0.45841  1.0000
  H   H65       1.0  0.63806  0.86582  0.59227  1.0000
  H   H66       1.0  0.13806  0.13418  0.40773  1.0000
  H   H67       1.0  0.50613  0.97441  0.61055  1.0000
  H   H68       1.0  0.00614  0.02559  0.38944  1.0000
  C   C1        1.0  0.22000  0.90491  0.10544  1.0000
  C   C2        1.0  0.71997  0.09508  0.89455  1.0000
  C   C3        1.0  0.00089  0.93084  0.07792  1.0000
  C   C4        1.0  0.50086  0.06915  0.92206  1.0000
  C   C5        1.0  0.95267  0.91701  0.99583  1.0000
  C   C6        1.0  0.45261  0.08297  0.00415  1.0000
  C   C7        1.0  0.12109  0.87596  0.94075  1.0000
  C   C8        1.0  0.62101  0.12402  0.05924  1.0000
  C   C9        1.0  0.33799  0.84854  0.96793  1.0000
  C   C10       1.0  0.83791  0.15144  0.03207  1.0000
  C   C11       1.0  0.38769  0.86308  0.04985  1.0000
  C   C12       1.0  0.88764  0.13691  0.95014  1.0000
  C   C13       1.0  0.38365  0.04251  0.23470  1.0000
  C   C14       1.0  0.88365  0.95749  0.76530  1.0000
  C   C15       1.0  0.60795  0.06696  0.26710  1.0000
  C   C16       1.0  0.10795  0.93303  0.73290  1.0000
  C   C17       1.0  0.66643  0.15701  0.29011  1.0000
  C   C18       1.0  0.16644  0.84298  0.70989  1.0000
  C   C19       1.0  0.50378  0.22299  0.28034  1.0000
  C   C20       1.0  0.00379  0.77701  0.71966  1.0000
  C   C21       1.0  0.28156  0.19891  0.24634  1.0000
  C   C22       1.0  0.78157  0.80109  0.75366  1.0000
  C   C23       1.0  0.22255  0.10926  0.22359  1.0000
  C   C24       1.0  0.72255  0.89075  0.77640  1.0000
  C   C25       1.0  0.38242  0.64903  0.42958  1.0000
  C   C26       1.0  0.88250  0.35098  0.57043  1.0000
  C   C27       1.0  0.59862  0.67944  0.46560  1.0000
  C   C28       1.0  0.09869  0.32057  0.53441  1.0000
  C   C29       1.0  0.65001  0.66692  0.54336  1.0000
  C   C30       1.0  0.15009  0.33309  0.45664  1.0000
  C   C31       1.0  0.49026  0.62187  0.58479  1.0000
  C   C32       1.0  0.99033  0.37813  0.41522  1.0000
  C   C33       1.0  0.27754  0.58919  0.54821  1.0000
  C   C34       1.0  0.77761  0.41082  0.45180  1.0000
  C   C35       1.0  0.22322  0.60346  0.47129  1.0000
  C   C36       1.0  0.72331  0.39655  0.52871  1.0000
  C   C37       1.0  0.21197  0.56343  0.27293  1.0000
  C   C38       1.0  0.71201  0.43657  0.72708  1.0000
  C   C39       1.0  0.98798  0.55283  0.23651  1.0000
  C   C40       1.0  0.48803  0.44717  0.76349  1.0000
  C   C41       1.0  0.93168  0.47380  0.18412  1.0000
  C   C42       1.0  0.43172  0.52620  0.81588  1.0000
  C   C43       1.0  0.09528  0.40416  0.16946  1.0000
  C   C44       1.0  0.59531  0.59584  0.83055  1.0000
  C   C45       1.0  0.31675  0.41352  0.20731  1.0000
  C   C46       1.0  0.81678  0.58648  0.79269  1.0000
  C   C47       1.0  0.37430  0.49266  0.25875  1.0000
  C   C48       1.0  0.87433  0.50733  0.74125  1.0000
  C   C49       1.0  0.12495  0.70296  0.13645  1.0000
  C   C50       1.0  0.62499  0.29704  0.86355  1.0000
  C   C51       1.0  0.05048  0.65260  0.99463  1.0000
  C   C52       1.0  0.55051  0.34741  0.00538  1.0000
  C   C53       1.0  0.43924  0.62431  0.05549  1.0000
  C   C54       1.0  0.93924  0.37570  0.94451  1.0000
  C   C55       1.0  0.49521  0.88307  0.42271  1.0000
  C   C56       1.0  0.99525  0.11693  0.57729  1.0000
  C   C57       1.0  0.18269  0.87347  0.51826  1.0000
  C   C58       1.0  0.68272  0.12653  0.48175  1.0000
  C   C59       1.0  0.58776  0.92317  0.56491  1.0000
  C   C60       1.0  0.08776  0.07683  0.43509  1.0000
  N   N1        1.0  0.20181  0.66128  0.06464  1.0000
  N   N2        1.0  0.70184  0.33872  0.93536  1.0000
  N   N3        1.0  0.42353  0.89607  0.49889  1.0000
  N   N4        1.0  0.92355  0.10393  0.50111  1.0000
  O   O1        1.0  0.51104  0.86862  0.21954  1.0000
  O   O2        1.0  0.01104  0.13138  0.78046  1.0000
  O   O3        1.0  0.07630  0.91793  0.26179  1.0000
  O   O4        1.0  0.57633  0.08207  0.73819  1.0000
  O   O5        1.0  0.09096  0.73267  0.33958  1.0000
  O   O6        1.0  0.59100  0.26733  0.66042  1.0000
  O   O7        1.0  0.52874  0.69734  0.29102  1.0000
  O   O8        1.0  0.02879  0.30265  0.70898  1.0000
  O   O9        1.0  0.91677  0.73104  0.14917  1.0000
  O   O10       1.0  0.41682  0.26895  0.85084  1.0000
  O   O11       1.0  0.70666  0.89307  0.40154  1.0000
  O   O12       1.0  0.20667  0.10693  0.59846  1.0000
