data_image0
_chemical_formula_structural       Cd2H40C50N6O12
_chemical_formula_sum              "Cd2 H40 C50 N6 O12"
_cell_length_a       9.73347
_cell_length_b       10.6597
_cell_length_c       11.0728
_cell_angle_alpha    108.861
_cell_angle_beta     99.43
_cell_angle_gamma    96.3432

_space_group_name_H-M_alt    "P 1"
_space_group_IT_number       1

loop_
  _space_group_symop_operation_xyz
  'x, y, z'

loop_
  _atom_site_type_symbol
  _atom_site_label
  _atom_site_symmetry_multiplicity
  _atom_site_fract_x
  _atom_site_fract_y
  _atom_site_fract_z
  _atom_site_occupancy
  Cd  Cd1       1.0  0.19300  0.47447  0.64874  1.0000
  Cd  Cd2       1.0  0.80700  0.52553  0.35126  1.0000
  H   H1        1.0  0.91981  0.31889  0.49888  1.0000
  H   H2        1.0  0.08019  0.68111  0.50112  1.0000
  H   H3        1.0  0.00156  0.26886  0.61179  1.0000
  H   H4        1.0  0.99844  0.73114  0.38821  1.0000
  H   H5        1.0  0.14716  0.93485  0.66243  1.0000
  H   H6        1.0  0.85283  0.06515  0.33757  1.0000
  H   H7        1.0  0.53784  0.88566  0.87222  1.0000
  H   H8        1.0  0.46215  0.11434  0.12778  1.0000
  H   H9        1.0  0.63139  0.13121  0.93488  1.0000
  H   H10       1.0  0.36861  0.86879  0.06512  1.0000
  H   H11       1.0  0.48473  0.27343  0.85056  1.0000
  H   H12       1.0  0.51527  0.72657  0.14944  1.0000
  H   H13       1.0  0.02274  0.65462  0.85618  1.0000
  H   H14       1.0  0.97726  0.34538  0.14382  1.0000
  H   H15       1.0  0.02100  0.73958  0.09607  1.0000
  H   H16       1.0  0.97900  0.26042  0.90393  1.0000
  H   H17       1.0  0.18498  0.66486  0.24744  1.0000
  H   H18       1.0  0.81502  0.33513  0.75256  1.0000
  H   H19       1.0  0.32996  0.42833  0.91139  1.0000
  H   H20       1.0  0.67004  0.57167  0.08861  1.0000
  H   H21       1.0  0.43322  0.42126  0.11631  1.0000
  H   H22       1.0  0.56678  0.57874  0.88369  1.0000
  H   H23       1.0  0.46742  0.58343  0.23622  1.0000
  H   H24       1.0  0.53258  0.41657  0.76378  1.0000
  H   H25       1.0  0.25208  0.21144  0.02389  1.0000
  H   H26       1.0  0.74792  0.78856  0.97611  1.0000
  H   H27       1.0  0.12413  0.99611  0.02326  1.0000
  H   H28       1.0  0.87588  0.00389  0.97674  1.0000
  H   H29       1.0  0.04580  0.97970  0.22169  1.0000
  H   H30       1.0  0.95420  0.02030  0.77831  1.0000
  H   H31       1.0  0.10104  0.17440  0.42811  1.0000
  H   H32       1.0  0.89896  0.82560  0.57189  1.0000
  H   H33       1.0  0.43810  0.65732  0.57338  1.0000
  H   H34       1.0  0.56190  0.34268  0.42662  1.0000
  H   H35       1.0  0.51916  0.64616  0.43778  1.0000
  H   H36       1.0  0.48084  0.35384  0.56222  1.0000
  H   H37       1.0  0.25389  0.93041  0.36890  1.0000
  H   H38       1.0  0.74611  0.06959  0.63111  1.0000
  H   H39       1.0  0.61715  0.84198  0.58641  1.0000
  H   H40       1.0  0.38285  0.15802  0.41360  1.0000
  C   C1        1.0  0.22129  0.20007  0.69730  1.0000
  C   C2        1.0  0.77871  0.79993  0.30269  1.0000
  C   C3        1.0  0.30638  0.11362  0.75160  1.0000
  C   C4        1.0  0.69362  0.88638  0.24840  1.0000
  C   C5        1.0  0.25262  0.97770  0.72269  1.0000
  C   C6        1.0  0.74737  0.02229  0.27731  1.0000
  C   C7        1.0  0.33664  0.89594  0.76607  1.0000
  C   C8        1.0  0.66336  0.10406  0.23393  1.0000
  C   C9        1.0  0.47350  0.95150  0.84160  1.0000
  C   C10       1.0  0.52650  0.04850  0.15840  1.0000
  C   C11       1.0  0.52558  0.08785  0.87495  1.0000
  C   C12       1.0  0.47441  0.91215  0.12505  1.0000
  C   C13       1.0  0.44296  0.16784  0.82858  1.0000
  C   C14       1.0  0.55704  0.83216  0.17142  1.0000
  C   C15       1.0  0.28698  0.74827  0.72710  1.0000
  C   C16       1.0  0.71302  0.25173  0.27290  1.0000
  C   C17       1.0  0.09184  0.62402  0.92559  1.0000
  C   C18       1.0  0.90816  0.37599  0.07441  1.0000
  C   C19       1.0  0.09238  0.67180  0.05876  1.0000
  C   C20       1.0  0.90762  0.32820  0.94124  1.0000
  C   C21       1.0  0.18378  0.63031  0.14313  1.0000
  C   C22       1.0  0.81622  0.36969  0.85687  1.0000
  C   C23       1.0  0.27396  0.54284  0.09174  1.0000
  C   C24       1.0  0.72604  0.45716  0.90826  1.0000
  C   C25       1.0  0.26432  0.49864  0.95709  1.0000
  C   C26       1.0  0.73568  0.50136  0.04291  1.0000
  C   C27       1.0  0.38242  0.49842  0.17649  1.0000
  C   C28       1.0  0.61758  0.50158  0.82351  1.0000
  C   C29       1.0  0.24689  0.31415  0.22836  1.0000
  C   C30       1.0  0.75311  0.68585  0.77164  1.0000
  C   C31       1.0  0.21778  0.20497  0.11093  1.0000
  C   C32       1.0  0.78222  0.79503  0.88907  1.0000
  C   C33       1.0  0.14623  0.08475  0.11181  1.0000
  C   C34       1.0  0.85377  0.91525  0.88820  1.0000
  C   C35       1.0  0.10283  0.07498  0.22440  1.0000
  C   C36       1.0  0.89718  0.92502  0.77560  1.0000
  C   C37       1.0  0.13170  0.18431  0.34089  1.0000
  C   C38       1.0  0.86830  0.81569  0.65912  1.0000
  C   C39       1.0  0.20609  0.30556  0.34291  1.0000
  C   C40       1.0  0.79391  0.69444  0.65709  1.0000
  C   C41       1.0  0.32834  0.50731  0.39470  1.0000
  C   C42       1.0  0.67166  0.49270  0.60530  1.0000
  C   C43       1.0  0.41715  0.64254  0.46863  1.0000
  C   C44       1.0  0.58285  0.35746  0.53137  1.0000
  C   C45       1.0  0.42689  0.87046  0.47290  1.0000
  C   C46       1.0  0.57311  0.12954  0.52710  1.0000
  C   C47       1.0  0.36192  0.96112  0.42634  1.0000
  C   C48       1.0  0.63808  0.03889  0.57366  1.0000
  C   C49       1.0  0.56498  0.90983  0.54731  1.0000
  C   C50       1.0  0.43502  0.09017  0.45269  1.0000
  N   N1        1.0  0.17548  0.53761  0.87549  1.0000
  N   N2        1.0  0.82452  0.46239  0.12451  1.0000
  N   N3        1.0  0.32253  0.44311  0.26432  1.0000
  N   N4        1.0  0.67747  0.55689  0.73568  1.0000
  N   N5        1.0  0.25807  0.42794  0.44457  1.0000
  N   N6        1.0  0.74193  0.57206  0.55543  1.0000
  O   O1        1.0  0.29382  0.30298  0.68637  1.0000
  O   O2        1.0  0.70618  0.69702  0.31363  1.0000
  O   O3        1.0  0.08766  0.16765  0.66708  1.0000
  O   O4        1.0  0.91234  0.83235  0.33292  1.0000
  O   O5        1.0  0.16043  0.69584  0.65987  1.0000
  O   O6        1.0  0.83957  0.30416  0.34013  1.0000
  O   O7        1.0  0.37281  0.67656  0.75896  1.0000
  O   O8        1.0  0.62720  0.32344  0.24104  1.0000
  O   O9        1.0  0.34597  0.74479  0.44206  1.0000
  O   O10       1.0  0.65403  0.25521  0.55795  1.0000
  O   O11       1.0  0.97121  0.34894  0.59138  1.0000
  O   O12       1.0  0.02879  0.65105  0.40862  1.0000
