data_image0
_chemical_formula_structural       Cd2H64C68N8O8
_chemical_formula_sum              "Cd2 H64 C68 N8 O8"
_cell_length_a       8.89372
_cell_length_b       11.8989
_cell_length_c       15.9279
_cell_angle_alpha    99.6184
_cell_angle_beta     90.0071
_cell_angle_gamma    111.989

_space_group_name_H-M_alt    "P 1"
_space_group_IT_number       1

loop_
  _space_group_symop_operation_xyz
  'x, y, z'

loop_
  _atom_site_type_symbol
  _atom_site_label
  _atom_site_symmetry_multiplicity
  _atom_site_fract_x
  _atom_site_fract_y
  _atom_site_fract_z
  _atom_site_occupancy
  Cd  Cd1       1.0  0.81318  0.99982  0.74997  1.0000
  Cd  Cd2       1.0  0.18680  0.00017  0.25004  1.0000
  H   H1        1.0  0.94429  0.82399  0.79361  1.0000
  H   H2        1.0  0.12026  0.17532  0.70626  1.0000
  H   H3        1.0  0.05570  0.17601  0.20640  1.0000
  H   H4        1.0  0.87975  0.82469  0.29374  1.0000
  H   H5        1.0  0.03740  0.79691  0.88243  1.0000
  H   H6        1.0  0.24048  0.20263  0.61745  1.0000
  H   H7        1.0  0.96259  0.20309  0.11758  1.0000
  H   H8        1.0  0.75952  0.79737  0.38255  1.0000
  H   H9        1.0  0.15684  0.85749  0.79944  1.0000
  H   H10       1.0  0.29940  0.14201  0.70036  1.0000
  H   H11       1.0  0.84315  0.14250  0.20056  1.0000
  H   H12       1.0  0.70060  0.85799  0.29964  1.0000
  H   H13       1.0  0.96518  0.28684  0.87066  1.0000
  H   H14       1.0  0.67730  0.71273  0.62912  1.0000
  H   H15       1.0  0.03483  0.71315  0.12934  1.0000
  H   H16       1.0  0.32270  0.28727  0.37087  1.0000
  H   H17       1.0  0.10859  0.46178  0.99078  1.0000
  H   H18       1.0  0.64555  0.53763  0.50917  1.0000
  H   H19       1.0  0.89141  0.53822  0.00923  1.0000
  H   H20       1.0  0.35446  0.46237  0.49084  1.0000
  H   H21       1.0  0.29392  0.44274  0.09768  1.0000
  H   H22       1.0  0.84994  0.55663  0.40226  1.0000
  H   H23       1.0  0.70609  0.55726  0.90232  1.0000
  H   H24       1.0  0.15006  0.44337  0.59774  1.0000
  H   H25       1.0  0.34438  0.24867  0.09065  1.0000
  H   H26       1.0  0.09475  0.75086  0.40923  1.0000
  H   H27       1.0  0.65562  0.75133  0.90935  1.0000
  H   H28       1.0  0.90525  0.24914  0.59077  1.0000
  H   H29       1.0  0.21463  0.89256  0.98858  1.0000
  H   H30       1.0  0.32186  0.10709  0.51153  1.0000
  H   H31       1.0  0.78537  0.10744  0.01142  1.0000
  H   H32       1.0  0.67814  0.89290  0.48847  1.0000
  H   H33       1.0  0.27825  0.02760  0.06714  1.0000
  H   H34       1.0  0.25052  0.97217  0.43283  1.0000
  H   H35       1.0  0.72175  0.97240  0.93286  1.0000
  H   H36       1.0  0.74947  0.02783  0.56717  1.0000
  H   H37       1.0  0.51576  0.12750  0.98376  1.0000
  H   H38       1.0  0.38819  0.87231  0.51602  1.0000
  H   H39       1.0  0.48424  0.87251  0.01624  1.0000
  H   H40       1.0  0.61181  0.12769  0.48398  1.0000
  H   H41       1.0  0.45646  0.99359  0.90525  1.0000
  H   H42       1.0  0.46271  0.00604  0.59475  1.0000
  H   H43       1.0  0.54353  0.00642  0.09474  1.0000
  H   H44       1.0  0.53729  0.99396  0.40525  1.0000
  H   H45       1.0  0.38894  0.69247  0.87157  1.0000
  H   H46       1.0  0.69675  0.30768  0.62833  1.0000
  H   H47       1.0  0.61106  0.30753  0.12843  1.0000
  H   H48       1.0  0.30325  0.69233  0.37167  1.0000
  H   H49       1.0  0.10533  0.54511  0.88013  1.0000
  H   H50       1.0  0.56042  0.45476  0.61991  1.0000
  H   H51       1.0  0.89466  0.45489  0.11988  1.0000
  H   H52       1.0  0.43958  0.54524  0.38009  1.0000
  H   H53       1.0  0.89871  0.49464  0.75986  1.0000
  H   H54       1.0  0.40446  0.50504  0.74025  1.0000
  H   H55       1.0  0.10128  0.50536  0.24014  1.0000
  H   H56       1.0  0.59555  0.49496  0.25975  1.0000
  H   H57       1.0  0.97553  0.59198  0.63117  1.0000
  H   H58       1.0  0.38463  0.40792  0.86904  1.0000
  H   H59       1.0  0.02445  0.40801  0.36883  1.0000
  H   H60       1.0  0.61537  0.59209  0.13096  1.0000
  H   H61       1.0  0.26057  0.73925  0.62368  1.0000
  H   H62       1.0  0.52266  0.26100  0.87641  1.0000
  H   H63       1.0  0.73943  0.26074  0.37632  1.0000
  H   H64       1.0  0.47734  0.73900  0.12359  1.0000
  C   C1        1.0  0.05380  0.85951  0.83690  1.0000
  C   C2        1.0  0.19422  0.13992  0.66291  1.0000
  C   C3        1.0  0.94619  0.14049  0.16310  1.0000
  C   C4        1.0  0.80577  0.86008  0.33709  1.0000
  C   C5        1.0  0.08350  0.98643  0.88074  1.0000
  C   C6        1.0  0.09665  0.01306  0.61905  1.0000
  C   C7        1.0  0.91649  0.01357  0.11926  1.0000
  C   C8        1.0  0.90335  0.98694  0.38095  1.0000
  C   C9        1.0  0.18726  0.16250  0.97411  1.0000
  C   C10       1.0  0.02404  0.83696  0.52574  1.0000
  C   C11       1.0  0.81275  0.83751  0.02589  1.0000
  C   C12       1.0  0.97597  0.16304  0.47426  1.0000
  C   C13       1.0  0.07900  0.17147  0.91275  1.0000
  C   C14       1.0  0.90674  0.82805  0.58705  1.0000
  C   C15       1.0  0.92101  0.82853  0.08725  1.0000
  C   C16       1.0  0.09327  0.17195  0.41295  1.0000
  C   C17       1.0  0.04898  0.27966  0.91741  1.0000
  C   C18       1.0  0.76834  0.71983  0.58244  1.0000
  C   C19       1.0  0.95104  0.72034  0.08259  1.0000
  C   C20       1.0  0.23166  0.28017  0.41756  1.0000
  C   C21       1.0  0.12906  0.37600  0.98463  1.0000
  C   C22       1.0  0.75199  0.62341  0.51532  1.0000
  C   C23       1.0  0.87097  0.62401  0.01537  1.0000
  C   C24       1.0  0.24802  0.37659  0.48468  1.0000
  C   C25       1.0  0.23579  0.36574  0.04559  1.0000
  C   C26       1.0  0.86886  0.63368  0.45429  1.0000
  C   C27       1.0  0.76422  0.63426  0.95440  1.0000
  C   C28       1.0  0.13115  0.36632  0.54571  1.0000
  C   C29       1.0  0.26738  0.25872  0.04149  1.0000
  C   C30       1.0  0.00763  0.74073  0.45836  1.0000
  C   C31       1.0  0.73263  0.74129  0.95851  1.0000
  C   C32       1.0  0.99239  0.25928  0.54165  1.0000
  C   C33       1.0  0.27941  0.99289  0.99903  1.0000
  C   C34       1.0  0.28632  0.00679  0.50095  1.0000
  C   C35       1.0  0.72060  0.00711  0.00097  1.0000
  C   C36       1.0  0.71368  0.99321  0.49905  1.0000
  C   C37       1.0  0.45399  0.02654  0.97373  1.0000
  C   C38       1.0  0.42736  0.97327  0.52622  1.0000
  C   C39       1.0  0.54602  0.97346  0.02626  1.0000
  C   C40       1.0  0.57264  0.02673  0.47378  1.0000
  C   C41       1.0  0.51134  0.81402  0.74167  1.0000
  C   C42       1.0  0.69770  0.18587  0.75826  1.0000
  C   C43       1.0  0.48864  0.18598  0.25833  1.0000
  C   C44       1.0  0.30229  0.81412  0.24174  1.0000
  C   C45       1.0  0.34183  0.72378  0.74670  1.0000
  C   C46       1.0  0.61882  0.27630  0.75326  1.0000
  C   C47       1.0  0.65815  0.27622  0.25331  1.0000
  C   C48       1.0  0.38118  0.72370  0.24674  1.0000
  C   C49       1.0  0.29757  0.66913  0.81915  1.0000
  C   C50       1.0  0.62882  0.33086  0.68079  1.0000
  C   C51       1.0  0.70241  0.33087  0.18085  1.0000
  C   C52       1.0  0.37118  0.66914  0.31920  1.0000
  C   C53       1.0  0.13895  0.58680  0.82356  1.0000
  C   C54       1.0  0.55241  0.41305  0.67646  1.0000
  C   C55       1.0  0.86103  0.41320  0.17645  1.0000
  C   C56       1.0  0.44760  0.58695  0.32354  1.0000
  C   C57       1.0  0.02285  0.55856  0.75607  1.0000
  C   C58       1.0  0.46471  0.44121  0.74402  1.0000
  C   C59       1.0  0.97714  0.44144  0.24394  1.0000
  C   C60       1.0  0.53529  0.55879  0.25598  1.0000
  C   C61       1.0  0.06592  0.61293  0.68375  1.0000
  C   C62       1.0  0.45384  0.38698  0.81636  1.0000
  C   C63       1.0  0.93407  0.38707  0.31625  1.0000
  C   C64       1.0  0.54616  0.61302  0.18364  1.0000
  C   C65       1.0  0.22478  0.69515  0.67915  1.0000
  C   C66       1.0  0.53076  0.30503  0.82092  1.0000
  C   C67       1.0  0.77521  0.30485  0.32086  1.0000
  C   C68       1.0  0.46925  0.69497  0.17907  1.0000
  N   N1        1.0  0.01649  0.06017  0.85582  1.0000
  N   N2        1.0  0.95565  0.93940  0.64392  1.0000
  N   N3        1.0  0.98351  0.93983  0.14418  1.0000
  N   N4        1.0  0.04435  0.06060  0.35608  1.0000
  N   N5        1.0  0.18650  0.04413  0.95224  1.0000
  N   N6        1.0  0.14196  0.95530  0.54764  1.0000
  N   N7        1.0  0.81350  0.95586  0.04776  1.0000
  N   N8        1.0  0.85804  0.04470  0.45236  1.0000
  O   O1        1.0  0.61846  0.83250  0.80200  1.0000
  O   O2        1.0  0.78640  0.16742  0.69797  1.0000
  O   O3        1.0  0.38151  0.16751  0.19801  1.0000
  O   O4        1.0  0.21361  0.83259  0.30203  1.0000
  O   O5        1.0  0.54348  0.86973  0.67857  1.0000
  O   O6        1.0  0.67366  0.13001  0.82128  1.0000
  O   O7        1.0  0.45651  0.13026  0.32143  1.0000
  O   O8        1.0  0.32633  0.86997  0.17870  1.0000
