data_image0
_chemical_formula_structural       Cd2H40C56N4O8
_chemical_formula_sum              "Cd2 H40 C56 N4 O8"
_cell_length_a       5.33832
_cell_length_b       11.7065
_cell_length_c       18.8743
_cell_angle_alpha    88.1383
_cell_angle_beta     81.8709
_cell_angle_gamma    76.8344

_space_group_name_H-M_alt    "P 1"
_space_group_IT_number       1

loop_
  _space_group_symop_operation_xyz
  'x, y, z'

loop_
  _atom_site_type_symbol
  _atom_site_label
  _atom_site_symmetry_multiplicity
  _atom_site_fract_x
  _atom_site_fract_y
  _atom_site_fract_z
  _atom_site_occupancy
  Cd  Cd1       1.0  0.32446  0.99972  0.99995  1.0000
  Cd  Cd2       1.0  0.07491  0.50025  0.50001  1.0000
  H   H1        1.0  0.69124  0.30922  0.92053  1.0000
  H   H2        1.0  0.74966  0.19099  0.42033  1.0000
  H   H3        1.0  0.36085  0.80943  0.57956  1.0000
  H   H4        1.0  0.92108  0.69039  0.07953  1.0000
  H   H5        1.0  0.81053  0.56199  0.75341  1.0000
  H   H6        1.0  0.12323  0.93872  0.25321  1.0000
  H   H7        1.0  0.31453  0.06170  0.74673  1.0000
  H   H8        1.0  0.12635  0.43770  0.24662  1.0000
  H   H9        1.0  0.24327  0.44359  0.71537  1.0000
  H   H10       1.0  0.43703  0.05752  0.21529  1.0000
  H   H11       1.0  0.70934  0.94315  0.78461  1.0000
  H   H12       1.0  0.40203  0.55633  0.28482  1.0000
  H   H13       1.0  0.41338  0.25697  0.78047  1.0000
  H   H14       1.0  0.41981  0.24404  0.28056  1.0000
  H   H15       1.0  0.94383  0.75657  0.71941  1.0000
  H   H16       1.0  0.45030  0.74305  0.21974  1.0000
  H   H17       1.0  0.34313  0.47433  0.90817  1.0000
  H   H18       1.0  0.56763  0.02581  0.40778  1.0000
  H   H19       1.0  0.00047  0.97452  0.59216  1.0000
  H   H20       1.0  0.72618  0.52522  0.09187  1.0000
  H   H21       1.0  0.49748  0.67573  0.81548  1.0000
  H   H22       1.0  0.92424  0.82442  0.31538  1.0000
  H   H23       1.0  0.06289  0.17586  0.68469  1.0000
  H   H24       1.0  0.98938  0.32376  0.18441  1.0000
  H   H25       1.0  0.93783  0.57448  0.93514  1.0000
  H   H26       1.0  0.26346  0.92559  0.43497  1.0000
  H   H27       1.0  0.62228  0.07479  0.56511  1.0000
  H   H28       1.0  0.44825  0.42496  0.06478  1.0000
  H   H29       1.0  0.54611  0.72030  0.98779  1.0000
  H   H30       1.0  0.01739  0.77977  0.48770  1.0000
  H   H31       1.0  0.28387  0.22081  0.51232  1.0000
  H   H32       1.0  0.25513  0.27908  0.01209  1.0000
  H   H33       1.0  0.83256  0.99880  0.89670  1.0000
  H   H34       1.0  0.58180  0.50116  0.39671  1.0000
  H   H35       1.0  0.48015  0.49916  0.60324  1.0000
  H   H36       1.0  0.72874  0.00051  0.10315  1.0000
  H   H37       1.0  0.24080  0.86537  0.83997  1.0000
  H   H38       1.0  0.85699  0.63460  0.33996  1.0000
  H   H39       1.0  0.83126  0.36554  0.66009  1.0000
  H   H40       1.0  0.94697  0.13403  0.15985  1.0000
  C   C1        1.0  0.16865  0.16516  0.89546  1.0000
  C   C2        1.0  0.08315  0.33515  0.39563  1.0000
  C   C3        1.0  0.81338  0.66528  0.60437  1.0000
  C   C4        1.0  0.22909  0.83460  0.10462  1.0000
  C   C5        1.0  0.06089  0.27244  0.85400  1.0000
  C   C6        1.0  0.08271  0.22812  0.35397  1.0000
  C   C7        1.0  0.66433  0.77239  0.64599  1.0000
  C   C8        1.0  0.18711  0.72740  0.14616  1.0000
  C   C9        1.0  0.81040  0.33970  0.87542  1.0000
  C   C10       1.0  0.89953  0.16073  0.37522  1.0000
  C   C11       1.0  0.43520  0.83977  0.62467  1.0000
  C   C12       1.0  0.02545  0.66004  0.12471  1.0000
  C   C13       1.0  0.71551  0.44588  0.84094  1.0000
  C   C14       1.0  0.91151  0.05454  0.34070  1.0000
  C   C15       1.0  0.30617  0.94590  0.65922  1.0000
  C   C16       1.0  0.00257  0.55379  0.15916  1.0000
  C   C17       1.0  0.87646  0.48131  0.78251  1.0000
  C   C18       1.0  0.10814  0.01939  0.28234  1.0000
  C   C19       1.0  0.40919  0.98106  0.71760  1.0000
  C   C20       1.0  0.14041  0.51846  0.21759  1.0000
  C   C21       1.0  0.12350  0.41350  0.76035  1.0000
  C   C22       1.0  0.28703  0.08744  0.26026  1.0000
  C   C23       1.0  0.63424  0.91319  0.73965  1.0000
  C   C24       1.0  0.29736  0.58633  0.23978  1.0000
  C   C25       1.0  0.21747  0.30940  0.79587  1.0000
  C   C26       1.0  0.27642  0.19148  0.29586  1.0000
  C   C27       1.0  0.76325  0.80910  0.70410  1.0000
  C   C28       1.0  0.32249  0.69048  0.20430  1.0000
  C   C29       1.0  0.46177  0.51748  0.86878  1.0000
  C   C30       1.0  0.72976  0.98268  0.36851  1.0000
  C   C31       1.0  0.08001  0.01761  0.63151  1.0000
  C   C32       1.0  0.84861  0.48205  0.13125  1.0000
  C   C33       1.0  0.37363  0.63172  0.85264  1.0000
  C   C34       1.0  0.75628  0.86836  0.35248  1.0000
  C   C35       1.0  0.97597  0.13191  0.64759  1.0000
  C   C36       1.0  0.85868  0.36775  0.14727  1.0000
  C   C37       1.0  0.13043  0.70728  0.88379  1.0000
  C   C38       1.0  0.58867  0.79274  0.38368  1.0000
  C   C39       1.0  0.76398  0.20750  0.61643  1.0000
  C   C40       1.0  0.72220  0.29213  0.11611  1.0000
  C   C41       1.0  0.92746  0.66765  0.92601  1.0000
  C   C42       1.0  0.34613  0.83241  0.42587  1.0000
  C   C43       1.0  0.60311  0.16794  0.57422  1.0000
  C   C44       1.0  0.52195  0.33177  0.07387  1.0000
  C   C45       1.0  0.70751  0.74829  0.95539  1.0000
  C   C46       1.0  0.20672  0.75177  0.45531  1.0000
  C   C47       1.0  0.41288  0.24869  0.54476  1.0000
  C   C48       1.0  0.41205  0.25110  0.04450  1.0000
  C   C49       1.0  0.86615  0.90410  0.90398  1.0000
  C   C50       1.0  0.52099  0.59588  0.40397  1.0000
  C   C51       1.0  0.52063  0.40443  0.59607  1.0000
  C   C52       1.0  0.67499  0.09524  0.09588  1.0000
  C   C53       1.0  0.09198  0.82919  0.87265  1.0000
  C   C54       1.0  0.67203  0.67079  0.37263  1.0000
  C   C55       1.0  0.71491  0.32943  0.62747  1.0000
  C   C56       1.0  0.79462  0.17020  0.12720  1.0000
  N   N1        1.0  0.67593  0.86484  0.94512  1.0000
  N   N2        1.0  0.29153  0.63520  0.44508  1.0000
  N   N3        1.0  0.37151  0.36523  0.55494  1.0000
  N   N4        1.0  0.48669  0.13454  0.05475  1.0000
  O   O1        1.0  0.39391  0.10475  0.87481  1.0000
  O   O2        1.0  0.24816  0.39562  0.37514  1.0000
  O   O3        1.0  0.01771  0.60451  0.62505  1.0000
  O   O4        1.0  0.37304  0.89518  0.12524  1.0000
  O   O5        1.0  0.02616  0.14237  0.95289  1.0000
  O   O6        1.0  0.91794  0.35771  0.45307  1.0000
  O   O7        1.0  0.72864  0.64295  0.54682  1.0000
  O   O8        1.0  0.12164  0.85708  0.04711  1.0000
