data_image0
_chemical_formula_structural       Zn2H52C76N4O8
_chemical_formula_sum              "Zn2 H52 C76 N4 O8"
_cell_length_a       9.08082
_cell_length_b       9.08103
_cell_length_c       17.951
_cell_angle_alpha    94.0982
_cell_angle_beta     94.0971
_cell_angle_gamma    106.228

_space_group_name_H-M_alt    "P 1"
_space_group_IT_number       1

loop_
  _space_group_symop_operation_xyz
  'x, y, z'

loop_
  _atom_site_type_symbol
  _atom_site_label
  _atom_site_symmetry_multiplicity
  _atom_site_fract_x
  _atom_site_fract_y
  _atom_site_fract_z
  _atom_site_occupancy
  Zn  Zn1       1.0  0.62324  0.47287  0.92516  1.0000
  Zn  Zn2       1.0  0.47288  0.62325  0.42517  1.0000
  H   H1        1.0  0.32082  0.69684  0.93479  1.0000
  H   H2        1.0  0.69684  0.32081  0.43479  1.0000
  H   H3        1.0  0.31993  0.63922  0.56313  1.0000
  H   H4        1.0  0.63919  0.31996  0.06313  1.0000
  H   H5        1.0  0.80626  0.43415  0.79335  1.0000
  H   H6        1.0  0.43415  0.80627  0.29334  1.0000
  H   H7        1.0  0.34431  0.81758  0.67577  1.0000
  H   H8        1.0  0.81757  0.34433  0.17577  1.0000
  H   H9        1.0  0.76856  0.25774  0.67710  1.0000
  H   H10       1.0  0.25774  0.76857  0.17709  1.0000
  H   H11       1.0  0.13386  0.08400  0.92555  1.0000
  H   H12       1.0  0.08399  0.13387  0.42554  1.0000
  H   H13       1.0  0.59615  0.84968  0.79485  1.0000
  H   H14       1.0  0.84968  0.59611  0.29484  1.0000
  H   H15       1.0  0.41528  0.44640  0.20394  1.0000
  H   H16       1.0  0.44641  0.41527  0.70394  1.0000
  H   H17       1.0  0.45643  0.80134  0.05902  1.0000
  H   H18       1.0  0.80135  0.45644  0.55902  1.0000
  H   H19       1.0  0.18762  0.25421  0.07973  1.0000
  H   H20       1.0  0.25422  0.18763  0.57972  1.0000
  H   H21       1.0  0.39385  0.18588  0.86501  1.0000
  H   H22       1.0  0.18587  0.39386  0.36501  1.0000
  H   H23       1.0  0.11725  0.28435  0.78617  1.0000
  H   H24       1.0  0.28434  0.11725  0.28618  1.0000
  H   H25       1.0  0.15055  0.83443  0.87001  1.0000
  H   H26       1.0  0.83443  0.15054  0.37002  1.0000
  H   H27       1.0  0.33289  0.00256  0.75019  1.0000
  H   H28       1.0  0.00256  0.33290  0.25019  1.0000
  H   H29       1.0  0.68342  0.15412  0.56977  1.0000
  H   H30       1.0  0.15412  0.68343  0.06977  1.0000
  H   H31       1.0  0.57816  0.96204  0.18810  1.0000
  H   H32       1.0  0.96204  0.57815  0.68810  1.0000
  H   H33       1.0  0.00008  0.92521  0.54774  1.0000
  H   H34       1.0  0.92521  0.00010  0.04775  1.0000
  H   H35       1.0  0.64563  0.63875  0.66452  1.0000
  H   H36       1.0  0.63874  0.64562  0.16453  1.0000
  H   H37       1.0  0.72195  0.01200  0.94941  1.0000
  H   H38       1.0  0.01200  0.72194  0.44941  1.0000
  H   H39       1.0  0.10458  0.40088  0.91444  1.0000
  H   H40       1.0  0.40090  0.10461  0.41445  1.0000
  H   H41       1.0  0.91344  0.26283  0.99614  1.0000
  H   H42       1.0  0.26282  0.91346  0.49614  1.0000
  H   H43       1.0  0.65165  0.95486  0.46328  1.0000
  H   H44       1.0  0.95485  0.65165  0.96328  1.0000
  H   H45       1.0  0.58371  0.39218  0.30901  1.0000
  H   H46       1.0  0.39218  0.58372  0.80900  1.0000
  H   H47       1.0  0.65952  0.14875  0.30074  1.0000
  H   H48       1.0  0.14875  0.65953  0.80074  1.0000
  H   H49       1.0  0.78327  0.68892  0.55061  1.0000
  H   H50       1.0  0.68892  0.78329  0.05062  1.0000
  H   H51       1.0  0.08263  0.11759  0.66033  1.0000
  H   H52       1.0  0.11759  0.08263  0.16032  1.0000
  C   C1        1.0  0.31061  0.80615  0.95977  1.0000
  C   C2        1.0  0.80615  0.31060  0.45977  1.0000
  C   C3        1.0  0.40130  0.75359  0.56761  1.0000
  C   C4        1.0  0.75358  0.40131  0.06761  1.0000
  C   C5        1.0  0.38216  0.38611  0.02905  1.0000
  C   C6        1.0  0.38611  0.38217  0.52904  1.0000
  C   C7        1.0  0.70386  0.33614  0.78128  1.0000
  C   C8        1.0  0.33615  0.70385  0.28128  1.0000
  C   C9        1.0  0.39873  0.23291  0.13868  1.0000
  C   C10       1.0  0.23291  0.39872  0.63868  1.0000
  C   C11       1.0  0.41428  0.85640  0.63028  1.0000
  C   C12       1.0  0.85639  0.41428  0.13028  1.0000
  C   C13       1.0  0.68002  0.23772  0.71600  1.0000
  C   C14       1.0  0.23772  0.68002  0.21599  1.0000
  C   C15       1.0  0.92835  0.08118  0.79650  1.0000
  C   C16       1.0  0.08120  0.92832  0.29649  1.0000
  C   C17       1.0  0.81575  0.00575  0.84223  1.0000
  C   C18       1.0  0.00576  0.81573  0.34223  1.0000
  C   C19       1.0  0.78588  0.85184  0.72687  1.0000
  C   C20       1.0  0.85184  0.78586  0.22688  1.0000
  C   C21       1.0  0.54584  0.11329  0.70224  1.0000
  C   C22       1.0  0.11329  0.54583  0.20223  1.0000
  C   C23       1.0  0.52009  0.00366  0.63444  1.0000
  C   C24       1.0  0.00366  0.52008  0.13443  1.0000
  C   C25       1.0  0.44507  0.09619  0.13345  1.0000
  C   C26       1.0  0.09619  0.44507  0.63345  1.0000
  C   C27       1.0  0.20558  0.02466  0.95496  1.0000
  C   C28       1.0  0.02467  0.20558  0.45496  1.0000
  C   C29       1.0  0.71865  0.85332  0.80160  1.0000
  C   C30       1.0  0.85332  0.71862  0.30160  1.0000
  C   C31       1.0  0.44902  0.34014  0.20118  1.0000
  C   C32       1.0  0.34013  0.44899  0.70118  1.0000
  C   C33       1.0  0.38992  0.86651  0.02992  1.0000
  C   C34       1.0  0.86652  0.38995  0.52991  1.0000
  C   C35       1.0  0.37758  0.00726  0.06177  1.0000
  C   C36       1.0  0.00727  0.37761  0.56176  1.0000
  C   C37       1.0  0.30044  0.24023  0.06747  1.0000
  C   C38       1.0  0.24023  0.30045  0.56746  1.0000
  C   C39       1.0  0.90937  0.98630  0.72520  1.0000
  C   C40       1.0  0.98631  0.90934  0.22519  1.0000
  C   C41       1.0  0.47222  0.19735  0.82118  1.0000
  C   C42       1.0  0.19736  0.47223  0.32118  1.0000
  C   C43       1.0  0.73150  0.72006  0.84744  1.0000
  C   C44       1.0  0.72006  0.73149  0.34745  1.0000
  C   C45       1.0  0.03155  0.22463  0.82156  1.0000
  C   C46       1.0  0.22462  0.03154  0.32156  1.0000
  C   C47       1.0  0.28747  0.08780  0.02364  1.0000
  C   C48       1.0  0.08781  0.28748  0.52364  1.0000
  C   C49       1.0  0.21761  0.88375  0.92321  1.0000
  C   C50       1.0  0.88374  0.21760  0.42322  1.0000
  C   C51       1.0  0.44068  0.09496  0.75697  1.0000
  C   C52       1.0  0.09496  0.44068  0.25697  1.0000
  C   C53       1.0  0.60390  0.04057  0.57229  1.0000
  C   C54       1.0  0.04057  0.60389  0.07229  1.0000
  C   C55       1.0  0.54048  0.06615  0.19157  1.0000
  C   C56       1.0  0.06614  0.54046  0.69158  1.0000
  C   C57       1.0  0.94255  0.90435  0.59883  1.0000
  C   C58       1.0  0.90435  0.94257  0.09884  1.0000
  C   C59       1.0  0.74117  0.74315  0.66468  1.0000
  C   C60       1.0  0.74315  0.74115  0.16468  1.0000
  C   C61       1.0  0.80818  0.07072  0.91382  1.0000
  C   C62       1.0  0.07071  0.80815  0.41381  1.0000
  C   C63       1.0  0.02338  0.29012  0.89343  1.0000
  C   C64       1.0  0.29013  0.02342  0.39343  1.0000
  C   C65       1.0  0.91440  0.21295  0.93934  1.0000
  C   C66       1.0  0.21295  0.91443  0.43933  1.0000
  C   C67       1.0  0.58644  0.93078  0.51192  1.0000
  C   C68       1.0  0.93078  0.58643  0.01191  1.0000
  C   C69       1.0  0.54411  0.30948  0.25953  1.0000
  C   C70       1.0  0.30948  0.54410  0.75952  1.0000
  C   C71       1.0  0.58828  0.17331  0.25463  1.0000
  C   C72       1.0  0.17332  0.58829  0.75463  1.0000
  C   C73       1.0  0.81978  0.77108  0.60038  1.0000
  C   C74       1.0  0.77109  0.81979  0.10039  1.0000
  C   C75       1.0  0.98864  0.01271  0.66136  1.0000
  C   C76       1.0  0.01272  0.98863  0.16136  1.0000
  N   N1        1.0  0.60153  0.31697  0.83325  1.0000
  N   N2        1.0  0.31698  0.60153  0.33325  1.0000
  N   N3        1.0  0.48742  0.78847  0.50969  1.0000
  N   N4        1.0  0.78847  0.48742  0.00969  1.0000
  O   O1        1.0  0.43709  0.35583  0.96698  1.0000
  O   O2        1.0  0.35583  0.43709  0.46698  1.0000
  O   O3        1.0  0.84644  0.67045  0.84634  1.0000
  O   O4        1.0  0.67045  0.84643  0.34635  1.0000
  O   O5        1.0  0.61598  0.66851  0.88657  1.0000
  O   O6        1.0  0.66850  0.61597  0.38657  1.0000
  O   O7        1.0  0.39281  0.51528  0.06050  1.0000
  O   O8        1.0  0.51528  0.39281  0.56049  1.0000
