data_image0
_chemical_formula_structural       Zn4H32C48N8O16
_chemical_formula_sum              "Zn4 H32 C48 N8 O16"
_cell_length_a       7.84578
_cell_length_b       7.84578
_cell_length_c       20.0799
_cell_angle_alpha    90
_cell_angle_beta     89.9996
_cell_angle_gamma    90.047

_space_group_name_H-M_alt    "P 1"
_space_group_IT_number       1

loop_
  _space_group_symop_operation_xyz
  'x, y, z'

loop_
  _atom_site_type_symbol
  _atom_site_label
  _atom_site_symmetry_multiplicity
  _atom_site_fract_x
  _atom_site_fract_y
  _atom_site_fract_z
  _atom_site_occupancy
  Zn  Zn1       1.0  0.32657  0.32657  1.00000  1.0000
  Zn  Zn2       1.0  0.67344  0.67344  0.50000  1.0000
  Zn  Zn3       1.0  0.17342  0.82659  0.75000  1.0000
  Zn  Zn4       1.0  0.82658  0.17341  0.25000  1.0000
  H   H1        1.0  0.30534  0.69546  0.98160  1.0000
  H   H2        1.0  0.69465  0.30452  0.48161  1.0000
  H   H3        1.0  0.80455  0.80563  0.73161  1.0000
  H   H4        1.0  0.19545  0.19437  0.23161  1.0000
  H   H5        1.0  0.19437  0.19546  0.76839  1.0000
  H   H6        1.0  0.80563  0.80453  0.26839  1.0000
  H   H7        1.0  0.69548  0.30534  0.01839  1.0000
  H   H8        1.0  0.30454  0.69466  0.51840  1.0000
  H   H9        1.0  0.46767  0.94682  0.16105  1.0000
  H   H10       1.0  0.53231  0.05317  0.66106  1.0000
  H   H11       1.0  0.55343  0.96857  0.91096  1.0000
  H   H12       1.0  0.44657  0.03143  0.41095  1.0000
  H   H13       1.0  0.03144  0.44657  0.58904  1.0000
  H   H14       1.0  0.96857  0.55343  0.08904  1.0000
  H   H15       1.0  0.94683  0.46768  0.83894  1.0000
  H   H16       1.0  0.05319  0.53234  0.33895  1.0000
  H   H17       1.0  0.50028  0.65358  0.21343  1.0000
  H   H18       1.0  0.49971  0.34643  0.71343  1.0000
  H   H19       1.0  0.84660  0.00046  0.96345  1.0000
  H   H20       1.0  0.15340  0.99954  0.46345  1.0000
  H   H21       1.0  0.99954  0.15340  0.53655  1.0000
  H   H22       1.0  0.00047  0.84660  0.03655  1.0000
  H   H23       1.0  0.65358  0.50029  0.78657  1.0000
  H   H24       1.0  0.34643  0.49973  0.28658  1.0000
  H   H25       1.0  0.43028  0.39566  0.14559  1.0000
  H   H26       1.0  0.56971  0.60433  0.64559  1.0000
  H   H27       1.0  0.10448  0.92985  0.89572  1.0000
  H   H28       1.0  0.89552  0.07015  0.39572  1.0000
  H   H29       1.0  0.07014  0.89553  0.60428  1.0000
  H   H30       1.0  0.92985  0.10447  0.10428  1.0000
  H   H31       1.0  0.39567  0.43029  0.85441  1.0000
  H   H32       1.0  0.60434  0.56973  0.35441  1.0000
  C   C1        1.0  0.34854  0.69045  0.03326  1.0000
  C   C2        1.0  0.65145  0.30954  0.53327  1.0000
  C   C3        1.0  0.80955  0.84884  0.78327  1.0000
  C   C4        1.0  0.19045  0.15117  0.28327  1.0000
  C   C5        1.0  0.15116  0.19045  0.71673  1.0000
  C   C6        1.0  0.84883  0.80954  0.21673  1.0000
  C   C7        1.0  0.69046  0.34853  0.96673  1.0000
  C   C8        1.0  0.30955  0.65147  0.46674  1.0000
  C   C9        1.0  0.38326  0.84083  0.06771  1.0000
  C   C10       1.0  0.61672  0.15916  0.56772  1.0000
  C   C11       1.0  0.65921  0.88384  0.81767  1.0000
  C   C12       1.0  0.34079  0.11615  0.31767  1.0000
  C   C13       1.0  0.11616  0.34080  0.68233  1.0000
  C   C14       1.0  0.88384  0.65920  0.18233  1.0000
  C   C15       1.0  0.84085  0.38327  0.93228  1.0000
  C   C16       1.0  0.15917  0.61675  0.43229  1.0000
  C   C17       1.0  0.43893  0.82981  0.13376  1.0000
  C   C18       1.0  0.56105  0.17020  0.63377  1.0000
  C   C19       1.0  0.67042  0.93950  0.88373  1.0000
  C   C20       1.0  0.32957  0.06050  0.38373  1.0000
  C   C21       1.0  0.06051  0.32958  0.61627  1.0000
  C   C22       1.0  0.93950  0.67041  0.11627  1.0000
  C   C23       1.0  0.82981  0.43894  0.86623  1.0000
  C   C24       1.0  0.17020  0.56108  0.36623  1.0000
  C   C25       1.0  0.45556  0.66873  0.16246  1.0000
  C   C26       1.0  0.54442  0.33127  0.66246  1.0000
  C   C27       1.0  0.83148  0.95576  0.91248  1.0000
  C   C28       1.0  0.16851  0.04424  0.41248  1.0000
  C   C29       1.0  0.04424  0.16852  0.58752  1.0000
  C   C30       1.0  0.95577  0.83148  0.08752  1.0000
  C   C31       1.0  0.66874  0.45557  0.83754  1.0000
  C   C32       1.0  0.33127  0.54445  0.33754  1.0000
  C   C33       1.0  0.41755  0.52393  0.12503  1.0000
  C   C34       1.0  0.58244  0.47607  0.62503  1.0000
  C   C35       1.0  0.97621  0.91743  0.87512  1.0000
  C   C36       1.0  0.02378  0.08257  0.37511  1.0000
  C   C37       1.0  0.08257  0.02379  0.62488  1.0000
  C   C38       1.0  0.91743  0.97621  0.12489  1.0000
  C   C39       1.0  0.52394  0.41755  0.87497  1.0000
  C   C40       1.0  0.47608  0.58246  0.37497  1.0000
  C   C41       1.0  0.35596  0.00723  0.03275  1.0000
  C   C42       1.0  0.64403  0.99275  0.53277  1.0000
  C   C43       1.0  0.49264  0.85651  0.78282  1.0000
  C   C44       1.0  0.50736  0.14349  0.28282  1.0000
  C   C45       1.0  0.14349  0.50736  0.71718  1.0000
  C   C46       1.0  0.85650  0.49263  0.21718  1.0000
  C   C47       1.0  0.00725  0.35597  0.96724  1.0000
  C   C48       1.0  0.99277  0.64405  0.46725  1.0000
  N   N1        1.0  0.36516  0.53583  0.06116  1.0000
  N   N2        1.0  0.63484  0.46416  0.56117  1.0000
  N   N3        1.0  0.96420  0.86512  0.81123  1.0000
  N   N4        1.0  0.03580  0.13489  0.31123  1.0000
  N   N5        1.0  0.13488  0.03581  0.68877  1.0000
  N   N6        1.0  0.86511  0.96419  0.18877  1.0000
  N   N7        1.0  0.53585  0.36515  0.93883  1.0000
  N   N8        1.0  0.46417  0.63485  0.43884  1.0000
  O   O1        1.0  0.39824  0.14367  0.06455  1.0000
  O   O2        1.0  0.60174  0.85632  0.56456  1.0000
  O   O3        1.0  0.35636  0.89925  0.81456  1.0000
  O   O4        1.0  0.64364  0.10074  0.31456  1.0000
  O   O5        1.0  0.10076  0.64364  0.68544  1.0000
  O   O6        1.0  0.89922  0.35635  0.18544  1.0000
  O   O7        1.0  0.14368  0.39825  0.93544  1.0000
  O   O8        1.0  0.85633  0.60176  0.43545  1.0000
  O   O9        1.0  0.29362  0.00811  0.97502  1.0000
  O   O10       1.0  0.70638  0.99187  0.47503  1.0000
  O   O11       1.0  0.49150  0.79348  0.72519  1.0000
  O   O12       1.0  0.50851  0.20650  0.22519  1.0000
  O   O13       1.0  0.20653  0.50850  0.77481  1.0000
  O   O14       1.0  0.79350  0.49149  0.27482  1.0000
  O   O15       1.0  0.00812  0.29363  0.02497  1.0000
  O   O16       1.0  0.99189  0.70639  0.52498  1.0000
