data_image0
_chemical_formula_structural       Cu4H36C44N16
_chemical_formula_sum              "Cu4 H36 C44 N16"
_cell_length_a       9.23688
_cell_length_b       11.22
_cell_length_c       14.4692
_cell_angle_alpha    89.9999
_cell_angle_beta     90.0006
_cell_angle_gamma    101.578

_space_group_name_H-M_alt    "P 1"
_space_group_IT_number       1

loop_
  _space_group_symop_operation_xyz
  'x, y, z'

loop_
  _atom_site_type_symbol
  _atom_site_label
  _atom_site_symmetry_multiplicity
  _atom_site_fract_x
  _atom_site_fract_y
  _atom_site_fract_z
  _atom_site_occupancy
  Cu  Cu1       1.0  0.45806  0.99298  0.91650  1.0000
  Cu  Cu2       1.0  0.54193  0.50702  0.41650  1.0000
  Cu  Cu3       1.0  0.54194  0.00702  0.08350  1.0000
  Cu  Cu4       1.0  0.45806  0.49298  0.58349  1.0000
  H   H1        1.0  0.37202  0.72818  0.63441  1.0000
  H   H2        1.0  0.62798  0.77182  0.13441  1.0000
  H   H3        1.0  0.62799  0.27182  0.36559  1.0000
  H   H4        1.0  0.37202  0.22818  0.86559  1.0000
  H   H5        1.0  0.41784  0.88347  0.75862  1.0000
  H   H6        1.0  0.58215  0.61653  0.25862  1.0000
  H   H7        1.0  0.58216  0.11653  0.24138  1.0000
  H   H8        1.0  0.41785  0.38347  0.74138  1.0000
  H   H9        1.0  0.72758  0.68259  0.87702  1.0000
  H   H10       1.0  0.27242  0.81741  0.37701  1.0000
  H   H11       1.0  0.27242  0.31741  0.12298  1.0000
  H   H12       1.0  0.72759  0.18259  0.62298  1.0000
  H   H13       1.0  0.67256  0.53969  0.74834  1.0000
  H   H14       1.0  0.32745  0.96032  0.24834  1.0000
  H   H15       1.0  0.32744  0.46031  0.25166  1.0000
  H   H16       1.0  0.67256  0.03969  0.75166  1.0000
  H   H17       1.0  0.80565  0.85502  0.93732  1.0000
  H   H18       1.0  0.19435  0.64497  0.43732  1.0000
  H   H19       1.0  0.19435  0.14497  0.06268  1.0000
  H   H20       1.0  0.80565  0.35503  0.56268  1.0000
  H   H21       1.0  0.12182  0.84164  0.16665  1.0000
  H   H22       1.0  0.87819  0.65835  0.66665  1.0000
  H   H23       1.0  0.87818  0.15835  0.83335  1.0000
  H   H24       1.0  0.12181  0.34165  0.33334  1.0000
  H   H25       1.0  0.91680  0.80714  0.05483  1.0000
  H   H26       1.0  0.08320  0.69286  0.55482  1.0000
  H   H27       1.0  0.08320  0.19286  0.94518  1.0000
  H   H28       1.0  0.91679  0.30714  0.44517  1.0000
  H   H29       1.0  0.80846  0.14521  0.14758  1.0000
  H   H30       1.0  0.19154  0.35478  0.64758  1.0000
  H   H31       1.0  0.19154  0.85479  0.85242  1.0000
  H   H32       1.0  0.80846  0.64521  0.35242  1.0000
  H   H33       1.0  0.01659  0.16242  0.25983  1.0000
  H   H34       1.0  0.98342  0.33758  0.75983  1.0000
  H   H35       1.0  0.98342  0.83758  0.74017  1.0000
  H   H36       1.0  0.01658  0.66243  0.24017  1.0000
  C   C1        1.0  0.45054  0.72159  0.68956  1.0000
  C   C2        1.0  0.54947  0.77841  0.18956  1.0000
  C   C3        1.0  0.54946  0.27841  0.31044  1.0000
  C   C4        1.0  0.45054  0.22159  0.81044  1.0000
  C   C5        1.0  0.47606  0.80794  0.75891  1.0000
  C   C6        1.0  0.52394  0.69206  0.25891  1.0000
  C   C7        1.0  0.52395  0.19206  0.24109  1.0000
  C   C8        1.0  0.47606  0.30794  0.74109  1.0000
  C   C9        1.0  0.57718  0.79865  0.83050  1.0000
  C   C10       1.0  0.42281  0.70135  0.33050  1.0000
  C   C11       1.0  0.42282  0.20135  0.16951  1.0000
  C   C12       1.0  0.57718  0.29865  0.66950  1.0000
  C   C13       1.0  0.64931  0.69905  0.82460  1.0000
  C   C14       1.0  0.35069  0.80095  0.32460  1.0000
  C   C15       1.0  0.35069  0.30095  0.17540  1.0000
  C   C16       1.0  0.64931  0.19905  0.67540  1.0000
  C   C17       1.0  0.61674  0.61671  0.75247  1.0000
  C   C18       1.0  0.38326  0.88329  0.25247  1.0000
  C   C19       1.0  0.38326  0.38329  0.24754  1.0000
  C   C20       1.0  0.61674  0.11671  0.74753  1.0000
  C   C21       1.0  0.71156  0.89537  0.95734  1.0000
  C   C22       1.0  0.28844  0.60463  0.45734  1.0000
  C   C23       1.0  0.28845  0.10464  0.04266  1.0000
  C   C24       1.0  0.71156  0.39537  0.54266  1.0000
  C   C25       1.0  0.04921  0.90739  0.16181  1.0000
  C   C26       1.0  0.95079  0.59260  0.66181  1.0000
  C   C27       1.0  0.95079  0.09261  0.83819  1.0000
  C   C28       1.0  0.04920  0.40740  0.33819  1.0000
  C   C29       1.0  0.93493  0.88884  0.09750  1.0000
  C   C30       1.0  0.06508  0.61115  0.59750  1.0000
  C   C31       1.0  0.06507  0.11116  0.90250  1.0000
  C   C32       1.0  0.93492  0.38885  0.40249  1.0000
  C   C33       1.0  0.84281  0.97454  0.09086  1.0000
  C   C34       1.0  0.15719  0.52546  0.59086  1.0000
  C   C35       1.0  0.15719  0.02546  0.90914  1.0000
  C   C36       1.0  0.84281  0.47454  0.40914  1.0000
  C   C37       1.0  0.87520  0.07526  0.15083  1.0000
  C   C38       1.0  0.12480  0.42473  0.65083  1.0000
  C   C39       1.0  0.12480  0.92474  0.84917  1.0000
  C   C40       1.0  0.87519  0.57527  0.34917  1.0000
  C   C41       1.0  0.99163  0.08440  0.21317  1.0000
  C   C42       1.0  0.00838  0.41560  0.71317  1.0000
  C   C43       1.0  0.00838  0.91560  0.78683  1.0000
  C   C44       1.0  0.99162  0.58440  0.28683  1.0000
  N   N1        1.0  0.51746  0.62514  0.68527  1.0000
  N   N2        1.0  0.48254  0.87486  0.18527  1.0000
  N   N3        1.0  0.48254  0.37485  0.31473  1.0000
  N   N4        1.0  0.51747  0.12515  0.81473  1.0000
  N   N5        1.0  0.59354  0.88196  0.90225  1.0000
  N   N6        1.0  0.40645  0.61804  0.40225  1.0000
  N   N7        1.0  0.40646  0.11804  0.09775  1.0000
  N   N8        1.0  0.59355  0.38196  0.59775  1.0000
  N   N9        1.0  0.71946  0.96299  0.03321  1.0000
  N   N10       1.0  0.28054  0.53700  0.53321  1.0000
  N   N11       1.0  0.28055  0.03701  0.96679  1.0000
  N   N12       1.0  0.71946  0.46299  0.46679  1.0000
  N   N13       1.0  0.07909  0.00225  0.22031  1.0000
  N   N14       1.0  0.92092  0.49775  0.72031  1.0000
  N   N15       1.0  0.92091  0.99776  0.77969  1.0000
  N   N16       1.0  0.07908  0.50225  0.27969  1.0000
