data_image0
_chemical_formula_structural       Cu4H36C44N16
_chemical_formula_sum              "Cu4 H36 C44 N16"
_cell_length_a       10.5281
_cell_length_b       10.873
_cell_length_c       13.1001
_cell_angle_alpha    89.9989
_cell_angle_beta     105.145
_cell_angle_gamma    90.0007

_space_group_name_H-M_alt    "P 1"
_space_group_IT_number       1

loop_
  _space_group_symop_operation_xyz
  'x, y, z'

loop_
  _atom_site_type_symbol
  _atom_site_label
  _atom_site_symmetry_multiplicity
  _atom_site_fract_x
  _atom_site_fract_y
  _atom_site_fract_z
  _atom_site_occupancy
  Cu  Cu1       1.0  0.42435  0.59011  0.46503  1.0000
  Cu  Cu2       1.0  0.57565  0.09011  0.03497  1.0000
  Cu  Cu3       1.0  0.57566  0.40989  0.53497  1.0000
  Cu  Cu4       1.0  0.42434  0.90989  0.96503  1.0000
  H   H1        1.0  0.93082  0.68910  0.27418  1.0000
  H   H2        1.0  0.06916  0.18912  0.22581  1.0000
  H   H3        1.0  0.06919  0.31089  0.72583  1.0000
  H   H4        1.0  0.93082  0.81090  0.77418  1.0000
  H   H5        1.0  0.16429  0.67972  0.38082  1.0000
  H   H6        1.0  0.83569  0.17973  0.11915  1.0000
  H   H7        1.0  0.83572  0.32028  0.61917  1.0000
  H   H8        1.0  0.16429  0.82029  0.88083  1.0000
  H   H9        1.0  0.10538  0.29207  0.42589  1.0000
  H   H10       1.0  0.89461  0.79207  0.07411  1.0000
  H   H11       1.0  0.89464  0.70793  0.57412  1.0000
  H   H12       1.0  0.10537  0.20793  0.92589  1.0000
  H   H13       1.0  0.87644  0.31748  0.31859  1.0000
  H   H14       1.0  0.12355  0.81750  0.18142  1.0000
  H   H15       1.0  0.12357  0.68252  0.68144  1.0000
  H   H16       1.0  0.87643  0.18252  0.81859  1.0000
  H   H17       1.0  0.23494  0.35730  0.58578  1.0000
  H   H18       1.0  0.76505  0.85730  0.91421  1.0000
  H   H19       1.0  0.76507  0.64270  0.41422  1.0000
  H   H20       1.0  0.23493  0.14270  0.08579  1.0000
  H   H21       1.0  0.38980  0.29445  0.93809  1.0000
  H   H22       1.0  0.61024  0.79442  0.56193  1.0000
  H   H23       1.0  0.61021  0.70556  0.06192  1.0000
  H   H24       1.0  0.38977  0.20557  0.43807  1.0000
  H   H25       1.0  0.31644  0.39954  0.76390  1.0000
  H   H26       1.0  0.68358  0.89953  0.73612  1.0000
  H   H27       1.0  0.68358  0.60046  0.23610  1.0000
  H   H28       1.0  0.31642  0.10047  0.26389  1.0000
  H   H29       1.0  0.63313  0.21099  0.67272  1.0000
  H   H30       1.0  0.36686  0.71099  0.82727  1.0000
  H   H31       1.0  0.36687  0.78899  0.32728  1.0000
  H   H32       1.0  0.63314  0.28901  0.17272  1.0000
  H   H33       1.0  0.69168  0.11382  0.85111  1.0000
  H   H34       1.0  0.30832  0.61382  0.64889  1.0000
  H   H35       1.0  0.30832  0.88616  0.14889  1.0000
  H   H36       1.0  0.69167  0.38618  0.35110  1.0000
  C   C1        1.0  0.97256  0.60193  0.30939  1.0000
  C   C2        1.0  0.02742  0.10194  0.19059  1.0000
  C   C3        1.0  0.02745  0.39807  0.69062  1.0000
  C   C4        1.0  0.97256  0.89807  0.80940  1.0000
  C   C5        1.0  0.10277  0.59737  0.36886  1.0000
  C   C6        1.0  0.89721  0.09738  0.13112  1.0000
  C   C7        1.0  0.89724  0.40263  0.63114  1.0000
  C   C8        1.0  0.10277  0.90264  0.86886  1.0000
  C   C9        1.0  0.15481  0.48554  0.41635  1.0000
  C   C10       1.0  0.84518  0.98555  0.08364  1.0000
  C   C11       1.0  0.84520  0.51445  0.58365  1.0000
  C   C12       1.0  0.15481  0.01446  0.91635  1.0000
  C   C13       1.0  0.07016  0.38279  0.39605  1.0000
  C   C14       1.0  0.92983  0.88280  0.10394  1.0000
  C   C15       1.0  0.92985  0.61721  0.60396  1.0000
  C   C16       1.0  0.07016  0.11722  0.89605  1.0000
  C   C17       1.0  0.94184  0.39730  0.33455  1.0000
  C   C18       1.0  0.05815  0.89732  0.16545  1.0000
  C   C19       1.0  0.05816  0.60269  0.66546  1.0000
  C   C20       1.0  0.94184  0.10270  0.83455  1.0000
  C   C21       1.0  0.31422  0.39893  0.55707  1.0000
  C   C22       1.0  0.68577  0.89892  0.94292  1.0000
  C   C23       1.0  0.68579  0.60107  0.44293  1.0000
  C   C24       1.0  0.31422  0.10108  0.05707  1.0000
  C   C25       1.0  0.44078  0.27802  0.87663  1.0000
  C   C26       1.0  0.55925  0.77800  0.62339  1.0000
  C   C27       1.0  0.55924  0.72198  0.12338  1.0000
  C   C28       1.0  0.44075  0.22199  0.37661  1.0000
  C   C29       1.0  0.39898  0.33503  0.77891  1.0000
  C   C30       1.0  0.60103  0.83501  0.72109  1.0000
  C   C31       1.0  0.60103  0.66497  0.22109  1.0000
  C   C32       1.0  0.39897  0.16498  0.27890  1.0000
  C   C33       1.0  0.46867  0.31293  0.70204  1.0000
  C   C34       1.0  0.53133  0.81292  0.79796  1.0000
  C   C35       1.0  0.53134  0.68707  0.29795  1.0000
  C   C36       1.0  0.46866  0.18708  0.20205  1.0000
  C   C37       1.0  0.57705  0.23224  0.72987  1.0000
  C   C38       1.0  0.42295  0.73224  0.77013  1.0000
  C   C39       1.0  0.42297  0.76774  0.27014  1.0000
  C   C40       1.0  0.57703  0.26775  0.22987  1.0000
  C   C41       1.0  0.61020  0.17877  0.82908  1.0000
  C   C42       1.0  0.38981  0.67876  0.67091  1.0000
  C   C43       1.0  0.38980  0.82122  0.17092  1.0000
  C   C44       1.0  0.61019  0.32123  0.32908  1.0000
  N   N1        1.0  0.89052  0.50448  0.29159  1.0000
  N   N2        1.0  0.10946  0.00449  0.20840  1.0000
  N   N3        1.0  0.10949  0.49551  0.70843  1.0000
  N   N4        1.0  0.89051  0.99552  0.79159  1.0000
  N   N5        1.0  0.28426  0.47908  0.47725  1.0000
  N   N6        1.0  0.71573  0.97908  0.02274  1.0000
  N   N7        1.0  0.71576  0.52092  0.52275  1.0000
  N   N8        1.0  0.28425  0.02092  0.97725  1.0000
  N   N9        1.0  0.43885  0.37031  0.60409  1.0000
  N   N10       1.0  0.56114  0.87031  0.89591  1.0000
  N   N11       1.0  0.56115  0.62968  0.39591  1.0000
  N   N12       1.0  0.43885  0.12970  0.10409  1.0000
  N   N13       1.0  0.54477  0.20110  0.90316  1.0000
  N   N14       1.0  0.45525  0.70108  0.59685  1.0000
  N   N15       1.0  0.45523  0.79890  0.09685  1.0000
  N   N16       1.0  0.54475  0.29891  0.40315  1.0000
