data_image0
_chemical_formula_structural       Tb4H24C36N4O28
_chemical_formula_sum              "Tb4 H24 C36 N4 O28"
_cell_length_a       7.55317
_cell_length_b       8.44341
_cell_length_c       17.0651
_cell_angle_alpha    89.9999
_cell_angle_beta     90.0006
_cell_angle_gamma    104.744

_space_group_name_H-M_alt    "P 1"
_space_group_IT_number       1

loop_
  _space_group_symop_operation_xyz
  'x, y, z'

loop_
  _atom_site_type_symbol
  _atom_site_label
  _atom_site_symmetry_multiplicity
  _atom_site_fract_x
  _atom_site_fract_y
  _atom_site_fract_z
  _atom_site_occupancy
  Tb  Tb1       1.0  0.78176  0.07127  0.71589  1.0000
  Tb  Tb2       1.0  0.21824  0.42874  0.21588  1.0000
  Tb  Tb3       1.0  0.21824  0.92874  0.28412  1.0000
  Tb  Tb4       1.0  0.78175  0.57126  0.78412  1.0000
  H   H1        1.0  0.57429  0.70385  0.02500  1.0000
  H   H2        1.0  0.42571  0.79616  0.52499  1.0000
  H   H3        1.0  0.42571  0.29615  0.97501  1.0000
  H   H4        1.0  0.57429  0.20385  0.47501  1.0000
  H   H5        1.0  0.87074  0.19286  0.95964  1.0000
  H   H6        1.0  0.12927  0.30715  0.45964  1.0000
  H   H7        1.0  0.12926  0.80714  0.04036  1.0000
  H   H8        1.0  0.87073  0.69285  0.54036  1.0000
  H   H9        1.0  0.68028  0.10740  0.18766  1.0000
  H   H10       1.0  0.31973  0.39261  0.68766  1.0000
  H   H11       1.0  0.31973  0.89260  0.81234  1.0000
  H   H12       1.0  0.68028  0.60740  0.31234  1.0000
  H   H13       1.0  0.17465  0.39764  0.91331  1.0000
  H   H14       1.0  0.82535  0.10236  0.41332  1.0000
  H   H15       1.0  0.82535  0.60236  0.08669  1.0000
  H   H16       1.0  0.17465  0.89764  0.58668  1.0000
  H   H17       1.0  0.26749  0.52163  0.83122  1.0000
  H   H18       1.0  0.73252  0.97837  0.33122  1.0000
  H   H19       1.0  0.73251  0.47837  0.16877  1.0000
  H   H20       1.0  0.26749  0.02163  0.66878  1.0000
  H   H21       1.0  0.09919  0.66823  0.89800  1.0000
  H   H22       1.0  0.90081  0.83177  0.39800  1.0000
  H   H23       1.0  0.90081  0.33177  0.10200  1.0000
  H   H24       1.0  0.09919  0.16823  0.60200  1.0000
  C   C1        1.0  0.74234  0.88661  0.89896  1.0000
  C   C2        1.0  0.25765  0.61337  0.39895  1.0000
  C   C3        1.0  0.25765  0.11339  0.10104  1.0000
  C   C4        1.0  0.74235  0.38663  0.60105  1.0000
  C   C5        1.0  0.72441  0.94095  0.98166  1.0000
  C   C6        1.0  0.27559  0.55906  0.48166  1.0000
  C   C7        1.0  0.27558  0.05905  0.01834  1.0000
  C   C8        1.0  0.72441  0.44095  0.51834  1.0000
  C   C9        1.0  0.63289  0.83252  0.03897  1.0000
  C   C10       1.0  0.36711  0.66748  0.53897  1.0000
  C   C11       1.0  0.36711  0.16748  0.96103  1.0000
  C   C12       1.0  0.63289  0.33252  0.46103  1.0000
  C   C13       1.0  0.79810  0.10443  0.00266  1.0000
  C   C14       1.0  0.20190  0.39557  0.50265  1.0000
  C   C15       1.0  0.20190  0.89557  0.99734  1.0000
  C   C16       1.0  0.79810  0.60443  0.49735  1.0000
  C   C17       1.0  0.61330  0.89153  0.11401  1.0000
  C   C18       1.0  0.38671  0.60848  0.61400  1.0000
  C   C19       1.0  0.38670  0.10848  0.88599  1.0000
  C   C20       1.0  0.61330  0.39152  0.38600  1.0000
  C   C21       1.0  0.69234  0.05679  0.12973  1.0000
  C   C22       1.0  0.30766  0.44321  0.62973  1.0000
  C   C23       1.0  0.30766  0.94321  0.87027  1.0000
  C   C24       1.0  0.69234  0.55679  0.37027  1.0000
  C   C25       1.0  0.50713  0.78301  0.17655  1.0000
  C   C26       1.0  0.49287  0.71698  0.67655  1.0000
  C   C27       1.0  0.49286  0.21699  0.82345  1.0000
  C   C28       1.0  0.50714  0.28302  0.32345  1.0000
  C   C29       1.0  0.04227  0.31973  0.80377  1.0000
  C   C30       1.0  0.95772  0.18029  0.30377  1.0000
  C   C31       1.0  0.95773  0.68028  0.19623  1.0000
  C   C32       1.0  0.04228  0.81970  0.69623  1.0000
  C   C33       1.0  0.13872  0.45365  0.85919  1.0000
  C   C34       1.0  0.86128  0.04636  0.35919  1.0000
  C   C35       1.0  0.86128  0.54635  0.14081  1.0000
  C   C36       1.0  0.13872  0.95364  0.64081  1.0000
  N   N1        1.0  0.78528  0.16014  0.07550  1.0000
  N   N2        1.0  0.21473  0.33986  0.57549  1.0000
  N   N3        1.0  0.21472  0.83986  0.92450  1.0000
  N   N4        1.0  0.78528  0.66014  0.42450  1.0000
  O   O1        1.0  0.74906  0.99409  0.84636  1.0000
  O   O2        1.0  0.25094  0.50592  0.34637  1.0000
  O   O3        1.0  0.25094  0.00591  0.15363  1.0000
  O   O4        1.0  0.74906  0.49408  0.65363  1.0000
  O   O5        1.0  0.74833  0.73906  0.88868  1.0000
  O   O6        1.0  0.25166  0.76095  0.38867  1.0000
  O   O7        1.0  0.25165  0.26094  0.11132  1.0000
  O   O8        1.0  0.74835  0.23905  0.61133  1.0000
  O   O9        1.0  0.44772  0.63150  0.16005  1.0000
  O   O10       1.0  0.55228  0.86851  0.66005  1.0000
  O   O11       1.0  0.55227  0.36850  0.83995  1.0000
  O   O12       1.0  0.44772  0.13149  0.33995  1.0000
  O   O13       1.0  0.47972  0.84836  0.24098  1.0000
  O   O14       1.0  0.52028  0.65165  0.74098  1.0000
  O   O15       1.0  0.52028  0.15164  0.75902  1.0000
  O   O16       1.0  0.47972  0.34835  0.25902  1.0000
  O   O17       1.0  0.89123  0.33752  0.77320  1.0000
  O   O18       1.0  0.10877  0.16248  0.27320  1.0000
  O   O19       1.0  0.10877  0.66248  0.22680  1.0000
  O   O20       1.0  0.89123  0.83752  0.72680  1.0000
  O   O21       1.0  0.10005  0.19722  0.78739  1.0000
  O   O22       1.0  0.89996  0.30277  0.28739  1.0000
  O   O23       1.0  0.89995  0.80278  0.21262  1.0000
  O   O24       1.0  0.10004  0.69723  0.71261  1.0000
  O   O25       1.0  0.02043  0.55726  0.87557  1.0000
  O   O26       1.0  0.97958  0.94274  0.37557  1.0000
  O   O27       1.0  0.97957  0.44274  0.12443  1.0000
  O   O28       1.0  0.02043  0.05726  0.62443  1.0000
