data_image0
_chemical_formula_structural       Gd4H24C36N4O28
_chemical_formula_sum              "Gd4 H24 C36 N4 O28"
_cell_length_a       7.544
_cell_length_b       8.48761
_cell_length_c       17.0952
_cell_angle_alpha    89.9994
_cell_angle_beta     90.0005
_cell_angle_gamma    105.043

_space_group_name_H-M_alt    "P 1"
_space_group_IT_number       1

loop_
  _space_group_symop_operation_xyz
  'x, y, z'

loop_
  _atom_site_type_symbol
  _atom_site_label
  _atom_site_symmetry_multiplicity
  _atom_site_fract_x
  _atom_site_fract_y
  _atom_site_fract_z
  _atom_site_occupancy
  Gd  Gd1       1.0  0.71819  0.42835  0.28446  1.0000
  Gd  Gd2       1.0  0.28181  0.07164  0.78446  1.0000
  Gd  Gd3       1.0  0.28181  0.57165  0.71554  1.0000
  Gd  Gd4       1.0  0.71819  0.92835  0.21554  1.0000
  H   H1        1.0  0.92382  0.79489  0.97461  1.0000
  H   H2        1.0  0.07618  0.70512  0.47461  1.0000
  H   H3        1.0  0.07619  0.20512  0.02539  1.0000
  H   H4        1.0  0.92381  0.29488  0.52539  1.0000
  H   H5        1.0  0.81946  0.39160  0.81301  1.0000
  H   H6        1.0  0.18054  0.10841  0.31301  1.0000
  H   H7        1.0  0.18054  0.60841  0.18699  1.0000
  H   H8        1.0  0.81946  0.89159  0.68699  1.0000
  H   H9        1.0  0.62985  0.30656  0.04082  1.0000
  H   H10       1.0  0.37015  0.19344  0.54082  1.0000
  H   H11       1.0  0.37015  0.69344  0.95918  1.0000
  H   H12       1.0  0.62985  0.80656  0.45917  1.0000
  H   H13       1.0  0.23047  0.97793  0.16810  1.0000
  H   H14       1.0  0.76953  0.52206  0.66810  1.0000
  H   H15       1.0  0.76953  0.02207  0.83190  1.0000
  H   H16       1.0  0.23047  0.47794  0.33190  1.0000
  H   H17       1.0  0.32405  0.10211  0.08636  1.0000
  H   H18       1.0  0.67595  0.39789  0.58636  1.0000
  H   H19       1.0  0.67595  0.89789  0.91364  1.0000
  H   H20       1.0  0.32405  0.60211  0.41364  1.0000
  H   H21       1.0  0.39935  0.83285  0.10121  1.0000
  H   H22       1.0  0.60065  0.66714  0.60121  1.0000
  H   H23       1.0  0.60065  0.16715  0.89879  1.0000
  H   H24       1.0  0.39935  0.33286  0.39879  1.0000
  C   C1        1.0  0.77492  0.55811  0.01837  1.0000
  C   C2        1.0  0.22507  0.94190  0.51837  1.0000
  C   C3        1.0  0.22509  0.44189  0.98163  1.0000
  C   C4        1.0  0.77492  0.05811  0.48163  1.0000
  C   C5        1.0  0.75711  0.61261  0.10081  1.0000
  C   C6        1.0  0.24288  0.88738  0.60081  1.0000
  C   C7        1.0  0.24290  0.38738  0.89919  1.0000
  C   C8        1.0  0.75712  0.11262  0.39919  1.0000
  C   C9        1.0  0.86580  0.66633  0.96093  1.0000
  C   C10       1.0  0.13419  0.83367  0.46093  1.0000
  C   C11       1.0  0.13421  0.33367  0.03907  1.0000
  C   C12       1.0  0.86580  0.16633  0.53907  1.0000
  C   C13       1.0  0.88567  0.60732  0.88616  1.0000
  C   C14       1.0  0.11434  0.89268  0.38615  1.0000
  C   C15       1.0  0.11434  0.39268  0.11385  1.0000
  C   C16       1.0  0.88567  0.10732  0.61384  1.0000
  C   C17       1.0  0.80729  0.44225  0.87075  1.0000
  C   C18       1.0  0.19271  0.05775  0.37075  1.0000
  C   C19       1.0  0.19271  0.55775  0.12925  1.0000
  C   C20       1.0  0.80729  0.94225  0.62925  1.0000
  C   C21       1.0  0.99120  0.71587  0.82356  1.0000
  C   C22       1.0  0.00880  0.78413  0.32356  1.0000
  C   C23       1.0  0.00880  0.28413  0.17644  1.0000
  C   C24       1.0  0.99120  0.21588  0.67644  1.0000
  C   C25       1.0  0.70198  0.39485  0.99772  1.0000
  C   C26       1.0  0.29802  0.10515  0.49772  1.0000
  C   C27       1.0  0.29803  0.60515  0.00228  1.0000
  C   C28       1.0  0.70198  0.89485  0.50228  1.0000
  C   C29       1.0  0.35983  0.04613  0.14028  1.0000
  C   C30       1.0  0.64016  0.45387  0.64028  1.0000
  C   C31       1.0  0.64017  0.95388  0.85972  1.0000
  C   C32       1.0  0.35983  0.54613  0.35972  1.0000
  C   C33       1.0  0.45653  0.17913  0.19595  1.0000
  C   C34       1.0  0.54347  0.32087  0.69594  1.0000
  C   C35       1.0  0.54348  0.82087  0.80405  1.0000
  C   C36       1.0  0.45653  0.67913  0.30405  1.0000
  N   N1        1.0  0.71505  0.33908  0.92512  1.0000
  N   N2        1.0  0.28495  0.16093  0.42512  1.0000
  N   N3        1.0  0.28496  0.66093  0.07488  1.0000
  N   N4        1.0  0.71505  0.83907  0.57488  1.0000
  O   O1        1.0  0.75118  0.50634  0.15351  1.0000
  O   O2        1.0  0.24880  0.99367  0.65351  1.0000
  O   O3        1.0  0.24882  0.49366  0.84649  1.0000
  O   O4        1.0  0.75119  0.00634  0.34649  1.0000
  O   O5        1.0  0.05028  0.86694  0.83997  1.0000
  O   O6        1.0  0.94972  0.63306  0.33997  1.0000
  O   O7        1.0  0.94972  0.13306  0.16003  1.0000
  O   O8        1.0  0.05028  0.36694  0.66004  1.0000
  O   O9        1.0  0.01871  0.65114  0.75922  1.0000
  O   O10       1.0  0.98129  0.84887  0.25922  1.0000
  O   O11       1.0  0.98129  0.34887  0.24078  1.0000
  O   O12       1.0  0.01871  0.15112  0.74079  1.0000
  O   O13       1.0  0.39840  0.30048  0.21256  1.0000
  O   O14       1.0  0.60159  0.19950  0.71255  1.0000
  O   O15       1.0  0.60160  0.69952  0.78744  1.0000
  O   O16       1.0  0.39840  0.80050  0.28744  1.0000
  O   O17       1.0  0.75066  0.75938  0.11083  1.0000
  O   O18       1.0  0.24932  0.74063  0.61084  1.0000
  O   O19       1.0  0.24934  0.24062  0.88917  1.0000
  O   O20       1.0  0.75067  0.25938  0.38916  1.0000
  O   O21       1.0  0.60777  0.16162  0.22641  1.0000
  O   O22       1.0  0.39224  0.33837  0.72641  1.0000
  O   O23       1.0  0.39223  0.83838  0.77359  1.0000
  O   O24       1.0  0.60776  0.66162  0.27359  1.0000
  O   O25       1.0  0.47818  0.94346  0.12376  1.0000
  O   O26       1.0  0.52182  0.55654  0.62376  1.0000
  O   O27       1.0  0.52182  0.05654  0.87624  1.0000
  O   O28       1.0  0.47818  0.44346  0.37624  1.0000
