data_image0
_chemical_formula_structural       Er4H24C36N4O28
_chemical_formula_sum              "Er4 H24 C36 N4 O28"
_cell_length_a       7.52741
_cell_length_b       8.3357
_cell_length_c       17.0298
_cell_angle_alpha    90
_cell_angle_beta     90.0001
_cell_angle_gamma    104.406

_space_group_name_H-M_alt    "P 1"
_space_group_IT_number       1

loop_
  _space_group_symop_operation_xyz
  'x, y, z'

loop_
  _atom_site_type_symbol
  _atom_site_label
  _atom_site_symmetry_multiplicity
  _atom_site_fract_x
  _atom_site_fract_y
  _atom_site_fract_z
  _atom_site_occupancy
  Er  Er1       1.0  0.22035  0.93160  0.28340  1.0000
  Er  Er2       1.0  0.77965  0.56840  0.78340  1.0000
  Er  Er3       1.0  0.77965  0.06839  0.71660  1.0000
  Er  Er4       1.0  0.22035  0.43160  0.21660  1.0000
  H   H1        1.0  0.43134  0.29908  0.97572  1.0000
  H   H2        1.0  0.56866  0.20092  0.47572  1.0000
  H   H3        1.0  0.56866  0.70092  0.02428  1.0000
  H   H4        1.0  0.43134  0.79908  0.52428  1.0000
  H   H5        1.0  0.31415  0.89061  0.81291  1.0000
  H   H6        1.0  0.68585  0.60938  0.31291  1.0000
  H   H7        1.0  0.68585  0.10938  0.18709  1.0000
  H   H8        1.0  0.31415  0.39062  0.68709  1.0000
  H   H9        1.0  0.12354  0.80908  0.04165  1.0000
  H   H10       1.0  0.87646  0.69093  0.54165  1.0000
  H   H11       1.0  0.87646  0.19092  0.95835  1.0000
  H   H12       1.0  0.12354  0.30908  0.45835  1.0000
  H   H13       1.0  0.73642  0.47734  0.16978  1.0000
  H   H14       1.0  0.26358  0.02266  0.66978  1.0000
  H   H15       1.0  0.26358  0.52267  0.83022  1.0000
  H   H16       1.0  0.73642  0.97734  0.33022  1.0000
  H   H17       1.0  0.82779  0.60238  0.08725  1.0000
  H   H18       1.0  0.17222  0.89763  0.58725  1.0000
  H   H19       1.0  0.17221  0.39763  0.91275  1.0000
  H   H20       1.0  0.82778  0.10237  0.41275  1.0000
  H   H21       1.0  0.90897  0.33187  0.10189  1.0000
  H   H22       1.0  0.09104  0.16813  0.60189  1.0000
  H   H23       1.0  0.09103  0.66813  0.89811  1.0000
  H   H24       1.0  0.90896  0.83187  0.39811  1.0000
  C   C1        1.0  0.26014  0.11683  0.10238  1.0000
  C   C2        1.0  0.73986  0.38316  0.60238  1.0000
  C   C3        1.0  0.73986  0.88317  0.89762  1.0000
  C   C4        1.0  0.26014  0.61684  0.39762  1.0000
  C   C5        1.0  0.27577  0.06157  0.01937  1.0000
  C   C6        1.0  0.72423  0.43843  0.51937  1.0000
  C   C7        1.0  0.72423  0.93843  0.98063  1.0000
  C   C8        1.0  0.27576  0.56157  0.48063  1.0000
  C   C9        1.0  0.36933  0.16955  0.96182  1.0000
  C   C10       1.0  0.63067  0.33045  0.46182  1.0000
  C   C11       1.0  0.63066  0.83045  0.03818  1.0000
  C   C12       1.0  0.36934  0.66955  0.53818  1.0000
  C   C13       1.0  0.38670  0.10864  0.88663  1.0000
  C   C14       1.0  0.61329  0.39136  0.38663  1.0000
  C   C15       1.0  0.61329  0.89135  0.11338  1.0000
  C   C16       1.0  0.38671  0.60865  0.61337  1.0000
  C   C17       1.0  0.30371  0.94245  0.87099  1.0000
  C   C18       1.0  0.69629  0.55756  0.37099  1.0000
  C   C19       1.0  0.69629  0.05756  0.12901  1.0000
  C   C20       1.0  0.30371  0.44244  0.62901  1.0000
  C   C21       1.0  0.19779  0.89704  0.99842  1.0000
  C   C22       1.0  0.80221  0.60296  0.49842  1.0000
  C   C23       1.0  0.80221  0.10296  0.00158  1.0000
  C   C24       1.0  0.19778  0.39703  0.50158  1.0000
  C   C25       1.0  0.95976  0.68308  0.19689  1.0000
  C   C26       1.0  0.04025  0.81692  0.69689  1.0000
  C   C27       1.0  0.04025  0.31692  0.80311  1.0000
  C   C28       1.0  0.95976  0.18308  0.30311  1.0000
  C   C29       1.0  0.86480  0.54683  0.14167  1.0000
  C   C30       1.0  0.13521  0.95318  0.64168  1.0000
  C   C31       1.0  0.13520  0.45318  0.85833  1.0000
  C   C32       1.0  0.86479  0.04682  0.35832  1.0000
  C   C33       1.0  0.49428  0.21605  0.82366  1.0000
  C   C34       1.0  0.50572  0.28395  0.32366  1.0000
  C   C35       1.0  0.50572  0.78395  0.17634  1.0000
  C   C36       1.0  0.49428  0.71605  0.67634  1.0000
  N   N1        1.0  0.20859  0.83985  0.92542  1.0000
  N   N2        1.0  0.79141  0.66015  0.42542  1.0000
  N   N3        1.0  0.79141  0.16015  0.07458  1.0000
  N   N4        1.0  0.20858  0.33985  0.57458  1.0000
  O   O1        1.0  0.25219  0.00713  0.15476  1.0000
  O   O2        1.0  0.74780  0.49286  0.65476  1.0000
  O   O3        1.0  0.74782  0.99288  0.84524  1.0000
  O   O4        1.0  0.25219  0.50714  0.34525  1.0000
  O   O5        1.0  0.90108  0.80719  0.21262  1.0000
  O   O6        1.0  0.09891  0.69281  0.71262  1.0000
  O   O7        1.0  0.09893  0.19281  0.78737  1.0000
  O   O8        1.0  0.90109  0.30718  0.28738  1.0000
  O   O9        1.0  0.52070  0.14842  0.75934  1.0000
  O   O10       1.0  0.47930  0.35157  0.25935  1.0000
  O   O11       1.0  0.47930  0.85158  0.24066  1.0000
  O   O12       1.0  0.52070  0.64843  0.74066  1.0000
  O   O13       1.0  0.98593  0.44342  0.12563  1.0000
  O   O14       1.0  0.01407  0.05657  0.62563  1.0000
  O   O15       1.0  0.01407  0.55657  0.87437  1.0000
  O   O16       1.0  0.98593  0.94343  0.37437  1.0000
  O   O17       1.0  0.25692  0.26684  0.11304  1.0000
  O   O18       1.0  0.74308  0.23314  0.61304  1.0000
  O   O19       1.0  0.74307  0.73316  0.88696  1.0000
  O   O20       1.0  0.25692  0.76685  0.38696  1.0000
  O   O21       1.0  0.11113  0.66549  0.22805  1.0000
  O   O22       1.0  0.88886  0.83451  0.72805  1.0000
  O   O23       1.0  0.88887  0.33451  0.77195  1.0000
  O   O24       1.0  0.11113  0.16548  0.27195  1.0000
  O   O25       1.0  0.55544  0.36923  0.83977  1.0000
  O   O26       1.0  0.44456  0.13076  0.33978  1.0000
  O   O27       1.0  0.44456  0.63076  0.16023  1.0000
  O   O28       1.0  0.55544  0.86924  0.66022  1.0000
