data_image0
_chemical_formula_structural       Tb4H26C42N6O28
_chemical_formula_sum              "Tb4 H26 C42 N6 O28"
_cell_length_a       8.98892
_cell_length_b       8.98892
_cell_length_c       14.9105
_cell_angle_alpha    89.0202
_cell_angle_beta     89.0202
_cell_angle_gamma    76.8722

_space_group_name_H-M_alt    "P 1"
_space_group_IT_number       1

loop_
  _space_group_symop_operation_xyz
  'x, y, z'

loop_
  _atom_site_type_symbol
  _atom_site_label
  _atom_site_symmetry_multiplicity
  _atom_site_fract_x
  _atom_site_fract_y
  _atom_site_fract_z
  _atom_site_occupancy
  Tb  Tb1       1.0  0.18891  0.53427  0.04156  1.0000
  Tb  Tb2       1.0  0.46573  0.81110  0.45844  1.0000
  Tb  Tb3       1.0  0.81109  0.46573  0.95844  1.0000
  Tb  Tb4       1.0  0.53427  0.18891  0.54156  1.0000
  H   H1        1.0  0.61439  0.84957  0.85025  1.0000
  H   H2        1.0  0.15043  0.38561  0.64975  1.0000
  H   H3        1.0  0.38561  0.15043  0.14975  1.0000
  H   H4        1.0  0.84957  0.61439  0.35024  1.0000
  H   H5        1.0  0.79707  0.97386  0.83939  1.0000
  H   H6        1.0  0.02614  0.20293  0.66061  1.0000
  H   H7        1.0  0.20293  0.02614  0.16061  1.0000
  H   H8        1.0  0.97386  0.79707  0.33939  1.0000
  H   H9        1.0  0.31936  0.27634  0.82327  1.0000
  H   H10       1.0  0.72366  0.68064  0.67673  1.0000
  H   H11       1.0  0.68064  0.72366  0.17673  1.0000
  H   H12       1.0  0.27634  0.31936  0.32327  1.0000
  H   H13       1.0  0.24972  0.75028  0.75000  1.0000
  H   H14       1.0  0.75028  0.24972  0.25000  1.0000
  H   H15       1.0  0.18891  0.93878  0.99876  1.0000
  H   H16       1.0  0.06122  0.81109  0.50124  1.0000
  H   H17       1.0  0.81109  0.06121  0.00124  1.0000
  H   H18       1.0  0.93879  0.18891  0.49876  1.0000
  H   H19       1.0  0.17831  0.70645  0.20695  1.0000
  H   H20       1.0  0.29355  0.82169  0.29305  1.0000
  H   H21       1.0  0.82169  0.29355  0.79305  1.0000
  H   H22       1.0  0.70645  0.17831  0.70695  1.0000
  H   H23       1.0  0.13730  0.55198  0.24286  1.0000
  H   H24       1.0  0.44802  0.86270  0.25714  1.0000
  H   H25       1.0  0.86270  0.44802  0.75713  1.0000
  H   H26       1.0  0.55198  0.13730  0.74287  1.0000
  C   C1        1.0  0.09016  0.23260  0.93503  1.0000
  C   C2        1.0  0.76740  0.90984  0.56497  1.0000
  C   C3        1.0  0.90983  0.76739  0.06497  1.0000
  C   C4        1.0  0.23261  0.09017  0.43504  1.0000
  C   C5        1.0  0.50605  0.92620  0.86899  1.0000
  C   C6        1.0  0.07380  0.49395  0.63101  1.0000
  C   C7        1.0  0.49395  0.07380  0.13101  1.0000
  C   C8        1.0  0.92620  0.50605  0.36899  1.0000
  C   C9        1.0  0.41035  0.87782  0.93282  1.0000
  C   C10       1.0  0.12218  0.58965  0.56718  1.0000
  C   C11       1.0  0.58965  0.12218  0.06718  1.0000
  C   C12       1.0  0.87782  0.41035  0.43282  1.0000
  C   C13       1.0  0.89986  0.97136  0.79912  1.0000
  C   C14       1.0  0.02864  0.10014  0.70088  1.0000
  C   C15       1.0  0.10014  0.02864  0.20088  1.0000
  C   C16       1.0  0.97136  0.89986  0.29912  1.0000
  C   C17       1.0  0.34157  0.16254  0.85410  1.0000
  C   C18       1.0  0.83746  0.65843  0.64590  1.0000
  C   C19       1.0  0.65843  0.83745  0.14590  1.0000
  C   C20       1.0  0.16255  0.34157  0.35410  1.0000
  C   C21       1.0  0.02210  0.84375  0.80159  1.0000
  C   C22       1.0  0.15625  0.97790  0.69841  1.0000
  C   C23       1.0  0.97791  0.15625  0.19841  1.0000
  C   C24       1.0  0.84375  0.02210  0.30159  1.0000
  C   C25       1.0  0.01713  0.70978  0.86218  1.0000
  C   C26       1.0  0.29022  0.98286  0.63782  1.0000
  C   C27       1.0  0.98285  0.29022  0.13782  1.0000
  C   C28       1.0  0.70978  0.01714  0.36218  1.0000
  C   C29       1.0  0.15219  0.84781  0.75000  1.0000
  C   C30       1.0  0.84781  0.15219  0.25000  1.0000
  C   C31       1.0  0.26985  0.97568  0.95302  1.0000
  C   C32       1.0  0.02432  0.73015  0.54698  1.0000
  C   C33       1.0  0.73015  0.02432  0.04698  1.0000
  C   C34       1.0  0.97568  0.26985  0.45302  1.0000
  C   C35       1.0  0.23649  0.12193  0.91448  1.0000
  C   C36       1.0  0.87807  0.76351  0.58553  1.0000
  C   C37       1.0  0.76351  0.87807  0.08552  1.0000
  C   C38       1.0  0.12193  0.23649  0.41448  1.0000
  C   C39       1.0  0.46158  0.72600  0.98012  1.0000
  C   C40       1.0  0.27400  0.53842  0.51988  1.0000
  C   C41       1.0  0.53843  0.27399  0.01987  1.0000
  C   C42       1.0  0.72601  0.46157  0.48012  1.0000
  N   N1        1.0  0.90285  0.09716  0.75000  1.0000
  N   N2        1.0  0.09715  0.90285  0.25000  1.0000
  N   N3        1.0  0.47146  0.06491  0.82944  1.0000
  N   N4        1.0  0.93509  0.52855  0.67056  1.0000
  N   N5        1.0  0.52854  0.93509  0.17056  1.0000
  N   N6        1.0  0.06490  0.47145  0.32944  1.0000
  O   O1        1.0  0.96768  0.18856  0.94304  1.0000
  O   O2        1.0  0.81144  0.03232  0.55697  1.0000
  O   O3        1.0  0.03233  0.81144  0.05696  1.0000
  O   O4        1.0  0.18856  0.96768  0.44304  1.0000
  O   O5        1.0  0.09183  0.37578  0.94129  1.0000
  O   O6        1.0  0.62422  0.90817  0.55871  1.0000
  O   O7        1.0  0.90816  0.62422  0.05871  1.0000
  O   O8        1.0  0.37578  0.09184  0.44129  1.0000
  O   O9        1.0  0.89027  0.67130  0.87290  1.0000
  O   O10       1.0  0.32870  0.10973  0.62710  1.0000
  O   O11       1.0  0.10973  0.32871  0.12710  1.0000
  O   O12       1.0  0.67130  0.89027  0.37290  1.0000
  O   O13       1.0  0.14256  0.64898  0.90000  1.0000
  O   O14       1.0  0.35102  0.85744  0.60000  1.0000
  O   O15       1.0  0.85744  0.35102  0.10000  1.0000
  O   O16       1.0  0.64898  0.14256  0.40000  1.0000
  O   O17       1.0  0.19047  0.59736  0.19169  1.0000
  O   O18       1.0  0.40264  0.80953  0.30831  1.0000
  O   O19       1.0  0.80952  0.40264  0.80830  1.0000
  O   O20       1.0  0.59736  0.19048  0.69169  1.0000
  O   O21       1.0  0.59921  0.65557  0.96612  1.0000
  O   O22       1.0  0.34443  0.40079  0.53388  1.0000
  O   O23       1.0  0.40078  0.34443  0.03388  1.0000
  O   O24       1.0  0.65557  0.59922  0.46612  1.0000
  O   O25       1.0  0.36871  0.68065  0.03271  1.0000
  O   O26       1.0  0.31935  0.63129  0.46729  1.0000
  O   O27       1.0  0.63128  0.31934  0.96729  1.0000
  O   O28       1.0  0.68066  0.36872  0.53271  1.0000
