data_image0
_chemical_formula_structural       Gd4H32C36N4O28
_chemical_formula_sum              "Gd4 H32 C36 N4 O28"
_cell_length_a       8.86972
_cell_length_b       9.09534
_cell_length_c       18.2158
_cell_angle_alpha    79.96
_cell_angle_beta     75.8979
_cell_angle_gamma    60.8083

_space_group_name_H-M_alt    "P 1"
_space_group_IT_number       1

loop_
  _space_group_symop_operation_xyz
  'x, y, z'

loop_
  _atom_site_type_symbol
  _atom_site_label
  _atom_site_symmetry_multiplicity
  _atom_site_fract_x
  _atom_site_fract_y
  _atom_site_fract_z
  _atom_site_occupancy
  Gd  Gd1       1.0  0.81913  0.44648  0.06988  1.0000
  Gd  Gd2       1.0  0.33533  0.05347  0.43023  1.0000
  Gd  Gd3       1.0  0.18086  0.55352  0.93012  1.0000
  Gd  Gd4       1.0  0.66467  0.94653  0.56977  1.0000
  H   H1        1.0  0.62250  0.63768  0.33033  1.0000
  H   H2        1.0  0.59037  0.86245  0.16985  1.0000
  H   H3        1.0  0.37750  0.36232  0.66967  1.0000
  H   H4        1.0  0.40963  0.13755  0.83015  1.0000
  H   H5        1.0  0.95361  0.38537  0.49830  1.0000
  H   H6        1.0  0.83740  0.11456  0.00186  1.0000
  H   H7        1.0  0.04639  0.61463  0.50170  1.0000
  H   H8        1.0  0.16260  0.88544  0.99814  1.0000
  H   H9        1.0  0.82381  0.58029  0.79185  1.0000
  H   H10       1.0  0.19605  0.91925  0.70831  1.0000
  H   H11       1.0  0.17619  0.41971  0.20815  1.0000
  H   H12       1.0  0.80395  0.08074  0.29169  1.0000
  H   H13       1.0  0.78253  0.40310  0.81045  1.0000
  H   H14       1.0  0.99617  0.09640  0.68972  1.0000
  H   H15       1.0  0.21747  0.59690  0.18955  1.0000
  H   H16       1.0  0.00383  0.90359  0.31028  1.0000
  H   H17       1.0  0.00292  0.37545  0.79655  1.0000
  H   H18       1.0  0.17491  0.12410  0.70368  1.0000
  H   H19       1.0  0.99708  0.62455  0.20345  1.0000
  H   H20       1.0  0.82509  0.87589  0.29632  1.0000
  H   H21       1.0  0.09054  0.16042  0.29610  1.0000
  H   H22       1.0  0.54701  0.33961  0.20406  1.0000
  H   H23       1.0  0.90945  0.83958  0.70390  1.0000
  H   H24       1.0  0.45299  0.66040  0.79594  1.0000
  H   H25       1.0  0.48465  0.72166  0.08160  1.0000
  H   H26       1.0  0.28754  0.77835  0.41850  1.0000
  H   H27       1.0  0.51535  0.27835  0.91840  1.0000
  H   H28       1.0  0.71246  0.22165  0.58150  1.0000
  H   H29       1.0  0.41438  0.59290  0.07396  1.0000
  H   H30       1.0  0.08094  0.90740  0.42597  1.0000
  H   H31       1.0  0.58562  0.40710  0.92604  1.0000
  H   H32       1.0  0.91906  0.09259  0.57403  1.0000
  C   C1        1.0  0.73429  0.52999  0.35101  1.0000
  C   C2        1.0  0.61523  0.97010  0.14916  1.0000
  C   C3        1.0  0.26571  0.47001  0.64899  1.0000
  C   C4        1.0  0.38477  0.02990  0.85085  1.0000
  C   C5        1.0  0.91985  0.38967  0.44406  1.0000
  C   C6        1.0  0.75366  0.11029  0.05610  1.0000
  C   C7        1.0  0.08015  0.61033  0.55594  1.0000
  C   C8        1.0  0.24634  0.88971  0.94390  1.0000
  C   C9        1.0  0.76756  0.52472  0.42279  1.0000
  C   C10       1.0  0.71508  0.97531  0.07738  1.0000
  C   C11       1.0  0.23244  0.47529  0.57720  1.0000
  C   C12       1.0  0.28492  0.02470  0.92262  1.0000
  C   C13       1.0  0.65060  0.66912  0.47271  1.0000
  C   C14       1.0  0.79233  0.83094  0.02744  1.0000
  C   C15       1.0  0.34940  0.33088  0.52729  1.0000
  C   C16       1.0  0.20766  0.16906  0.97256  1.0000
  C   C17       1.0  0.86431  0.45384  0.82079  1.0000
  C   C18       1.0  0.13902  0.04572  0.67940  1.0000
  C   C19       1.0  0.13569  0.54616  0.17921  1.0000
  C   C20       1.0  0.86098  0.95427  0.32060  1.0000
  C   C21       1.0  0.85194  0.39847  0.30418  1.0000
  C   C22       1.0  0.55449  0.10164  0.19599  1.0000
  C   C23       1.0  0.14806  0.60153  0.69582  1.0000
  C   C24       1.0  0.44551  0.89836  0.80402  1.0000
  C   C25       1.0  0.99733  0.26548  0.33127  1.0000
  C   C26       1.0  0.59408  0.23455  0.16888  1.0000
  C   C27       1.0  0.00266  0.73452  0.66873  1.0000
  C   C28       1.0  0.40593  0.76546  0.83112  1.0000
  C   C29       1.0  0.84667  0.46422  0.90397  1.0000
  C   C30       1.0  0.21505  0.03547  0.59620  1.0000
  C   C31       1.0  0.15333  0.53578  0.09602  1.0000
  C   C32       1.0  0.78495  0.96453  0.40380  1.0000
  C   C33       1.0  0.83094  0.40700  0.22427  1.0000
  C   C34       1.0  0.46193  0.09322  0.27585  1.0000
  C   C35       1.0  0.16906  0.59300  0.77572  1.0000
  C   C36       1.0  0.53807  0.90679  0.72415  1.0000
  N   N1        1.0  0.03235  0.26216  0.39953  1.0000
  N   N2        1.0  0.69413  0.23779  0.10062  1.0000
  N   N3        1.0  0.96765  0.73784  0.60047  1.0000
  N   N4        1.0  0.30587  0.76221  0.89938  1.0000
  O   O1        1.0  0.72990  0.43789  0.95266  1.0000
  O   O2        1.0  0.12073  0.06152  0.54753  1.0000
  O   O3        1.0  0.27011  0.56211  0.04734  1.0000
  O   O4        1.0  0.87927  0.93848  0.45248  1.0000
  O   O5        1.0  0.72779  0.54938  0.19533  1.0000
  O   O6        1.0  0.47197  0.95090  0.30478  1.0000
  O   O7        1.0  0.27221  0.45062  0.80467  1.0000
  O   O8        1.0  0.52803  0.04910  0.69523  1.0000
  O   O9        1.0  0.49994  0.60726  0.09559  1.0000
  O   O10       1.0  0.20264  0.89280  0.40446  1.0000
  O   O11       1.0  0.50005  0.39275  0.90441  1.0000
  O   O12       1.0  0.79736  0.10719  0.59555  1.0000
  O   O13       1.0  0.49361  0.75906  0.46122  1.0000
  O   O14       1.0  0.71378  0.74102  0.03901  1.0000
  O   O15       1.0  0.50639  0.24094  0.53878  1.0000
  O   O16       1.0  0.28622  0.25899  0.96099  1.0000
  O   O17       1.0  0.91941  0.27594  0.18624  1.0000
  O   O18       1.0  0.38140  0.22424  0.31390  1.0000
  O   O19       1.0  0.08059  0.72406  0.81376  1.0000
  O   O20       1.0  0.61860  0.77576  0.68610  1.0000
  O   O21       1.0  0.71833  0.69484  0.51989  1.0000
  O   O22       1.0  0.93290  0.80519  0.98018  1.0000
  O   O23       1.0  0.28168  0.30516  0.48010  1.0000
  O   O24       1.0  0.06710  0.19481  0.01983  1.0000
  O   O25       1.0  0.94999  0.49748  0.92782  1.0000
  O   O26       1.0  0.37536  0.00264  0.57235  1.0000
  O   O27       1.0  0.05001  0.50252  0.07218  1.0000
  O   O28       1.0  0.62464  0.99736  0.42765  1.0000
