data_image0
_chemical_formula_structural       Ca2H20C28O12F8
_chemical_formula_sum              "Ca2 H20 C28 O12 F8"
_cell_length_a       7.81535
_cell_length_b       10.2062
_cell_length_c       10.2062
_cell_angle_alpha    63.6082
_cell_angle_beta     89.4752
_cell_angle_gamma    89.4753

_space_group_name_H-M_alt    "P 1"
_space_group_IT_number       1

loop_
  _space_group_symop_operation_xyz
  'x, y, z'

loop_
  _atom_site_type_symbol
  _atom_site_label
  _atom_site_symmetry_multiplicity
  _atom_site_fract_x
  _atom_site_fract_y
  _atom_site_fract_z
  _atom_site_occupancy
  Ca  Ca1       1.0  0.25000  0.05272  0.94728  1.0000
  Ca  Ca2       1.0  0.75000  0.94728  0.05272  1.0000
  H   H1        1.0  0.34251  0.37181  0.88432  1.0000
  H   H2        1.0  0.15749  0.11567  0.62819  1.0000
  H   H3        1.0  0.65749  0.62819  0.11568  1.0000
  H   H4        1.0  0.84251  0.88432  0.37181  1.0000
  H   H5        1.0  0.50432  0.26722  0.94204  1.0000
  H   H6        1.0  0.99568  0.05796  0.73278  1.0000
  H   H7        1.0  0.49568  0.73278  0.05796  1.0000
  H   H8        1.0  0.00432  0.94204  0.26722  1.0000
  H   H9        1.0  0.33169  0.86040  0.73970  1.0000
  H   H10       1.0  0.16831  0.26030  0.13960  1.0000
  H   H11       1.0  0.66831  0.13960  0.26030  1.0000
  H   H12       1.0  0.83169  0.73971  0.86040  1.0000
  H   H13       1.0  0.51144  0.63444  0.83014  1.0000
  H   H14       1.0  0.98856  0.16986  0.36556  1.0000
  H   H15       1.0  0.48856  0.36556  0.16986  1.0000
  H   H16       1.0  0.01145  0.83014  0.63444  1.0000
  H   H17       1.0  0.62085  0.54138  0.65373  1.0000
  H   H18       1.0  0.87915  0.34627  0.45863  1.0000
  H   H19       1.0  0.37915  0.45862  0.34627  1.0000
  H   H20       1.0  0.12085  0.65373  0.54137  1.0000
  C   C1        1.0  0.40406  0.84609  0.41396  1.0000
  C   C2        1.0  0.09594  0.58604  0.15392  1.0000
  C   C3        1.0  0.59594  0.15392  0.58604  1.0000
  C   C4        1.0  0.90406  0.41396  0.84609  1.0000
  C   C5        1.0  0.34489  0.89143  0.51727  1.0000
  C   C6        1.0  0.15511  0.48273  0.10857  1.0000
  C   C7        1.0  0.65511  0.10857  0.48273  1.0000
  C   C8        1.0  0.84489  0.51727  0.89143  1.0000
  C   C9        1.0  0.38156  0.81903  0.66523  1.0000
  C   C10       1.0  0.11844  0.33477  0.18097  1.0000
  C   C11       1.0  0.61844  0.18097  0.33477  1.0000
  C   C12       1.0  0.88156  0.66523  0.81903  1.0000
  C   C13       1.0  0.48154  0.69242  0.71437  1.0000
  C   C14       1.0  0.01846  0.28563  0.30758  1.0000
  C   C15       1.0  0.51846  0.30758  0.28563  1.0000
  C   C16       1.0  0.98155  0.71437  0.69242  1.0000
  C   C17       1.0  0.54322  0.64023  0.61758  1.0000
  C   C18       1.0  0.95679  0.38242  0.35977  1.0000
  C   C19       1.0  0.45679  0.35977  0.38242  1.0000
  C   C20       1.0  0.04322  0.61758  0.64023  1.0000
  C   C21       1.0  0.50394  0.71822  0.47046  1.0000
  C   C22       1.0  0.99606  0.52954  0.28178  1.0000
  C   C23       1.0  0.49606  0.28178  0.52954  1.0000
  C   C24       1.0  0.00394  0.47046  0.71822  1.0000
  C   C25       1.0  0.36513  0.92895  0.25367  1.0000
  C   C26       1.0  0.13487  0.74633  0.07105  1.0000
  C   C27       1.0  0.63487  0.07105  0.74633  1.0000
  C   C28       1.0  0.86513  0.25367  0.92895  1.0000
  O   O1        1.0  0.37665  0.27026  0.94012  1.0000
  O   O2        1.0  0.12335  0.05988  0.72974  1.0000
  O   O3        1.0  0.62335  0.72974  0.05988  1.0000
  O   O4        1.0  0.87665  0.94012  0.27026  1.0000
  O   O5        1.0  0.48656  0.95622  0.16231  1.0000
  O   O6        1.0  0.01343  0.83769  0.04378  1.0000
  O   O7        1.0  0.51343  0.04378  0.83769  1.0000
  O   O8        1.0  0.98657  0.16231  0.95622  1.0000
  O   O9        1.0  0.21168  0.96831  0.21440  1.0000
  O   O10       1.0  0.28832  0.78560  0.03169  1.0000
  O   O11       1.0  0.78832  0.03169  0.78560  1.0000
  O   O12       1.0  0.71168  0.21440  0.96831  1.0000
  F   F1        1.0  0.24698  0.01588  0.46875  1.0000
  F   F2        1.0  0.25302  0.53125  0.98411  1.0000
  F   F3        1.0  0.75302  0.98411  0.53125  1.0000
  F   F4        1.0  0.74698  0.46876  0.01588  1.0000
  F   F5        1.0  0.56335  0.66605  0.37653  1.0000
  F   F6        1.0  0.93665  0.62347  0.33396  1.0000
  F   F7        1.0  0.43665  0.33395  0.62347  1.0000
  F   F8        1.0  0.06335  0.37653  0.66605  1.0000
