data_image0
_chemical_formula_structural       Li4H84C36N16O4
_chemical_formula_sum              "Li4 H84 C36 N16 O4"
_cell_length_a       8.20015
_cell_length_b       11.2367
_cell_length_c       13.9625
_cell_angle_alpha    90.0004
_cell_angle_beta     90.0004
_cell_angle_gamma    104.929

_space_group_name_H-M_alt    "P 1"
_space_group_IT_number       1

loop_
  _space_group_symop_operation_xyz
  'x, y, z'

loop_
  _atom_site_type_symbol
  _atom_site_label
  _atom_site_symmetry_multiplicity
  _atom_site_fract_x
  _atom_site_fract_y
  _atom_site_fract_z
  _atom_site_occupancy
  Li  Li1       1.0  0.96504  0.07224  0.07439  1.0000
  Li  Li2       1.0  0.03497  0.42776  0.57440  1.0000
  Li  Li3       1.0  0.03497  0.92776  0.92559  1.0000
  Li  Li4       1.0  0.96503  0.57224  0.42560  1.0000
  H   H1        1.0  0.56735  0.59852  0.40655  1.0000
  H   H2        1.0  0.43269  0.90152  0.90659  1.0000
  H   H3        1.0  0.43266  0.40150  0.59344  1.0000
  H   H4        1.0  0.56730  0.09847  0.09340  1.0000
  H   H5        1.0  0.34189  0.37854  0.60826  1.0000
  H   H6        1.0  0.65807  0.12142  0.10822  1.0000
  H   H7        1.0  0.65812  0.62148  0.39174  1.0000
  H   H8        1.0  0.34192  0.87856  0.89177  1.0000
  H   H9        1.0  0.64202  0.71970  0.52522  1.0000
  H   H10       1.0  0.35797  0.78029  0.02523  1.0000
  H   H11       1.0  0.35797  0.28030  0.47478  1.0000
  H   H12       1.0  0.64204  0.21972  0.97477  1.0000
  H   H13       1.0  0.62355  0.83931  0.60391  1.0000
  H   H14       1.0  0.37644  0.66069  0.10392  1.0000
  H   H15       1.0  0.37643  0.16070  0.39609  1.0000
  H   H16       1.0  0.62355  0.33931  0.89608  1.0000
  H   H17       1.0  0.28826  0.80548  0.42327  1.0000
  H   H18       1.0  0.71172  0.69453  0.92326  1.0000
  H   H19       1.0  0.71172  0.19453  0.57674  1.0000
  H   H20       1.0  0.28829  0.30547  0.07675  1.0000
  H   H21       1.0  0.49468  0.78451  0.40181  1.0000
  H   H22       1.0  0.50530  0.71550  0.90181  1.0000
  H   H23       1.0  0.50530  0.21549  0.59820  1.0000
  H   H24       1.0  0.49471  0.28450  0.09819  1.0000
  H   H25       1.0  0.47159  0.91262  0.47040  1.0000
  H   H26       1.0  0.52839  0.58739  0.97039  1.0000
  H   H27       1.0  0.52839  0.08739  0.52961  1.0000
  H   H28       1.0  0.47162  0.41261  0.02961  1.0000
  H   H29       1.0  0.16472  0.77324  0.57569  1.0000
  H   H30       1.0  0.83528  0.72676  0.07567  1.0000
  H   H31       1.0  0.83527  0.22676  0.42433  1.0000
  H   H32       1.0  0.16473  0.27324  0.92433  1.0000
  H   H33       1.0  0.34274  0.87302  0.63397  1.0000
  H   H34       1.0  0.65725  0.62697  0.13396  1.0000
  H   H35       1.0  0.65725  0.12698  0.36604  1.0000
  H   H36       1.0  0.34276  0.37303  0.86604  1.0000
  H   H37       1.0  0.26529  0.71619  0.67197  1.0000
  H   H38       1.0  0.73471  0.78380  0.17196  1.0000
  H   H39       1.0  0.73470  0.28381  0.32804  1.0000
  H   H40       1.0  0.26530  0.21620  0.82804  1.0000
  H   H41       1.0  0.44067  0.57600  0.65541  1.0000
  H   H42       1.0  0.55934  0.92400  0.15541  1.0000
  H   H43       1.0  0.55932  0.42401  0.34460  1.0000
  H   H44       1.0  0.44067  0.07600  0.84459  1.0000
  H   H45       1.0  0.53551  0.69810  0.73395  1.0000
  H   H46       1.0  0.46450  0.80190  0.23395  1.0000
  H   H47       1.0  0.46451  0.30192  0.26606  1.0000
  H   H48       1.0  0.53550  0.19809  0.76605  1.0000
  H   H49       1.0  0.96285  0.66674  0.69629  1.0000
  H   H50       1.0  0.03715  0.83326  0.19628  1.0000
  H   H51       1.0  0.03714  0.33325  0.30371  1.0000
  H   H52       1.0  0.96285  0.16674  0.80370  1.0000
  H   H53       1.0  0.84124  0.75320  0.75775  1.0000
  H   H54       1.0  0.15876  0.74680  0.25774  1.0000
  H   H55       1.0  0.15876  0.24680  0.24226  1.0000
  H   H56       1.0  0.84123  0.25319  0.74225  1.0000
  H   H57       1.0  0.87567  0.77184  0.63148  1.0000
  H   H58       1.0  0.12435  0.72816  0.13148  1.0000
  H   H59       1.0  0.12433  0.22816  0.36852  1.0000
  H   H60       1.0  0.87566  0.27184  0.86852  1.0000
  H   H61       1.0  0.78900  0.47207  0.74711  1.0000
  H   H62       1.0  0.21100  0.02794  0.24710  1.0000
  H   H63       1.0  0.21098  0.52793  0.25290  1.0000
  H   H64       1.0  0.78901  0.97207  0.75289  1.0000
  H   H65       1.0  0.56607  0.43619  0.72983  1.0000
  H   H66       1.0  0.43394  0.06381  0.22983  1.0000
  H   H67       1.0  0.43392  0.56381  0.27017  1.0000
  H   H68       1.0  0.56607  0.93618  0.77018  1.0000
  H   H69       1.0  0.66380  0.54795  0.81708  1.0000
  H   H70       1.0  0.33621  0.95206  0.31708  1.0000
  H   H71       1.0  0.33618  0.45205  0.18292  1.0000
  H   H72       1.0  0.66378  0.04793  0.68292  1.0000
  H   H73       1.0  0.73076  0.90288  0.99745  1.0000
  H   H74       1.0  0.26924  0.59712  0.49745  1.0000
  H   H75       1.0  0.26925  0.09712  0.00255  1.0000
  H   H76       1.0  0.73075  0.40288  0.50256  1.0000
  H   H77       1.0  0.76705  0.02268  0.92632  1.0000
  H   H78       1.0  0.23295  0.47732  0.42633  1.0000
  H   H79       1.0  0.23296  0.97732  0.07367  1.0000
  H   H80       1.0  0.76705  0.52268  0.57368  1.0000
  H   H81       1.0  0.85610  0.50814  0.05876  1.0000
  H   H82       1.0  0.14389  0.99186  0.55876  1.0000
  H   H83       1.0  0.14389  0.49186  0.94124  1.0000
  H   H84       1.0  0.85611  0.00815  0.44121  1.0000
  C   C1        1.0  0.56279  0.74343  0.58160  1.0000
  C   C2        1.0  0.43721  0.75657  0.08161  1.0000
  C   C3        1.0  0.43720  0.25657  0.41840  1.0000
  C   C4        1.0  0.56280  0.24343  0.91840  1.0000
  C   C5        1.0  0.41378  0.81429  0.45425  1.0000
  C   C6        1.0  0.58621  0.68572  0.95424  1.0000
  C   C7        1.0  0.58621  0.18572  0.54576  1.0000
  C   C8        1.0  0.41380  0.31427  0.04577  1.0000
  C   C9        1.0  0.28669  0.77742  0.60959  1.0000
  C   C10       1.0  0.71330  0.72258  0.10958  1.0000
  C   C11       1.0  0.71330  0.22259  0.39042  1.0000
  C   C12       1.0  0.28670  0.27742  0.89042  1.0000
  C   C13       1.0  0.55214  0.65359  0.66500  1.0000
  C   C14       1.0  0.44786  0.84641  0.16500  1.0000
  C   C15       1.0  0.44785  0.34642  0.33501  1.0000
  C   C16       1.0  0.55214  0.15359  0.83500  1.0000
  C   C17       1.0  0.85317  0.70479  0.69022  1.0000
  C   C18       1.0  0.14683  0.79522  0.19022  1.0000
  C   C19       1.0  0.14682  0.29521  0.30978  1.0000
  C   C20       1.0  0.85317  0.20478  0.80977  1.0000
  C   C21       1.0  0.67893  0.51043  0.74550  1.0000
  C   C22       1.0  0.32108  0.98957  0.24550  1.0000
  C   C23       1.0  0.32106  0.48957  0.25450  1.0000
  C   C24       1.0  0.67893  0.01043  0.75450  1.0000
  C   C25       1.0  0.88923  0.48734  0.20976  1.0000
  C   C26       1.0  0.11077  0.01266  0.70976  1.0000
  C   C27       1.0  0.11078  0.51267  0.79024  1.0000
  C   C28       1.0  0.88925  0.98733  0.29022  1.0000
  C   C29       1.0  0.92938  0.34315  0.09066  1.0000
  C   C30       1.0  0.07061  0.15684  0.59066  1.0000
  C   C31       1.0  0.07063  0.65685  0.90933  1.0000
  C   C32       1.0  0.92939  0.84316  0.40933  1.0000
  C   C33       1.0  0.88852  0.45121  0.11502  1.0000
  C   C34       1.0  0.11146  0.04879  0.61502  1.0000
  C   C35       1.0  0.11148  0.54880  0.88497  1.0000
  C   C36       1.0  0.88855  0.95121  0.38496  1.0000
  N   N1        1.0  0.39597  0.73741  0.54014  1.0000
  N   N2        1.0  0.60402  0.76259  0.04013  1.0000
  N   N3        1.0  0.60401  0.26259  0.45987  1.0000
  N   N4        1.0  0.39598  0.23741  0.95987  1.0000
  N   N5        1.0  0.70212  0.60475  0.67046  1.0000
  N   N6        1.0  0.29789  0.89525  0.17046  1.0000
  N   N7        1.0  0.29788  0.39525  0.32954  1.0000
  N   N8        1.0  0.70212  0.10475  0.82954  1.0000
  N   N9        1.0  0.89260  0.51665  0.29113  1.0000
  N   N10       1.0  0.10741  0.98335  0.79113  1.0000
  N   N11       1.0  0.10741  0.48335  0.70887  1.0000
  N   N12       1.0  0.89262  0.01665  0.20885  1.0000
  N   N13       1.0  0.96381  0.25080  0.06946  1.0000
  N   N14       1.0  0.03617  0.24919  0.56945  1.0000
  N   N15       1.0  0.03619  0.74919  0.93055  1.0000
  N   N16       1.0  0.96382  0.75081  0.43054  1.0000
  O   O1        1.0  0.17716  0.02570  0.02872  1.0000
  O   O2        1.0  0.82285  0.47430  0.52872  1.0000
  O   O3        1.0  0.82285  0.97429  0.97128  1.0000
  O   O4        1.0  0.17715  0.52570  0.47128  1.0000
