data_image0
_chemical_formula_structural       Cd2H60C66N8O14
_chemical_formula_sum              "Cd2 H60 C66 N8 O14"
_cell_length_a       11.0886
_cell_length_b       11.603
_cell_length_c       13.0693
_cell_angle_alpha    70.9436
_cell_angle_beta     87.2148
_cell_angle_gamma    69.49

_space_group_name_H-M_alt    "P 1"
_space_group_IT_number       1

loop_
  _space_group_symop_operation_xyz
  'x, y, z'

loop_
  _atom_site_type_symbol
  _atom_site_label
  _atom_site_symmetry_multiplicity
  _atom_site_fract_x
  _atom_site_fract_y
  _atom_site_fract_z
  _atom_site_occupancy
  Cd  Cd1       1.0  0.48599  0.20827  0.14095  1.0000
  Cd  Cd2       1.0  0.51401  0.79173  0.85905  1.0000
  H   H1        1.0  0.77078  0.42186  0.87043  1.0000
  H   H2        1.0  0.22922  0.57814  0.12957  1.0000
  H   H3        1.0  0.18869  0.06601  0.68526  1.0000
  H   H4        1.0  0.81132  0.93399  0.31474  1.0000
  H   H5        1.0  0.59514  0.39242  0.06025  1.0000
  H   H6        1.0  0.40486  0.60758  0.93975  1.0000
  H   H7        1.0  0.46194  0.47168  0.09985  1.0000
  H   H8        1.0  0.53806  0.52832  0.90015  1.0000
  H   H9        1.0  0.61836  0.13795  0.82015  1.0000
  H   H10       1.0  0.38164  0.86205  0.17985  1.0000
  H   H11       1.0  0.92537  0.26459  0.48213  1.0000
  H   H12       1.0  0.07462  0.73541  0.51787  1.0000
  H   H13       1.0  0.85371  0.13250  0.40536  1.0000
  H   H14       1.0  0.14629  0.86750  0.59464  1.0000
  H   H15       1.0  0.69737  0.02825  0.49677  1.0000
  H   H16       1.0  0.30263  0.97175  0.50323  1.0000
  H   H17       1.0  0.62049  0.05214  0.67489  1.0000
  H   H18       1.0  0.37951  0.94786  0.32511  1.0000
  H   H19       1.0  0.94768  0.39244  0.53210  1.0000
  H   H20       1.0  0.05232  0.60756  0.46790  1.0000
  H   H21       1.0  0.87618  0.50365  0.60088  1.0000
  H   H22       1.0  0.12382  0.49635  0.39912  1.0000
  H   H23       1.0  0.40467  0.24623  0.81927  1.0000
  H   H24       1.0  0.59533  0.75377  0.18073  1.0000
  H   H25       1.0  0.91330  0.61141  0.66713  1.0000
  H   H26       1.0  0.08670  0.38859  0.33287  1.0000
  H   H27       1.0  0.98280  0.75637  0.72917  1.0000
  H   H28       1.0  0.01720  0.24364  0.27083  1.0000
  H   H29       1.0  0.20821  0.68523  0.80982  1.0000
  H   H30       1.0  0.79179  0.31477  0.19018  1.0000
  H   H31       1.0  0.36017  0.46180  0.83139  1.0000
  H   H32       1.0  0.63983  0.53820  0.16861  1.0000
  H   H33       1.0  0.52927  0.34703  0.31757  1.0000
  H   H34       1.0  0.47073  0.65298  0.68243  1.0000
  H   H35       1.0  0.26484  0.15566  0.33852  1.0000
  H   H36       1.0  0.73516  0.84435  0.66148  1.0000
  H   H37       1.0  0.24318  0.24417  0.51450  1.0000
  H   H38       1.0  0.75682  0.75583  0.48550  1.0000
  H   H39       1.0  0.31615  0.44132  0.52547  1.0000
  H   H40       1.0  0.68385  0.55868  0.47453  1.0000
  H   H41       1.0  0.45744  0.30662  0.58806  1.0000
  H   H42       1.0  0.54256  0.69338  0.41194  1.0000
  H   H43       1.0  0.44964  0.53447  0.38246  1.0000
  H   H44       1.0  0.55036  0.46553  0.61754  1.0000
  H   H45       1.0  0.59074  0.40178  0.45035  1.0000
  H   H46       1.0  0.40926  0.59822  0.54965  1.0000
  H   H47       1.0  0.35614  0.06554  0.01845  1.0000
  H   H48       1.0  0.64386  0.93446  0.98155  1.0000
  H   H49       1.0  0.97983  0.34028  0.00067  1.0000
  H   H50       1.0  0.02017  0.65972  0.99933  1.0000
  H   H51       1.0  0.15473  0.41017  0.09029  1.0000
  H   H52       1.0  0.84527  0.58983  0.90971  1.0000
  H   H53       1.0  0.18750  0.03307  0.93327  1.0000
  H   H54       1.0  0.81250  0.96693  0.06673  1.0000
  H   H55       1.0  0.04926  0.17306  0.87287  1.0000
  H   H56       1.0  0.95074  0.82694  0.12713  1.0000
  H   H57       1.0  0.93254  0.11676  0.03945  1.0000
  H   H58       1.0  0.06746  0.88324  0.96055  1.0000
  H   H59       1.0  0.07270  0.98242  0.10483  1.0000
  H   H60       1.0  0.92730  0.01758  0.89517  1.0000
  C   C1        1.0  0.65892  0.28524  0.92536  1.0000
  C   C2        1.0  0.34108  0.71476  0.07464  1.0000
  C   C3        1.0  0.84718  0.32246  0.66925  1.0000
  C   C4        1.0  0.15282  0.67754  0.33075  1.0000
  C   C5        1.0  0.79580  0.33776  0.76571  1.0000
  C   C6        1.0  0.20420  0.66224  0.23429  1.0000
  C   C7        1.0  0.71361  0.26923  0.82220  1.0000
  C   C8        1.0  0.28639  0.73077  0.17780  1.0000
  C   C9        1.0  0.68150  0.18933  0.77803  1.0000
  C   C10       1.0  0.31850  0.81066  0.22197  1.0000
  C   C11       1.0  0.72706  0.17495  0.67876  1.0000
  C   C12       1.0  0.27294  0.82505  0.32124  1.0000
  C   C13       1.0  0.81279  0.24054  0.62400  1.0000
  C   C14       1.0  0.18721  0.75946  0.37600  1.0000
  C   C15       1.0  0.85757  0.22062  0.52497  1.0000
  C   C16       1.0  0.14243  0.77938  0.47503  1.0000
  C   C17       1.0  0.81734  0.14559  0.48140  1.0000
  C   C18       1.0  0.18266  0.85441  0.51860  1.0000
  C   C19       1.0  0.72990  0.08494  0.53385  1.0000
  C   C20       1.0  0.27010  0.91507  0.46615  1.0000
  C   C21       1.0  0.68711  0.09839  0.63152  1.0000
  C   C22       1.0  0.31289  0.90161  0.36847  1.0000
  C   C23       1.0  0.93098  0.40038  0.61341  1.0000
  C   C24       1.0  0.06901  0.59962  0.38659  1.0000
  C   C25       1.0  0.35902  0.05445  0.77604  1.0000
  C   C26       1.0  0.64099  0.94555  0.22396  1.0000
  C   C27       1.0  0.06095  0.36265  0.67199  1.0000
  C   C28       1.0  0.93905  0.63735  0.32801  1.0000
  C   C29       1.0  0.14941  0.23678  0.68955  1.0000
  C   C30       1.0  0.85059  0.76322  0.31045  1.0000
  C   C31       1.0  0.27404  0.19351  0.74463  1.0000
  C   C32       1.0  0.72596  0.80648  0.25537  1.0000
  C   C33       1.0  0.31026  0.28001  0.77651  1.0000
  C   C34       1.0  0.68974  0.71999  0.22349  1.0000
  C   C35       1.0  0.22530  0.40870  0.75882  1.0000
  C   C36       1.0  0.77470  0.59130  0.24118  1.0000
  C   C37       1.0  0.09739  0.44999  0.70859  1.0000
  C   C38       1.0  0.90261  0.55001  0.29141  1.0000
  C   C39       1.0  0.01236  0.57779  0.70018  1.0000
  C   C40       1.0  0.98764  0.42221  0.29982  1.0000
  C   C41       1.0  0.05133  0.65943  0.73620  1.0000
  C   C42       1.0  0.94867  0.34057  0.26380  1.0000
  C   C43       1.0  0.17807  0.61948  0.78259  1.0000
  C   C44       1.0  0.82193  0.38052  0.21741  1.0000
  C   C45       1.0  0.26276  0.49576  0.79390  1.0000
  C   C46       1.0  0.73724  0.50424  0.20610  1.0000
  C   C47       1.0  0.45478  0.30669  0.34680  1.0000
  C   C48       1.0  0.54522  0.69331  0.65320  1.0000
  C   C49       1.0  0.31757  0.20774  0.36083  1.0000
  C   C50       1.0  0.68242  0.79226  0.63917  1.0000
  C   C51       1.0  0.30531  0.25151  0.44803  1.0000
  C   C52       1.0  0.69469  0.74849  0.55197  1.0000
  C   C53       1.0  0.41184  0.38077  0.51006  1.0000
  C   C54       1.0  0.58816  0.61923  0.48994  1.0000
  C   C55       1.0  0.49389  0.46381  0.46241  1.0000
  C   C56       1.0  0.50611  0.53619  0.53759  1.0000
  C   C57       1.0  0.27936  0.15047  0.02638  1.0000
  C   C58       1.0  0.72064  0.84953  0.97362  1.0000
  C   C59       1.0  0.08346  0.29516  0.01790  1.0000
  C   C60       1.0  0.91654  0.70484  0.98210  1.0000
  C   C61       1.0  0.17141  0.32910  0.06086  1.0000
  C   C62       1.0  0.82859  0.67090  0.93914  1.0000
  C   C63       1.0  0.10352  0.10738  0.95050  1.0000
  C   C64       1.0  0.89648  0.89261  0.04950  1.0000
  C   C65       1.0  0.01953  0.04227  0.02526  1.0000
  C   C66       1.0  0.98047  0.95773  0.97474  1.0000
  N   N1        1.0  0.41094  0.24261  0.29859  1.0000
  N   N2        1.0  0.58906  0.75739  0.70141  1.0000
  N   N3        1.0  0.39252  0.31481  0.43742  1.0000
  N   N4        1.0  0.60748  0.68519  0.56258  1.0000
  N   N5        1.0  0.29325  0.23830  0.06536  1.0000
  N   N6        1.0  0.70675  0.76170  0.93464  1.0000
  N   N7        1.0  0.15358  0.18174  0.99682  1.0000
  N   N8        1.0  0.84642  0.81826  0.00318  1.0000
  O   O1        1.0  0.60179  0.21113  0.98016  1.0000
  O   O2        1.0  0.39821  0.78887  0.01984  1.0000
  O   O3        1.0  0.67262  0.37899  0.95312  1.0000
  O   O4        1.0  0.32738  0.62101  0.04688  1.0000
  O   O5        1.0  0.82483  0.41996  0.80589  1.0000
  O   O6        1.0  0.17517  0.58004  0.19411  1.0000
  O   O7        1.0  0.31882  0.97357  0.75210  1.0000
  O   O8        1.0  0.68118  0.02643  0.24790  1.0000
  O   O9        1.0  0.46658  0.01611  0.82967  1.0000
  O   O10       1.0  0.53342  0.98389  0.17034  1.0000
  O   O11       1.0  0.11550  0.15395  0.65431  1.0000
  O   O12       1.0  0.88450  0.84605  0.34569  1.0000
  O   O13       1.0  0.53910  0.39106  0.12330  1.0000
  O   O14       1.0  0.46090  0.60894  0.87670  1.0000
