data_image0
_chemical_formula_structural       Sn2H30C36F2
_chemical_formula_sum              "Sn2 H30 C36 F2"
_cell_length_a       8.68526
_cell_length_b       10.0898
_cell_length_c       10.09
_cell_angle_alpha    119.999
_cell_angle_beta     90.0014
_cell_angle_gamma    89.9998

_space_group_name_H-M_alt    "P 1"
_space_group_IT_number       1

loop_
  _space_group_symop_operation_xyz
  'x, y, z'

loop_
  _atom_site_type_symbol
  _atom_site_label
  _atom_site_symmetry_multiplicity
  _atom_site_fract_x
  _atom_site_fract_y
  _atom_site_fract_z
  _atom_site_occupancy
  Sn  Sn1       1.0  0.25000  0.99999  0.99998  1.0000
  Sn  Sn2       1.0  0.75000  0.99997  0.99999  1.0000
  H   H1        1.0  0.43562  0.31149  0.16538  1.0000
  H   H2        1.0  0.43560  0.83465  0.14612  1.0000
  H   H3        1.0  0.06438  0.16536  0.31149  1.0000
  H   H4        1.0  0.43559  0.85390  0.68853  1.0000
  H   H5        1.0  0.06436  0.68853  0.85390  1.0000
  H   H6        1.0  0.06439  0.14612  0.83464  1.0000
  H   H7        1.0  0.56439  0.68851  0.83464  1.0000
  H   H8        1.0  0.56438  0.16535  0.85389  1.0000
  H   H9        1.0  0.93560  0.83465  0.68852  1.0000
  H   H10       1.0  0.56440  0.14612  0.31147  1.0000
  H   H11       1.0  0.93562  0.31147  0.14610  1.0000
  H   H12       1.0  0.93560  0.85389  0.16535  1.0000
  H   H13       1.0  0.43270  0.55775  0.16637  1.0000
  H   H14       1.0  0.43267  0.83367  0.39138  1.0000
  H   H15       1.0  0.06733  0.16632  0.55773  1.0000
  H   H16       1.0  0.43266  0.60861  0.44229  1.0000
  H   H17       1.0  0.06732  0.44228  0.60860  1.0000
  H   H18       1.0  0.06737  0.39141  0.83371  1.0000
  H   H19       1.0  0.56730  0.44224  0.83363  1.0000
  H   H20       1.0  0.56731  0.16633  0.60861  1.0000
  H   H21       1.0  0.93267  0.83368  0.44227  1.0000
  H   H22       1.0  0.56734  0.39141  0.55772  1.0000
  H   H23       1.0  0.93268  0.55775  0.39139  1.0000
  H   H24       1.0  0.93265  0.60860  0.16631  1.0000
  H   H25       1.0  0.25003  0.59744  0.00004  1.0000
  H   H26       1.0  0.25000  1.00000  0.59743  1.0000
  H   H27       1.0  0.25001  0.40259  0.40259  1.0000
  H   H28       1.0  0.74999  0.40256  0.99997  1.0000
  H   H29       1.0  0.75000  0.00001  0.40258  1.0000
  H   H30       1.0  0.75000  0.59744  0.59743  1.0000
  C   C1        1.0  0.25005  0.21165  0.99999  1.0000
  C   C2        1.0  0.25001  0.00000  0.21167  1.0000
  C   C3        1.0  0.24999  0.78831  0.78832  1.0000
  C   C4        1.0  0.74998  0.78836  0.99999  1.0000
  C   C5        1.0  0.74999  1.00000  0.78832  1.0000
  C   C6        1.0  0.75002  0.21163  0.21163  1.0000
  C   C7        1.0  0.35331  0.32835  0.09327  1.0000
  C   C8        1.0  0.35330  0.90676  0.23513  1.0000
  C   C9        1.0  0.14671  0.09324  0.32837  1.0000
  C   C10       1.0  0.35329  0.76488  0.67163  1.0000
  C   C11       1.0  0.14667  0.67163  0.76488  1.0000
  C   C12       1.0  0.14670  0.23515  0.90680  1.0000
  C   C13       1.0  0.64669  0.67165  0.90676  1.0000
  C   C14       1.0  0.64669  0.09324  0.76488  1.0000
  C   C15       1.0  0.85329  0.90676  0.67162  1.0000
  C   C16       1.0  0.64673  0.23511  0.32834  1.0000
  C   C17       1.0  0.85331  0.32834  0.23509  1.0000
  C   C18       1.0  0.85328  0.76489  0.09323  1.0000
  C   C19       1.0  0.35245  0.46711  0.09378  1.0000
  C   C20       1.0  0.35240  0.90626  0.37338  1.0000
  C   C21       1.0  0.14758  0.09375  0.46713  1.0000
  C   C22       1.0  0.35241  0.62664  0.53289  1.0000
  C   C23       1.0  0.14758  0.53287  0.62664  1.0000
  C   C24       1.0  0.14760  0.37338  0.90627  1.0000
  C   C25       1.0  0.64757  0.53287  0.90622  1.0000
  C   C26       1.0  0.64758  0.09375  0.62662  1.0000
  C   C27       1.0  0.85241  0.90624  0.53286  1.0000
  C   C28       1.0  0.64759  0.37337  0.46711  1.0000
  C   C29       1.0  0.85243  0.46711  0.37334  1.0000
  C   C30       1.0  0.85241  0.62664  0.09374  1.0000
  C   C31       1.0  0.25002  0.48942  0.00001  1.0000
  C   C32       1.0  0.24999  0.99999  0.48942  1.0000
  C   C33       1.0  0.24999  0.51060  0.51060  1.0000
  C   C34       1.0  0.74999  0.51059  0.00001  1.0000
  C   C35       1.0  0.74999  0.99999  0.51057  1.0000
  C   C36       1.0  0.75002  0.48942  0.48942  1.0000
  F   F1        1.0  0.00000  0.00000  1.00000  1.0000
  F   F2        1.0  0.50000  1.00000  0.00000  1.0000
