data_image0
_chemical_formula_structural       Bi4H40C24N4O32
_chemical_formula_sum              "Bi4 H40 C24 N4 O32"
_cell_length_a       6.27983
_cell_length_b       8.21966
_cell_length_c       20.7621
_cell_angle_alpha    90.0004
_cell_angle_beta     89.9984
_cell_angle_gamma    102.931

_space_group_name_H-M_alt    "P 1"
_space_group_IT_number       1

loop_
  _space_group_symop_operation_xyz
  'x, y, z'

loop_
  _atom_site_type_symbol
  _atom_site_label
  _atom_site_symmetry_multiplicity
  _atom_site_fract_x
  _atom_site_fract_y
  _atom_site_fract_z
  _atom_site_occupancy
  Bi  Bi1       1.0  0.91090  0.57142  0.90528  1.0000
  Bi  Bi2       1.0  0.58910  0.92858  0.40528  1.0000
  Bi  Bi3       1.0  0.08911  0.42858  0.09472  1.0000
  Bi  Bi4       1.0  0.41090  0.07142  0.59472  1.0000
  H   H1        1.0  0.20176  0.88351  0.85186  1.0000
  H   H2        1.0  0.29824  0.61648  0.35185  1.0000
  H   H3        1.0  0.79825  0.11649  0.14814  1.0000
  H   H4        1.0  0.70175  0.38352  0.64815  1.0000
  H   H5        1.0  0.15524  0.90010  0.92806  1.0000
  H   H6        1.0  0.34476  0.59989  0.42805  1.0000
  H   H7        1.0  0.84476  0.09990  0.07194  1.0000
  H   H8        1.0  0.65524  0.40010  0.57195  1.0000
  H   H9        1.0  0.50370  0.69775  0.93920  1.0000
  H   H10       1.0  0.99628  0.80225  0.43920  1.0000
  H   H11       1.0  0.49631  0.30226  0.06080  1.0000
  H   H12       1.0  0.00372  0.19774  0.56080  1.0000
  H   H13       1.0  0.67829  0.85149  0.97090  1.0000
  H   H14       1.0  0.82169  0.64851  0.47090  1.0000
  H   H15       1.0  0.32171  0.14852  0.02910  1.0000
  H   H16       1.0  0.17831  0.35149  0.52910  1.0000
  H   H17       1.0  0.95180  0.21786  0.75525  1.0000
  H   H18       1.0  0.54822  0.28217  0.25526  1.0000
  H   H19       1.0  0.04820  0.78215  0.24475  1.0000
  H   H20       1.0  0.45179  0.71783  0.74475  1.0000
  H   H21       1.0  0.69460  0.24067  0.78382  1.0000
  H   H22       1.0  0.80540  0.25933  0.28383  1.0000
  H   H23       1.0  0.30540  0.75933  0.21618  1.0000
  H   H24       1.0  0.19460  0.74067  0.71618  1.0000
  H   H25       1.0  0.62847  0.15156  0.87818  1.0000
  H   H26       1.0  0.87152  0.34844  0.37818  1.0000
  H   H27       1.0  0.37153  0.84844  0.12182  1.0000
  H   H28       1.0  0.12848  0.65156  0.62182  1.0000
  H   H29       1.0  0.83133  0.03168  0.87812  1.0000
  H   H30       1.0  0.66866  0.46832  0.37813  1.0000
  H   H31       1.0  0.16867  0.96832  0.12188  1.0000
  H   H32       1.0  0.33134  0.53168  0.62187  1.0000
  H   H33       1.0  0.18767  0.19418  0.90025  1.0000
  H   H34       1.0  0.31231  0.30581  0.40026  1.0000
  H   H35       1.0  0.81233  0.80582  0.09975  1.0000
  H   H36       1.0  0.68768  0.69419  0.59974  1.0000
  H   H37       1.0  0.22551  0.21628  0.81689  1.0000
  H   H38       1.0  0.27449  0.28373  0.31690  1.0000
  H   H39       1.0  0.77449  0.78372  0.18311  1.0000
  H   H40       1.0  0.72551  0.71627  0.68310  1.0000
  C   C1        1.0  0.90398  0.46788  0.75743  1.0000
  C   C2        1.0  0.59601  0.03213  0.25742  1.0000
  C   C3        1.0  0.09602  0.53212  0.24258  1.0000
  C   C4        1.0  0.40399  0.96787  0.74259  1.0000
  C   C5        1.0  0.87109  0.29394  0.78660  1.0000
  C   C6        1.0  0.62892  0.20608  0.28660  1.0000
  C   C7        1.0  0.12891  0.70606  0.21340  1.0000
  C   C8        1.0  0.37108  0.79392  0.71340  1.0000
  C   C9        1.0  0.82473  0.17963  0.96275  1.0000
  C   C10       1.0  0.67525  0.32036  0.46275  1.0000
  C   C11       1.0  0.17526  0.82037  0.03725  1.0000
  C   C12       1.0  0.32474  0.67963  0.53725  1.0000
  C   C13       1.0  0.79906  0.15408  0.89056  1.0000
  C   C14       1.0  0.70093  0.34592  0.39056  1.0000
  C   C15       1.0  0.20094  0.84592  0.10944  1.0000
  C   C16       1.0  0.29907  0.65408  0.60944  1.0000
  C   C17       1.0  0.34232  0.43553  0.87365  1.0000
  C   C18       1.0  0.15766  0.06446  0.37364  1.0000
  C   C19       1.0  0.65767  0.56447  0.12635  1.0000
  C   C20       1.0  0.84234  0.93553  0.62636  1.0000
  C   C21       1.0  0.17263  0.27636  0.85953  1.0000
  C   C22       1.0  0.32736  0.22364  0.35953  1.0000
  C   C23       1.0  0.82737  0.72365  0.14047  1.0000
  C   C24       1.0  0.67264  0.77635  0.64047  1.0000
  N   N1        1.0  0.94251  0.29004  0.85411  1.0000
  N   N2        1.0  0.55749  0.20996  0.35411  1.0000
  N   N3        1.0  0.05749  0.70996  0.14589  1.0000
  N   N4        1.0  0.44251  0.79004  0.64589  1.0000
  O   O1        1.0  0.93561  0.59694  0.79461  1.0000
  O   O2        1.0  0.56439  0.90306  0.29460  1.0000
  O   O3        1.0  0.06440  0.40306  0.20539  1.0000
  O   O4        1.0  0.43561  0.09694  0.70539  1.0000
  O   O5        1.0  0.89413  0.47904  0.69735  1.0000
  O   O6        1.0  0.60586  0.02099  0.19735  1.0000
  O   O7        1.0  0.10588  0.52096  0.30264  1.0000
  O   O8        1.0  0.39414  0.97901  0.80265  1.0000
  O   O9        1.0  0.90205  0.32825  0.98363  1.0000
  O   O10       1.0  0.59796  0.17175  0.48363  1.0000
  O   O11       1.0  0.09795  0.67176  0.01637  1.0000
  O   O12       1.0  0.40205  0.82825  0.51637  1.0000
  O   O13       1.0  0.76572  0.05369  0.99879  1.0000
  O   O14       1.0  0.73427  0.44631  0.49879  1.0000
  O   O15       1.0  0.23428  0.94632  0.00121  1.0000
  O   O16       1.0  0.26574  0.55369  0.50121  1.0000
  O   O17       1.0  0.28347  0.56640  0.89361  1.0000
  O   O18       1.0  0.21652  0.93360  0.39361  1.0000
  O   O19       1.0  0.71653  0.43360  0.10639  1.0000
  O   O20       1.0  0.78348  0.06640  0.60639  1.0000
  O   O21       1.0  0.53832  0.42512  0.86695  1.0000
  O   O22       1.0  0.96168  0.07488  0.36694  1.0000
  O   O23       1.0  0.46168  0.57489  0.13305  1.0000
  O   O24       1.0  0.03832  0.92512  0.63306  1.0000
  O   O25       1.0  0.08427  0.85879  0.88561  1.0000
  O   O26       1.0  0.41573  0.64121  0.38560  1.0000
  O   O27       1.0  0.91573  0.14121  0.11439  1.0000
  O   O28       1.0  0.58427  0.35879  0.61440  1.0000
  O   O29       1.0  0.64447  0.72918  0.96228  1.0000
  O   O30       1.0  0.85550  0.77081  0.46228  1.0000
  O   O31       1.0  0.35553  0.27082  0.03772  1.0000
  O   O32       1.0  0.14450  0.22918  0.53772  1.0000
