data_image0
_chemical_formula_structural       Mo4H20C20N6O13
_chemical_formula_sum              "Mo4 H20 C20 N6 O13"
_cell_length_a       8.17109
_cell_length_b       8.97576
_cell_length_c       9.57107
_cell_angle_alpha    92.7258
_cell_angle_beta     102.39
_cell_angle_gamma    107.068

_space_group_name_H-M_alt    "P 1"
_space_group_IT_number       1

loop_
  _space_group_symop_operation_xyz
  'x, y, z'

loop_
  _atom_site_type_symbol
  _atom_site_label
  _atom_site_symmetry_multiplicity
  _atom_site_fract_x
  _atom_site_fract_y
  _atom_site_fract_z
  _atom_site_occupancy
  Mo  Mo1       1.0  0.78338  0.39337  0.86505  1.0000
  Mo  Mo2       1.0  0.21662  0.60663  0.13495  1.0000
  Mo  Mo3       1.0  0.36182  0.34948  0.87065  1.0000
  Mo  Mo4       1.0  0.63818  0.65052  0.12935  1.0000
  H   H1        1.0  0.59604  0.25890  0.12007  1.0000
  H   H2        1.0  0.40396  0.74110  0.87993  1.0000
  H   H3        1.0  0.97192  0.15260  0.64701  1.0000
  H   H4        1.0  0.02808  0.84740  0.35299  1.0000
  H   H5        1.0  0.43616  0.01299  0.16563  1.0000
  H   H6        1.0  0.56384  0.98701  0.83437  1.0000
  H   H7        1.0  0.54402  0.90412  0.38554  1.0000
  H   H8        1.0  0.45599  0.09588  0.61445  1.0000
  H   H9        1.0  0.99307  0.33002  0.49738  1.0000
  H   H10       1.0  0.00693  0.66998  0.50262  1.0000
  H   H11       1.0  0.86285  0.42344  0.27001  1.0000
  H   H12       1.0  0.13715  0.57656  0.72999  1.0000
  H   H13       1.0  0.62030  0.53093  0.59720  1.0000
  H   H14       1.0  0.37970  0.46907  0.40280  1.0000
  H   H15       1.0  0.64336  0.75812  0.46466  1.0000
  H   H16       1.0  0.35664  0.24188  0.53534  1.0000
  H   H17       1.0  0.02442  0.03566  0.84556  1.0000
  H   H18       1.0  0.97558  0.96434  0.15444  1.0000
  H   H19       1.0  0.98701  0.79096  0.95921  1.0000
  H   H20       1.0  0.01299  0.20904  0.04079  1.0000
  C   C1        1.0  0.55812  0.07763  0.24357  1.0000
  C   C2        1.0  0.44188  0.92237  0.75644  1.0000
  C   C3        1.0  0.62211  0.01817  0.36642  1.0000
  C   C4        1.0  0.37789  0.98183  0.63358  1.0000
  C   C5        1.0  0.78340  0.10690  0.46156  1.0000
  C   C6        1.0  0.21660  0.89310  0.53844  1.0000
  C   C7        1.0  0.86985  0.25741  0.42629  1.0000
  C   C8        1.0  0.13015  0.74258  0.57371  1.0000
  C   C9        1.0  0.79999  0.31034  0.30272  1.0000
  C   C10       1.0  0.20001  0.68966  0.69728  1.0000
  C   C11       1.0  0.70525  0.64622  0.64987  1.0000
  C   C12       1.0  0.29475  0.35377  0.35013  1.0000
  C   C13       1.0  0.71690  0.77670  0.57621  1.0000
  C   C14       1.0  0.28310  0.22330  0.42379  1.0000
  C   C15       1.0  0.83135  0.92352  0.64609  1.0000
  C   C16       1.0  0.16865  0.07648  0.35391  1.0000
  C   C17       1.0  0.92925  0.92680  0.78735  1.0000
  C   C18       1.0  0.07075  0.07320  0.21266  1.0000
  C   C19       1.0  0.90823  0.78974  0.85169  1.0000
  C   C20       1.0  0.09177  0.21026  0.14830  1.0000
  N   N1        1.0  0.64638  0.21976  0.21395  1.0000
  N   N2        1.0  0.35362  0.78024  0.78605  1.0000
  N   N3        1.0  0.86352  0.06351  0.58623  1.0000
  N   N4        1.0  0.13649  0.93649  0.41377  1.0000
  N   N5        1.0  0.79693  0.64959  0.78555  1.0000
  N   N6        1.0  0.20307  0.35041  0.21445  1.0000
  O   O1        1.0  0.00000  0.50000  0.00000  1.0000
  O   O2        1.0  0.53197  0.36387  0.76455  1.0000
  O   O3        1.0  0.46803  0.63613  0.23545  1.0000
  O   O4        1.0  0.35139  0.19675  0.97501  1.0000
  O   O5        1.0  0.64861  0.80325  0.02499  1.0000
  O   O6        1.0  0.74317  0.21034  0.92463  1.0000
  O   O7        1.0  0.25683  0.78966  0.07537  1.0000
  O   O8        1.0  0.85149  0.37135  0.71035  1.0000
  O   O9        1.0  0.14851  0.62865  0.28965  1.0000
  O   O10       1.0  0.65634  0.47589  0.03122  1.0000
  O   O11       1.0  0.34366  0.52411  0.96878  1.0000
  O   O12       1.0  0.82864  0.71141  0.26734  1.0000
  O   O13       1.0  0.17136  0.28859  0.73265  1.0000
