data_image0
_chemical_formula_structural       La2H32C18O16
_chemical_formula_sum              "La2 H32 C18 O16"
_cell_length_a       8.9504
_cell_length_b       9.8398
_cell_length_c       10.3522
_cell_angle_alpha    68.6589
_cell_angle_beta     78.1914
_cell_angle_gamma    58.7007

_space_group_name_H-M_alt    "P 1"
_space_group_IT_number       1

loop_
  _space_group_symop_operation_xyz
  'x, y, z'

loop_
  _atom_site_type_symbol
  _atom_site_label
  _atom_site_symmetry_multiplicity
  _atom_site_fract_x
  _atom_site_fract_y
  _atom_site_fract_z
  _atom_site_occupancy
  La  La1       1.0  0.77457  0.95961  0.00488  1.0000
  La  La2       1.0  0.22542  0.04038  0.99512  1.0000
  H   H1        1.0  0.69878  0.84944  0.59836  1.0000
  H   H2        1.0  0.30119  0.15055  0.40166  1.0000
  H   H3        1.0  0.49354  0.02679  0.60932  1.0000
  H   H4        1.0  0.50644  0.97322  0.39068  1.0000
  H   H5        1.0  0.36531  0.85013  0.75209  1.0000
  H   H6        1.0  0.63470  0.14986  0.24793  1.0000
  H   H7        1.0  0.44542  0.81128  0.59239  1.0000
  H   H8        1.0  0.55454  0.18872  0.40763  1.0000
  H   H9        1.0  0.71787  0.55419  0.71221  1.0000
  H   H10       1.0  0.28213  0.44582  0.28779  1.0000
  H   H11       1.0  0.62602  0.59521  0.87178  1.0000
  H   H12       1.0  0.37398  0.40477  0.12822  1.0000
  H   H13       1.0  0.36903  0.57548  0.84520  1.0000
  H   H14       1.0  0.63096  0.42450  0.15484  1.0000
  H   H15       1.0  0.45066  0.53900  0.68383  1.0000
  H   H16       1.0  0.54935  0.46100  0.31616  1.0000
  H   H17       1.0  0.18840  0.84245  0.35306  1.0000
  H   H18       1.0  0.81161  0.15758  0.64693  1.0000
  H   H19       1.0  0.06902  0.74394  0.46801  1.0000
  H   H20       1.0  0.93098  0.25606  0.53199  1.0000
  H   H21       1.0  0.93060  0.12340  0.35605  1.0000
  H   H22       1.0  0.06939  0.87662  0.64394  1.0000
  H   H23       1.0  0.82409  0.01985  0.48064  1.0000
  H   H24       1.0  0.17591  0.98017  0.51934  1.0000
  H   H25       1.0  0.79056  0.69935  0.25054  1.0000
  H   H26       1.0  0.20944  0.30065  0.74945  1.0000
  H   H27       1.0  0.63644  0.71162  0.18514  1.0000
  H   H28       1.0  0.36356  0.28838  0.81485  1.0000
  H   H29       1.0  0.17041  0.67900  0.02922  1.0000
  H   H30       1.0  0.82960  0.32099  0.97077  1.0000
  H   H31       1.0  0.05536  0.58527  0.07920  1.0000
  H   H32       1.0  0.94463  0.41473  0.92079  1.0000
  C   C1        1.0  0.63530  0.89721  0.79304  1.0000
  C   C2        1.0  0.36473  0.10279  0.20696  1.0000
  C   C3        1.0  0.58209  0.89503  0.66462  1.0000
  C   C4        1.0  0.41789  0.10498  0.33539  1.0000
  C   C5        1.0  0.48625  0.79615  0.69232  1.0000
  C   C6        1.0  0.51375  0.20384  0.30770  1.0000
  C   C7        1.0  0.59349  0.61057  0.76874  1.0000
  C   C8        1.0  0.40650  0.38941  0.23127  1.0000
  C   C9        1.0  0.49060  0.52042  0.78521  1.0000
  C   C10       1.0  0.50938  0.47957  0.21480  1.0000
  C   C11       1.0  0.58612  0.33528  0.85991  1.0000
  C   C12       1.0  0.41388  0.66471  0.14009  1.0000
  C   C13       1.0  0.96559  0.88653  0.26421  1.0000
  C   C14       1.0  0.03441  0.11347  0.73578  1.0000
  C   C15       1.0  0.05726  0.85788  0.38623  1.0000
  C   C16       1.0  0.94275  0.14212  0.61376  1.0000
  C   C17       1.0  0.95256  0.00871  0.44181  1.0000
  C   C18       1.0  0.04744  0.99130  0.55819  1.0000
  O   O1        1.0  0.78660  0.87608  0.79805  1.0000
  O   O2        1.0  0.21344  0.12393  0.20193  1.0000
  O   O3        1.0  0.52407  0.92600  0.89368  1.0000
  O   O4        1.0  0.47597  0.07400  0.10632  1.0000
  O   O5        1.0  0.57110  0.23510  0.81840  1.0000
  O   O6        1.0  0.42890  0.76490  0.18159  1.0000
  O   O7        1.0  0.67949  0.27775  0.96495  1.0000
  O   O8        1.0  0.32052  0.72224  0.03503  1.0000
  O   O9        1.0  0.85272  0.83984  0.28122  1.0000
  O   O10       1.0  0.14728  0.16016  0.71876  1.0000
  O   O11       1.0  0.99636  0.96736  0.14187  1.0000
  O   O12       1.0  0.00365  0.03265  0.85813  1.0000
  O   O13       1.0  0.75959  0.69119  0.16904  1.0000
  O   O14       1.0  0.24042  0.30881  0.83094  1.0000
  O   O15       1.0  0.05848  0.68527  0.01685  1.0000
  O   O16       1.0  0.94152  0.31472  0.98315  1.0000
