data_image0
_chemical_formula_structural       Cd4P4H32C24Cl4O12
_chemical_formula_sum              "Cd4 P4 H32 C24 Cl4 O12"
_cell_length_a       5.84152
_cell_length_b       12.7882
_cell_length_c       13.4792
_cell_angle_alpha    63.9387
_cell_angle_beta     77.4727
_cell_angle_gamma    76.8142

_space_group_name_H-M_alt    "P 1"
_space_group_IT_number       1

loop_
  _space_group_symop_operation_xyz
  'x, y, z'

loop_
  _atom_site_type_symbol
  _atom_site_label
  _atom_site_symmetry_multiplicity
  _atom_site_fract_x
  _atom_site_fract_y
  _atom_site_fract_z
  _atom_site_occupancy
  Cd  Cd1       1.0  0.22851  0.74993  0.24999  1.0000
  Cd  Cd2       1.0  0.77149  0.25007  0.75001  1.0000
  Cd  Cd3       1.0  0.00000  0.00000  0.00000  1.0000
  Cd  Cd4       1.0  0.00000  0.50000  0.50000  1.0000
  P   P1        1.0  0.65399  0.89523  0.26660  1.0000
  P   P2        1.0  0.81604  0.60455  0.23347  1.0000
  P   P3        1.0  0.34601  0.10477  0.73340  1.0000
  P   P4        1.0  0.18396  0.39545  0.76653  1.0000
  H   H1        1.0  0.67400  0.78972  0.36413  1.0000
  H   H2        1.0  0.82848  0.71004  0.13587  1.0000
  H   H3        1.0  0.32601  0.21028  0.63587  1.0000
  H   H4        1.0  0.17152  0.28996  0.86413  1.0000
  H   H5        1.0  0.32979  0.00959  0.11525  1.0000
  H   H6        1.0  0.45493  0.49039  0.38492  1.0000
  H   H7        1.0  0.67022  0.99041  0.88475  1.0000
  H   H8        1.0  0.54508  0.50961  0.61508  1.0000
  H   H9        1.0  0.37843  0.11735  0.00065  1.0000
  H   H10       1.0  0.49637  0.38265  0.49955  1.0000
  H   H11       1.0  0.62157  0.88265  0.99935  1.0000
  H   H12       1.0  0.50364  0.61735  0.50044  1.0000
  H   H13       1.0  0.89593  0.08423  0.24600  1.0000
  H   H14       1.0  0.22540  0.41542  0.25426  1.0000
  H   H15       1.0  0.10407  0.91577  0.75401  1.0000
  H   H16       1.0  0.77459  0.58458  0.74574  1.0000
  H   H17       1.0  0.76734  0.23630  0.32385  1.0000
  H   H18       1.0  0.32691  0.26345  0.17635  1.0000
  H   H19       1.0  0.23264  0.76370  0.67615  1.0000
  H   H20       1.0  0.67309  0.73655  0.82365  1.0000
  H   H21       1.0  0.36956  0.24833  0.43321  1.0000
  H   H22       1.0  0.05089  0.25142  0.06687  1.0000
  H   H23       1.0  0.63042  0.75167  0.56679  1.0000
  H   H24       1.0  0.94911  0.74858  0.93313  1.0000
  H   H25       1.0  0.09690  0.11011  0.46585  1.0000
  H   H26       1.0  0.67276  0.38957  0.03420  1.0000
  H   H27       1.0  0.90309  0.88988  0.53415  1.0000
  H   H28       1.0  0.32725  0.61043  0.96579  1.0000
  H   H29       1.0  0.22324  0.95758  0.38881  1.0000
  H   H30       1.0  0.56951  0.54225  0.11112  1.0000
  H   H31       1.0  0.77676  0.04241  0.61119  1.0000
  H   H32       1.0  0.43049  0.45776  0.88887  1.0000
  C   C1        1.0  0.56781  0.01172  0.31287  1.0000
  C   C2        1.0  0.89195  0.48806  0.18726  1.0000
  C   C3        1.0  0.43219  0.98827  0.68714  1.0000
  C   C4        1.0  0.10807  0.51195  0.81274  1.0000
  C   C5        1.0  0.72172  0.08986  0.29457  1.0000
  C   C6        1.0  0.10547  0.40986  0.20564  1.0000
  C   C7        1.0  0.27828  0.91014  0.70544  1.0000
  C   C8        1.0  0.89452  0.59015  0.79435  1.0000
  C   C9        1.0  0.64933  0.17479  0.33824  1.0000
  C   C10       1.0  0.16176  0.32491  0.16194  1.0000
  C   C11       1.0  0.35066  0.82520  0.66176  1.0000
  C   C12       1.0  0.83825  0.67510  0.83806  1.0000
  C   C13       1.0  0.42568  0.18114  0.40021  1.0000
  C   C14       1.0  0.00664  0.31858  0.09992  1.0000
  C   C15       1.0  0.57430  0.81886  0.59979  1.0000
  C   C16       1.0  0.99336  0.68142  0.90008  1.0000
  C   C17       1.0  0.27172  0.10360  0.41808  1.0000
  C   C18       1.0  0.79312  0.39610  0.08202  1.0000
  C   C19       1.0  0.72827  0.89640  0.58193  1.0000
  C   C20       1.0  0.20689  0.60390  0.91798  1.0000
  C   C21       1.0  0.34178  0.01896  0.37458  1.0000
  C   C22       1.0  0.73507  0.48080  0.12549  1.0000
  C   C23       1.0  0.65821  0.98104  0.62543  1.0000
  C   C24       1.0  0.26493  0.51920  0.87451  1.0000
  Cl  Cl1       1.0  0.30047  0.79958  0.03771  1.0000
  Cl  Cl2       1.0  0.13732  0.70047  0.46224  1.0000
  Cl  Cl3       1.0  0.69953  0.20042  0.96229  1.0000
  Cl  Cl4       1.0  0.86269  0.29953  0.53776  1.0000
  O   O1        1.0  0.90101  0.90163  0.19672  1.0000
  O   O2        1.0  0.99985  0.59806  0.30322  1.0000
  O   O3        1.0  0.09900  0.09837  0.80328  1.0000
  O   O4        1.0  0.00016  0.40194  0.69677  1.0000
  O   O5        1.0  0.45511  0.89291  0.21011  1.0000
  O   O6        1.0  0.55841  0.60714  0.29009  1.0000
  O   O7        1.0  0.54491  0.10709  0.78989  1.0000
  O   O8        1.0  0.44159  0.39286  0.70991  1.0000
  O   O9        1.0  0.24950  0.07506  0.05214  1.0000
  O   O10       1.0  0.37685  0.42491  0.44802  1.0000
  O   O11       1.0  0.75051  0.92494  0.94786  1.0000
  O   O12       1.0  0.62316  0.57509  0.55198  1.0000
