data_image0
_chemical_formula_structural       Cu2H38C24S2N4O8
_chemical_formula_sum              "Cu2 H38 C24 S2 N4 O8"
_cell_length_a       8.23766
_cell_length_b       8.45262
_cell_length_c       10.7076
_cell_angle_alpha    84.8327
_cell_angle_beta     83.5579
_cell_angle_gamma    85.9297

_space_group_name_H-M_alt    "P 1"
_space_group_IT_number       1

loop_
  _space_group_symop_operation_xyz
  'x, y, z'

loop_
  _atom_site_type_symbol
  _atom_site_label
  _atom_site_symmetry_multiplicity
  _atom_site_fract_x
  _atom_site_fract_y
  _atom_site_fract_z
  _atom_site_occupancy
  Cu  Cu1       1.0  0.04583  0.03281  0.87701  1.0000
  Cu  Cu2       1.0  0.95414  0.96718  0.12307  1.0000
  H   H1        1.0  0.92284  0.50292  0.89994  1.0000
  H   H2        1.0  0.07714  0.49707  0.10006  1.0000
  H   H3        1.0  0.74789  0.52876  0.01285  1.0000
  H   H4        1.0  0.25210  0.47126  0.98715  1.0000
  H   H5        1.0  0.74275  0.60247  0.85000  1.0000
  H   H6        1.0  0.25723  0.39752  0.15001  1.0000
  H   H7        1.0  0.49986  0.72180  0.95015  1.0000
  H   H8        1.0  0.50012  0.27818  0.04983  1.0000
  H   H9        1.0  0.43145  0.66680  0.11246  1.0000
  H   H10       1.0  0.56854  0.33320  0.88754  1.0000
  H   H11       1.0  0.52409  0.84961  0.06917  1.0000
  H   H12       1.0  0.47591  0.15038  0.93081  1.0000
  H   H13       1.0  0.16911  0.29711  0.39617  1.0000
  H   H14       1.0  0.83090  0.70290  0.60382  1.0000
  H   H15       1.0  0.97049  0.45005  0.58990  1.0000
  H   H16       1.0  0.02954  0.54997  0.41010  1.0000
  H   H17       1.0  0.12024  0.43231  0.69856  1.0000
  H   H18       1.0  0.87978  0.56768  0.30146  1.0000
  H   H19       1.0  0.93465  0.33708  0.73782  1.0000
  H   H20       1.0  0.06535  0.66293  0.26217  1.0000
  H   H21       1.0  0.28670  0.03616  0.27267  1.0000
  H   H22       1.0  0.71331  0.96385  0.72732  1.0000
  H   H23       1.0  0.42590  0.92519  0.36761  1.0000
  H   H24       1.0  0.57410  0.07481  0.63239  1.0000
  H   H25       1.0  0.23247  0.85311  0.35123  1.0000
  H   H26       1.0  0.76753  0.14689  0.64876  1.0000
  H   H27       1.0  0.19259  0.74134  0.55219  1.0000
  H   H28       1.0  0.80741  0.25866  0.44781  1.0000
  H   H29       1.0  0.13915  0.78033  0.71193  1.0000
  H   H30       1.0  0.86086  0.21968  0.28807  1.0000
  H   H31       1.0  0.48630  0.81529  0.57275  1.0000
  H   H32       1.0  0.51370  0.18470  0.42726  1.0000
  H   H33       1.0  0.42309  0.83782  0.73493  1.0000
  H   H34       1.0  0.57691  0.16219  0.26507  1.0000
  H   H35       1.0  0.44235  0.34852  0.58004  1.0000
  H   H36       1.0  0.55765  0.65146  0.42000  1.0000
  H   H37       1.0  0.31192  0.50435  0.52135  1.0000
  H   H38       1.0  0.68808  0.49562  0.47868  1.0000
  C   C1        1.0  0.88042  0.73967  0.95713  1.0000
  C   C2        1.0  0.11958  0.26033  0.04286  1.0000
  C   C3        1.0  0.81781  0.58358  0.92912  1.0000
  C   C4        1.0  0.18218  0.41643  0.07088  1.0000
  C   C5        1.0  0.10241  0.22297  0.60147  1.0000
  C   C6        1.0  0.89760  0.77703  0.39853  1.0000
  C   C7        1.0  0.16498  0.20665  0.47478  1.0000
  C   C8        1.0  0.83503  0.79335  0.52521  1.0000
  C   C9        1.0  0.22005  0.04794  0.46872  1.0000
  C   C10       1.0  0.77996  0.95207  0.53127  1.0000
  C   C11       1.0  0.02784  0.36837  0.65999  1.0000
  C   C12       1.0  0.97217  0.63163  0.34000  1.0000
  C   C13       1.0  0.29591  0.96054  0.36038  1.0000
  C   C14       1.0  0.70409  0.03946  0.63962  1.0000
  C   C15       1.0  0.22279  0.81035  0.62764  1.0000
  C   C16       1.0  0.77721  0.18966  0.37236  1.0000
  C   C17       1.0  0.40082  0.77504  0.65368  1.0000
  C   C18       1.0  0.59919  0.22496  0.34632  1.0000
  C   C19       1.0  0.27851  0.85010  0.02156  1.0000
  C   C20       1.0  0.72148  0.14989  0.97845  1.0000
  C   C21       1.0  0.44344  0.76534  0.03901  1.0000
  C   C22       1.0  0.55656  0.23465  0.96097  1.0000
  C   C23       1.0  0.43384  0.47699  0.55261  1.0000
  C   C24       1.0  0.56616  0.52299  0.44742  1.0000
  S   S1        1.0  0.44769  0.56698  0.69873  1.0000
  S   S2        1.0  0.55230  0.43302  0.30129  1.0000
  N   N1        1.0  0.18909  0.97721  0.58775  1.0000
  N   N2        1.0  0.81092  0.02280  0.41224  1.0000
  N   N3        1.0  0.11772  0.08202  0.67010  1.0000
  N   N4        1.0  0.88229  0.91799  0.32989  1.0000
  O   O1        1.0  0.94291  0.82613  0.86251  1.0000
  O   O2        1.0  0.05708  0.17390  0.13747  1.0000
  O   O3        1.0  0.13299  0.23053  0.92776  1.0000
  O   O4        1.0  0.86702  0.76945  0.07222  1.0000
  O   O5        1.0  0.25889  0.91570  0.91193  1.0000
  O   O6        1.0  0.74107  0.08429  0.08806  1.0000
  O   O7        1.0  0.82523  0.14908  0.88108  1.0000
  O   O8        1.0  0.17480  0.85092  0.11892  1.0000
