data_image0
_chemical_formula_structural       Cd12H40C40N8Cl24O8
_chemical_formula_sum              "Cd12 H40 C40 N8 Cl24 O8"
_cell_length_a       7.69003
_cell_length_b       11.1668
_cell_length_c       22.809
_cell_angle_alpha    90
_cell_angle_beta     90
_cell_angle_gamma    90

_space_group_name_H-M_alt    "P 1"
_space_group_IT_number       1

loop_
  _space_group_symop_operation_xyz
  'x, y, z'

loop_
  _atom_site_type_symbol
  _atom_site_label
  _atom_site_symmetry_multiplicity
  _atom_site_fract_x
  _atom_site_fract_y
  _atom_site_fract_z
  _atom_site_occupancy
  Cd  Cd1       1.0  0.00000  0.00000  0.50000  1.0000
  Cd  Cd2       1.0  0.50000  0.50000  0.50000  1.0000
  Cd  Cd3       1.0  0.50000  0.00000  1.00000  1.0000
  Cd  Cd4       1.0  1.00000  0.50000  1.00000  1.0000
  Cd  Cd5       1.0  0.28765  0.22706  0.58189  1.0000
  Cd  Cd6       1.0  0.78765  0.27294  0.58189  1.0000
  Cd  Cd7       1.0  0.21235  0.22706  0.08189  1.0000
  Cd  Cd8       1.0  0.71235  0.27295  0.08189  1.0000
  Cd  Cd9       1.0  0.71235  0.77294  0.41811  1.0000
  Cd  Cd10      1.0  0.21234  0.72706  0.41811  1.0000
  Cd  Cd11      1.0  0.78766  0.77294  0.91811  1.0000
  Cd  Cd12      1.0  0.28766  0.72706  0.91811  1.0000
  H   H1        1.0  0.45818  0.43652  0.67459  1.0000
  H   H2        1.0  0.95819  0.06347  0.67459  1.0000
  H   H3        1.0  0.04182  0.43653  0.17459  1.0000
  H   H4        1.0  0.54182  0.06347  0.17459  1.0000
  H   H5        1.0  0.54182  0.56347  0.32541  1.0000
  H   H6        1.0  0.04182  0.93652  0.32541  1.0000
  H   H7        1.0  0.95818  0.56347  0.82541  1.0000
  H   H8        1.0  0.45818  0.93652  0.82541  1.0000
  H   H9        1.0  0.38335  0.57917  0.75814  1.0000
  H   H10       1.0  0.88335  0.92083  0.75813  1.0000
  H   H11       1.0  0.11665  0.57917  0.25813  1.0000
  H   H12       1.0  0.61665  0.92083  0.25813  1.0000
  H   H13       1.0  0.61664  0.42083  0.24187  1.0000
  H   H14       1.0  0.11665  0.07917  0.24187  1.0000
  H   H15       1.0  0.88335  0.42082  0.74187  1.0000
  H   H16       1.0  0.38335  0.07917  0.74187  1.0000
  H   H17       1.0  0.15499  0.73537  0.74122  1.0000
  H   H18       1.0  0.65499  0.76462  0.74122  1.0000
  H   H19       1.0  0.34501  0.73537  0.24122  1.0000
  H   H20       1.0  0.84501  0.76463  0.24122  1.0000
  H   H21       1.0  0.84500  0.26462  0.25878  1.0000
  H   H22       1.0  0.34501  0.23538  0.25878  1.0000
  H   H23       1.0  0.65499  0.26462  0.75878  1.0000
  H   H24       1.0  0.15499  0.23537  0.75878  1.0000
  H   H25       1.0  0.00871  0.74420  0.64172  1.0000
  H   H26       1.0  0.50871  0.75580  0.64172  1.0000
  H   H27       1.0  0.49129  0.74420  0.14172  1.0000
  H   H28       1.0  0.99129  0.75580  0.14172  1.0000
  H   H29       1.0  0.99129  0.25580  0.35828  1.0000
  H   H30       1.0  0.49129  0.24421  0.35828  1.0000
  H   H31       1.0  0.50871  0.25579  0.85828  1.0000
  H   H32       1.0  0.00871  0.24420  0.85828  1.0000
  H   H33       1.0  0.09467  0.59358  0.56530  1.0000
  H   H34       1.0  0.59466  0.90643  0.56530  1.0000
  H   H35       1.0  0.40534  0.59357  0.06530  1.0000
  H   H36       1.0  0.90534  0.90643  0.06530  1.0000
  H   H37       1.0  0.90534  0.40643  0.43470  1.0000
  H   H38       1.0  0.40534  0.09358  0.43470  1.0000
  H   H39       1.0  0.59466  0.40642  0.93470  1.0000
  H   H40       1.0  0.09466  0.09357  0.93470  1.0000
  C   C1        1.0  0.36096  0.50703  0.67156  1.0000
  C   C2        1.0  0.86096  0.99297  0.67155  1.0000
  C   C3        1.0  0.13904  0.50703  0.17155  1.0000
  C   C4        1.0  0.63904  0.99297  0.17155  1.0000
  C   C5        1.0  0.63904  0.49297  0.32845  1.0000
  C   C6        1.0  0.13904  0.00704  0.32845  1.0000
  C   C7        1.0  0.86096  0.49296  0.82845  1.0000
  C   C8        1.0  0.36096  0.00703  0.82844  1.0000
  C   C9        1.0  0.31667  0.58569  0.71607  1.0000
  C   C10       1.0  0.81668  0.91431  0.71607  1.0000
  C   C11       1.0  0.18332  0.58569  0.21607  1.0000
  C   C12       1.0  0.68332  0.91431  0.21607  1.0000
  C   C13       1.0  0.68332  0.41431  0.28393  1.0000
  C   C14       1.0  0.18332  0.08569  0.28393  1.0000
  C   C15       1.0  0.81668  0.41431  0.78393  1.0000
  C   C16       1.0  0.31668  0.08568  0.78393  1.0000
  C   C17       1.0  0.19001  0.67330  0.70634  1.0000
  C   C18       1.0  0.69002  0.82670  0.70633  1.0000
  C   C19       1.0  0.30998  0.67330  0.20634  1.0000
  C   C20       1.0  0.80998  0.82670  0.20634  1.0000
  C   C21       1.0  0.80998  0.32670  0.29367  1.0000
  C   C22       1.0  0.30998  0.17330  0.29366  1.0000
  C   C23       1.0  0.69002  0.32669  0.79366  1.0000
  C   C24       1.0  0.19001  0.17330  0.79366  1.0000
  C   C25       1.0  0.10861  0.67841  0.65177  1.0000
  C   C26       1.0  0.60861  0.82159  0.65177  1.0000
  C   C27       1.0  0.39139  0.67841  0.15177  1.0000
  C   C28       1.0  0.89139  0.82159  0.15177  1.0000
  C   C29       1.0  0.89139  0.32159  0.34823  1.0000
  C   C30       1.0  0.39139  0.17841  0.34823  1.0000
  C   C31       1.0  0.60861  0.32159  0.84823  1.0000
  C   C32       1.0  0.10861  0.17841  0.84823  1.0000
  C   C33       1.0  0.15371  0.59732  0.60850  1.0000
  C   C34       1.0  0.65371  0.90268  0.60850  1.0000
  C   C35       1.0  0.34629  0.59732  0.10850  1.0000
  C   C36       1.0  0.84630  0.90268  0.10850  1.0000
  C   C37       1.0  0.84629  0.40268  0.39150  1.0000
  C   C38       1.0  0.34630  0.09732  0.39150  1.0000
  C   C39       1.0  0.65370  0.40267  0.89150  1.0000
  C   C40       1.0  0.15371  0.09732  0.89150  1.0000
  N   N1        1.0  0.27842  0.51459  0.61899  1.0000
  N   N2        1.0  0.77842  0.98541  0.61899  1.0000
  N   N3        1.0  0.22158  0.51459  0.11899  1.0000
  N   N4        1.0  0.72158  0.98541  0.11899  1.0000
  N   N5        1.0  0.72158  0.48541  0.38101  1.0000
  N   N6        1.0  0.22158  0.01459  0.38101  1.0000
  N   N7        1.0  0.77842  0.48541  0.88101  1.0000
  N   N8        1.0  0.27842  0.01459  0.88101  1.0000
  Cl  Cl1       1.0  0.54087  0.21691  0.65767  1.0000
  Cl  Cl2       1.0  0.04087  0.28309  0.65767  1.0000
  Cl  Cl3       1.0  0.95913  0.21691  0.15768  1.0000
  Cl  Cl4       1.0  0.45913  0.28309  0.15768  1.0000
  Cl  Cl5       1.0  0.45913  0.78309  0.34233  1.0000
  Cl  Cl6       1.0  0.95913  0.71691  0.34233  1.0000
  Cl  Cl7       1.0  0.04087  0.78309  0.84233  1.0000
  Cl  Cl8       1.0  0.54087  0.71691  0.84233  1.0000
  Cl  Cl9       1.0  0.24650  0.99865  0.57815  1.0000
  Cl  Cl10      1.0  0.74650  0.50135  0.57815  1.0000
  Cl  Cl11      1.0  0.25350  0.99865  0.07815  1.0000
  Cl  Cl12      1.0  0.75350  0.50136  0.07815  1.0000
  Cl  Cl13      1.0  0.75350  0.00136  0.42185  1.0000
  Cl  Cl14      1.0  0.25350  0.49865  0.42185  1.0000
  Cl  Cl15      1.0  0.74650  0.00135  0.92185  1.0000
  Cl  Cl16      1.0  0.24650  0.49865  0.92185  1.0000
  Cl  Cl17      1.0  0.54136  0.26197  0.49837  1.0000
  Cl  Cl18      1.0  0.04135  0.23803  0.49837  1.0000
  Cl  Cl19      1.0  0.95864  0.26197  0.99837  1.0000
  Cl  Cl20      1.0  0.45865  0.23803  0.99837  1.0000
  Cl  Cl21      1.0  0.45865  0.73803  0.50163  1.0000
  Cl  Cl22      1.0  0.95864  0.76197  0.50163  1.0000
  Cl  Cl23      1.0  0.04135  0.73803  0.00163  1.0000
  Cl  Cl24      1.0  0.54136  0.76197  0.00163  1.0000
  O   O1        1.0  0.31949  0.43843  0.57588  1.0000
  O   O2        1.0  0.81949  0.06157  0.57587  1.0000
  O   O3        1.0  0.18051  0.43843  0.07587  1.0000
  O   O4        1.0  0.68051  0.06157  0.07587  1.0000
  O   O5        1.0  0.68051  0.56157  0.42413  1.0000
  O   O6        1.0  0.18052  0.93843  0.42413  1.0000
  O   O7        1.0  0.81949  0.56157  0.92412  1.0000
  O   O8        1.0  0.31949  0.93843  0.92413  1.0000
