data_image0
_chemical_formula_structural       Cd2H10C10Br4N2O2
_chemical_formula_sum              "Cd2 H10 C10 Br4 N2 O2"
_cell_length_a       6.49165
_cell_length_b       7.07208
_cell_length_c       10.4649
_cell_angle_alpha    71.5873
_cell_angle_beta     82.9136
_cell_angle_gamma    64.9844

_space_group_name_H-M_alt    "P 1"
_space_group_IT_number       1

loop_
  _space_group_symop_operation_xyz
  'x, y, z'

loop_
  _atom_site_type_symbol
  _atom_site_label
  _atom_site_symmetry_multiplicity
  _atom_site_fract_x
  _atom_site_fract_y
  _atom_site_fract_z
  _atom_site_occupancy
  Cd  Cd1       1.0  0.32945  0.32363  0.49574  1.0000
  Cd  Cd2       1.0  0.67054  0.67637  0.50426  1.0000
  H   H1        1.0  0.15716  0.05682  0.32085  1.0000
  H   H2        1.0  0.84284  0.94318  0.67914  1.0000
  H   H3        1.0  0.06207  0.29303  0.08205  1.0000
  H   H4        1.0  0.93795  0.70696  0.91795  1.0000
  H   H5        1.0  0.19515  0.11605  0.89376  1.0000
  H   H6        1.0  0.80487  0.88395  0.10624  1.0000
  H   H7        1.0  0.42086  0.71284  0.95454  1.0000
  H   H8        1.0  0.57913  0.28716  0.04545  1.0000
  H   H9        1.0  0.50880  0.49779  0.20279  1.0000
  H   H10       1.0  0.49118  0.50221  0.79721  1.0000
  C   C1        1.0  0.21165  0.99276  0.23500  1.0000
  C   C2        1.0  0.78835  0.00724  0.76500  1.0000
  C   C3        1.0  0.16095  0.11799  0.10193  1.0000
  C   C4        1.0  0.83906  0.88201  0.89806  1.0000
  C   C5        1.0  0.23437  0.01971  0.99890  1.0000
  C   C6        1.0  0.76564  0.98030  0.00110  1.0000
  C   C7        1.0  0.36009  0.79433  0.03288  1.0000
  C   C8        1.0  0.63990  0.20568  0.96712  1.0000
  C   C9        1.0  0.41039  0.67336  0.16638  1.0000
  C   C10       1.0  0.58961  0.32664  0.83362  1.0000
  Br  Br1       1.0  0.34673  0.91884  0.65443  1.0000
  Br  Br2       1.0  0.65327  0.08115  0.34557  1.0000
  Br  Br3       1.0  0.02674  0.50901  0.68013  1.0000
  Br  Br4       1.0  0.97327  0.49099  0.31987  1.0000
  N   N1        1.0  0.33585  0.77436  0.26458  1.0000
  N   N2        1.0  0.66414  0.22564  0.73542  1.0000
  O   O1        1.0  0.38497  0.65739  0.39317  1.0000
  O   O2        1.0  0.61503  0.34261  0.60683  1.0000
