data_image0
_chemical_formula_structural       Hg4H24C24Br8N8O12
_chemical_formula_sum              "Hg4 H24 C24 Br8 N8 O12"
_cell_length_a       6.81727
_cell_length_b       11.6373
_cell_length_c       13.6966
_cell_angle_alpha    89.9998
_cell_angle_beta     95.0796
_cell_angle_gamma    90.0008

_space_group_name_H-M_alt    "P 1"
_space_group_IT_number       1

loop_
  _space_group_symop_operation_xyz
  'x, y, z'

loop_
  _atom_site_type_symbol
  _atom_site_label
  _atom_site_symmetry_multiplicity
  _atom_site_fract_x
  _atom_site_fract_y
  _atom_site_fract_z
  _atom_site_occupancy
  Hg  Hg1       1.0  0.98937  0.15498  0.92175  1.0000
  Hg  Hg2       1.0  0.51063  0.65498  0.07825  1.0000
  Hg  Hg3       1.0  0.01063  0.84502  0.07825  1.0000
  Hg  Hg4       1.0  0.48936  0.34503  0.92175  1.0000
  H   H1        1.0  0.10836  0.48059  0.81827  1.0000
  H   H2        1.0  0.39163  0.98057  0.18173  1.0000
  H   H3        1.0  0.89164  0.51941  0.18172  1.0000
  H   H4        1.0  0.60838  0.01942  0.81827  1.0000
  H   H5        1.0  0.76204  0.35435  0.50768  1.0000
  H   H6        1.0  0.73798  0.85435  0.49232  1.0000
  H   H7        1.0  0.23796  0.64565  0.49231  1.0000
  H   H8        1.0  0.26205  0.14565  0.50768  1.0000
  H   H9        1.0  0.95622  0.21753  0.62170  1.0000
  H   H10       1.0  0.54380  0.71752  0.37831  1.0000
  H   H11       1.0  0.04378  0.78247  0.37829  1.0000
  H   H12       1.0  0.45622  0.28248  0.62170  1.0000
  H   H13       1.0  0.02522  0.66852  0.79501  1.0000
  H   H14       1.0  0.47476  0.16850  0.20499  1.0000
  H   H15       1.0  0.97476  0.33148  0.20499  1.0000
  H   H16       1.0  0.52524  0.83150  0.79501  1.0000
  H   H17       1.0  0.96578  0.72179  0.67326  1.0000
  H   H18       1.0  0.53420  0.22177  0.32674  1.0000
  H   H19       1.0  0.03420  0.27822  0.32674  1.0000
  H   H20       1.0  0.46580  0.77822  0.67326  1.0000
  H   H21       1.0  0.77603  0.68752  0.74789  1.0000
  H   H22       1.0  0.72394  0.18751  0.25211  1.0000
  H   H23       1.0  0.22396  0.31248  0.25211  1.0000
  H   H24       1.0  0.27605  0.81249  0.74789  1.0000
  C   C1        1.0  0.02617  0.45918  0.74927  1.0000
  C   C2        1.0  0.47384  0.95916  0.25073  1.0000
  C   C3        1.0  0.97383  0.54082  0.25072  1.0000
  C   C4        1.0  0.52617  0.04084  0.74927  1.0000
  C   C5        1.0  0.91940  0.54041  0.69233  1.0000
  C   C6        1.0  0.58060  0.04040  0.30768  1.0000
  C   C7        1.0  0.08058  0.45959  0.30767  1.0000
  C   C8        1.0  0.41944  0.95960  0.69232  1.0000
  C   C9        1.0  0.82438  0.50048  0.60305  1.0000
  C   C10       1.0  0.67563  0.00047  0.39695  1.0000
  C   C11       1.0  0.17561  0.49953  0.39694  1.0000
  C   C12       1.0  0.32440  0.99953  0.60305  1.0000
  C   C13       1.0  0.83689  0.38488  0.57613  1.0000
  C   C14       1.0  0.66313  0.88487  0.42387  1.0000
  C   C15       1.0  0.16312  0.61512  0.42386  1.0000
  C   C16       1.0  0.33689  0.11513  0.57614  1.0000
  C   C17       1.0  0.94291  0.30880  0.63656  1.0000
  C   C18       1.0  0.55710  0.80879  0.36345  1.0000
  C   C19       1.0  0.05709  0.69120  0.36344  1.0000
  C   C20       1.0  0.44292  0.19121  0.63656  1.0000
  C   C21       1.0  0.92257  0.66148  0.72908  1.0000
  C   C22       1.0  0.57741  0.16146  0.27092  1.0000
  C   C23       1.0  0.07741  0.33852  0.27092  1.0000
  C   C24       1.0  0.42259  0.83853  0.72908  1.0000
  Br  Br1       1.0  0.44610  0.15004  0.99166  1.0000
  Br  Br2       1.0  0.05386  0.65002  0.00833  1.0000
  Br  Br3       1.0  0.55385  0.84997  0.00834  1.0000
  Br  Br4       1.0  0.94609  0.34996  0.99166  1.0000
  Br  Br5       1.0  0.00302  0.95779  0.85327  1.0000
  Br  Br6       1.0  0.49699  0.45778  0.14673  1.0000
  Br  Br7       1.0  0.99698  0.04221  0.14674  1.0000
  Br  Br8       1.0  0.50300  0.54224  0.85327  1.0000
  N   N1        1.0  0.04152  0.34708  0.72192  1.0000
  N   N2        1.0  0.45850  0.84706  0.27809  1.0000
  N   N3        1.0  0.95848  0.65292  0.27808  1.0000
  N   N4        1.0  0.54152  0.15294  0.72191  1.0000
  N   N5        1.0  0.71258  0.57602  0.53506  1.0000
  N   N6        1.0  0.78743  0.07602  0.46494  1.0000
  N   N7        1.0  0.28742  0.42398  0.46494  1.0000
  N   N8        1.0  0.21259  0.92398  0.53505  1.0000
  O   O1        1.0  0.15074  0.27636  0.77609  1.0000
  O   O2        1.0  0.34927  0.77633  0.22392  1.0000
  O   O3        1.0  0.84926  0.72364  0.22391  1.0000
  O   O4        1.0  0.65074  0.22366  0.77609  1.0000
  O   O5        1.0  0.67744  0.54320  0.44841  1.0000
  O   O6        1.0  0.82258  0.04320  0.55159  1.0000
  O   O7        1.0  0.32256  0.45680  0.55159  1.0000
  O   O8        1.0  0.17744  0.95680  0.44841  1.0000
  O   O9        1.0  0.65595  0.67027  0.56555  1.0000
  O   O10       1.0  0.84404  0.17027  0.43445  1.0000
  O   O11       1.0  0.34405  0.32973  0.43445  1.0000
  O   O12       1.0  0.15595  0.82973  0.56555  1.0000
