data_image0
_chemical_formula_structural       Zn2H44C64N16O8
_chemical_formula_sum              "Zn2 H44 C64 N16 O8"
_cell_length_a       9.22571
_cell_length_b       13.9252
_cell_length_c       13.8127
_cell_angle_alpha    89.9999
_cell_angle_beta     89.9998
_cell_angle_gamma    109.346

_space_group_name_H-M_alt    "P 1"
_space_group_IT_number       1

loop_
  _space_group_symop_operation_xyz
  'x, y, z'

loop_
  _atom_site_type_symbol
  _atom_site_label
  _atom_site_symmetry_multiplicity
  _atom_site_fract_x
  _atom_site_fract_y
  _atom_site_fract_z
  _atom_site_occupancy
  Zn  Zn1       1.0  0.50000  0.00000  0.50000  1.0000
  Zn  Zn2       1.0  1.00000  1.00000  0.00000  1.0000
  H   H1        1.0  0.78551  0.97357  0.38812  1.0000
  H   H2        1.0  0.71448  0.02643  0.88813  1.0000
  H   H3        1.0  0.21448  0.02643  0.61188  1.0000
  H   H4        1.0  0.28552  0.97357  0.11187  1.0000
  H   H5        1.0  0.98727  0.06506  0.26710  1.0000
  H   H6        1.0  0.51271  0.93493  0.76712  1.0000
  H   H7        1.0  0.01273  0.93494  0.73290  1.0000
  H   H8        1.0  0.48728  0.06506  0.23288  1.0000
  H   H9        1.0  0.00751  0.24086  0.21711  1.0000
  H   H10       1.0  0.49247  0.75913  0.71712  1.0000
  H   H11       1.0  0.99248  0.75914  0.78289  1.0000
  H   H12       1.0  0.50753  0.24086  0.28288  1.0000
  H   H13       1.0  0.63905  0.22331  0.41468  1.0000
  H   H14       1.0  0.86096  0.77669  0.91467  1.0000
  H   H15       1.0  0.36095  0.77669  0.58533  1.0000
  H   H16       1.0  0.13904  0.22331  0.08533  1.0000
  H   H17       1.0  0.11390  0.50602  0.11043  1.0000
  H   H18       1.0  0.38610  0.49398  0.61043  1.0000
  H   H19       1.0  0.88610  0.49398  0.88957  1.0000
  H   H20       1.0  0.61390  0.50602  0.38957  1.0000
  H   H21       1.0  0.22519  0.62168  0.99729  1.0000
  H   H22       1.0  0.27482  0.37832  0.49729  1.0000
  H   H23       1.0  0.77481  0.37832  0.00271  1.0000
  H   H24       1.0  0.72519  0.62168  0.50271  1.0000
  H   H25       1.0  0.28182  0.78497  0.91067  1.0000
  H   H26       1.0  0.21817  0.21504  0.41067  1.0000
  H   H27       1.0  0.71817  0.21503  0.08933  1.0000
  H   H28       1.0  0.78183  0.78496  0.58933  1.0000
  H   H29       1.0  0.84571  0.62556  0.24179  1.0000
  H   H30       1.0  0.65429  0.37444  0.74179  1.0000
  H   H31       1.0  0.15429  0.37444  0.75821  1.0000
  H   H32       1.0  0.34571  0.62556  0.25821  1.0000
  H   H33       1.0  0.72738  0.75743  0.28406  1.0000
  H   H34       1.0  0.77261  0.24257  0.78405  1.0000
  H   H35       1.0  0.27261  0.24257  0.71594  1.0000
  H   H36       1.0  0.22739  0.75743  0.21595  1.0000
  H   H37       1.0  0.79081  0.91687  0.18207  1.0000
  H   H38       1.0  0.70919  0.08313  0.68207  1.0000
  H   H39       1.0  0.20918  0.08313  0.81793  1.0000
  H   H40       1.0  0.29082  0.91687  0.31793  1.0000
  H   H41       1.0  0.02748  0.38787  0.21459  1.0000
  H   H42       1.0  0.47252  0.61213  0.71459  1.0000
  H   H43       1.0  0.97252  0.61213  0.78541  1.0000
  H   H44       1.0  0.52748  0.38787  0.28541  1.0000
  C   C1        1.0  0.79975  0.05119  0.36543  1.0000
  C   C2        1.0  0.70025  0.94880  0.86544  1.0000
  C   C3        1.0  0.20025  0.94881  0.63457  1.0000
  C   C4        1.0  0.29975  0.05120  0.13456  1.0000
  C   C5        1.0  0.91205  0.10254  0.29881  1.0000
  C   C6        1.0  0.58794  0.89746  0.79882  1.0000
  C   C7        1.0  0.08795  0.89746  0.70119  1.0000
  C   C8        1.0  0.41206  0.10254  0.20118  1.0000
  C   C9        1.0  0.92372  0.20106  0.27148  1.0000
  C   C10       1.0  0.57627  0.79893  0.77149  1.0000
  C   C11       1.0  0.07628  0.79894  0.72852  1.0000
  C   C12       1.0  0.42373  0.20107  0.22851  1.0000
  C   C13       1.0  0.82550  0.24706  0.31403  1.0000
  C   C14       1.0  0.67449  0.75294  0.81403  1.0000
  C   C15       1.0  0.17450  0.75294  0.68597  1.0000
  C   C16       1.0  0.32550  0.24706  0.18597  1.0000
  C   C17       1.0  0.71717  0.18949  0.38083  1.0000
  C   C18       1.0  0.78283  0.81050  0.88083  1.0000
  C   C19       1.0  0.28283  0.81051  0.61917  1.0000
  C   C20       1.0  0.21716  0.18950  0.11917  1.0000
  C   C21       1.0  0.81915  0.35016  0.28943  1.0000
  C   C22       1.0  0.68085  0.64984  0.78944  1.0000
  C   C23       1.0  0.18085  0.64984  0.71057  1.0000
  C   C24       1.0  0.31915  0.35016  0.21057  1.0000
  C   C25       1.0  0.03475  0.54474  0.13620  1.0000
  C   C26       1.0  0.46525  0.45526  0.63620  1.0000
  C   C27       1.0  0.96525  0.45526  0.86380  1.0000
  C   C28       1.0  0.53475  0.54474  0.36380  1.0000
  C   C29       1.0  0.05556  0.64270  0.09332  1.0000
  C   C30       1.0  0.44444  0.35730  0.59331  1.0000
  C   C31       1.0  0.94444  0.35730  0.90669  1.0000
  C   C32       1.0  0.55556  0.64270  0.40669  1.0000
  C   C33       1.0  0.16423  0.67371  0.01820  1.0000
  C   C34       1.0  0.33578  0.32629  0.51819  1.0000
  C   C35       1.0  0.83577  0.32629  0.98181  1.0000
  C   C36       1.0  0.66422  0.67371  0.48181  1.0000
  C   C37       1.0  0.19697  0.76561  0.96869  1.0000
  C   C38       1.0  0.30303  0.23439  0.46869  1.0000
  C   C39       1.0  0.80302  0.23439  0.03131  1.0000
  C   C40       1.0  0.69698  0.76561  0.53131  1.0000
  C   C41       1.0  0.12025  0.83524  0.99136  1.0000
  C   C42       1.0  0.37975  0.16476  0.49135  1.0000
  C   C43       1.0  0.87975  0.16476  0.00865  1.0000
  C   C44       1.0  0.62025  0.83524  0.50865  1.0000
  C   C45       1.0  0.01150  0.80675  0.07219  1.0000
  C   C46       1.0  0.48850  0.19325  0.57219  1.0000
  C   C47       1.0  0.98849  0.19325  0.92781  1.0000
  C   C48       1.0  0.51150  0.80675  0.42781  1.0000
  C   C49       1.0  0.97795  0.71222  0.12240  1.0000
  C   C50       1.0  0.52205  0.28778  0.62239  1.0000
  C   C51       1.0  0.02205  0.28778  0.87760  1.0000
  C   C52       1.0  0.47796  0.71222  0.37760  1.0000
  C   C53       1.0  0.87302  0.69613  0.20077  1.0000
  C   C54       1.0  0.62698  0.30387  0.70076  1.0000
  C   C55       1.0  0.12698  0.30387  0.79924  1.0000
  C   C56       1.0  0.37302  0.69613  0.29924  1.0000
  C   C57       1.0  0.80718  0.76911  0.22380  1.0000
  C   C58       1.0  0.69282  0.23089  0.72379  1.0000
  C   C59       1.0  0.19282  0.23088  0.77620  1.0000
  C   C60       1.0  0.30718  0.76912  0.27620  1.0000
  C   C61       1.0  0.84313  0.85839  0.16845  1.0000
  C   C62       1.0  0.65687  0.14161  0.66844  1.0000
  C   C63       1.0  0.15687  0.14161  0.83155  1.0000
  C   C64       1.0  0.34313  0.85839  0.33156  1.0000
  N   N1        1.0  0.94303  0.87619  0.09580  1.0000
  N   N2        1.0  0.55697  0.12381  0.59579  1.0000
  N   N3        1.0  0.05696  0.12380  0.90420  1.0000
  N   N4        1.0  0.44303  0.87619  0.40421  1.0000
  N   N5        1.0  0.70224  0.09362  0.40505  1.0000
  N   N6        1.0  0.79776  0.90638  0.90506  1.0000
  N   N7        1.0  0.29776  0.90638  0.59495  1.0000
  N   N8        1.0  0.20223  0.09362  0.09494  1.0000
  N   N9        1.0  0.93051  0.50149  0.20088  1.0000
  N   N10       1.0  0.56949  0.49850  0.70088  1.0000
  N   N11       1.0  0.06949  0.49851  0.79912  1.0000
  N   N12       1.0  0.43051  0.50149  0.29912  1.0000
  N   N13       1.0  0.93318  0.40903  0.23221  1.0000
  N   N14       1.0  0.56683  0.59097  0.73221  1.0000
  N   N15       1.0  0.06683  0.59097  0.76779  1.0000
  N   N16       1.0  0.43317  0.40902  0.26779  1.0000
  O   O1        1.0  0.14069  0.91966  0.94539  1.0000
  O   O2        1.0  0.35930  0.08034  0.44539  1.0000
  O   O3        1.0  0.85930  0.08034  0.05461  1.0000
  O   O4        1.0  0.64070  0.91966  0.55461  1.0000
  O   O5        1.0  0.71003  0.37692  0.31932  1.0000
  O   O6        1.0  0.78997  0.62308  0.81932  1.0000
  O   O7        1.0  0.28997  0.62308  0.68068  1.0000
  O   O8        1.0  0.21003  0.37692  0.18068  1.0000
