data_image0
_chemical_formula_structural       Tl2H26C26N4O8
_chemical_formula_sum              "Tl2 H26 C26 N4 O8"
_cell_length_a       6.04032
_cell_length_b       7.8729
_cell_length_c       14.2781
_cell_angle_alpha    101.602
_cell_angle_beta     100.422
_cell_angle_gamma    98.3336

_space_group_name_H-M_alt    "P 1"
_space_group_IT_number       1

loop_
  _space_group_symop_operation_xyz
  'x, y, z'

loop_
  _atom_site_type_symbol
  _atom_site_label
  _atom_site_symmetry_multiplicity
  _atom_site_fract_x
  _atom_site_fract_y
  _atom_site_fract_z
  _atom_site_occupancy
  Tl  Tl1       1.0  0.93746  0.68837  0.90829  1.0000
  Tl  Tl2       1.0  0.06254  0.31163  0.09170  1.0000
  H   H1        1.0  0.05805  0.08038  0.85593  1.0000
  H   H2        1.0  0.94195  0.91961  0.14407  1.0000
  H   H3        1.0  0.70565  0.86705  0.75508  1.0000
  H   H4        1.0  0.29436  0.13295  0.24492  1.0000
  H   H5        1.0  0.49020  0.30765  0.78606  1.0000
  H   H6        1.0  0.50980  0.69234  0.21394  1.0000
  H   H7        1.0  0.66056  0.37579  0.90608  1.0000
  H   H8        1.0  0.33944  0.62421  0.09391  1.0000
  H   H9        1.0  0.42411  0.15137  0.96160  1.0000
  H   H10       1.0  0.57591  0.84863  0.03840  1.0000
  H   H11       1.0  0.30593  0.70382  0.69699  1.0000
  H   H12       1.0  0.69408  0.29618  0.30301  1.0000
  H   H13       1.0  0.46878  0.80995  0.57398  1.0000
  H   H14       1.0  0.53122  0.19005  0.42602  1.0000
  H   H15       1.0  0.18187  0.84124  0.56026  1.0000
  H   H16       1.0  0.81813  0.15877  0.43974  1.0000
  H   H17       1.0  0.09992  0.13395  0.56030  1.0000
  H   H18       1.0  0.90008  0.86605  0.43970  1.0000
  H   H19       1.0  0.23860  0.44821  0.56483  1.0000
  H   H20       1.0  0.76140  0.55179  0.43517  1.0000
  H   H21       1.0  0.65798  0.57896  0.62333  1.0000
  H   H22       1.0  0.34201  0.42104  0.37666  1.0000
  H   H23       1.0  0.93128  0.39026  0.67249  1.0000
  H   H24       1.0  0.06871  0.60975  0.32751  1.0000
  H   H25       1.0  0.79338  0.07192  0.65947  1.0000
  H   H26       1.0  0.20662  0.92808  0.34053  1.0000
  C   C1        1.0  0.32943  0.44991  0.88997  1.0000
  C   C2        1.0  0.67056  0.55008  0.11003  1.0000
  C   C3        1.0  0.48548  0.31922  0.86362  1.0000
  C   C4        1.0  0.51452  0.68077  0.13638  1.0000
  C   C5        1.0  0.42154  0.13504  0.88301  1.0000
  C   C6        1.0  0.57847  0.86496  0.11699  1.0000
  C   C7        1.0  0.14859  0.91201  0.74743  1.0000
  C   C8        1.0  0.85140  0.08799  0.25257  1.0000
  C   C9        1.0  0.34596  0.84851  0.70787  1.0000
  C   C10       1.0  0.65404  0.15149  0.29213  1.0000
  C   C11       1.0  0.60764  0.03385  0.86010  1.0000
  C   C12       1.0  0.39238  0.96615  0.13991  1.0000
  C   C13       1.0  0.35458  0.88947  0.60656  1.0000
  C   C14       1.0  0.64541  0.11053  0.39344  1.0000
  C   C15       1.0  0.43671  0.08119  0.61038  1.0000
  C   C16       1.0  0.56329  0.91881  0.38962  1.0000
  C   C17       1.0  0.28266  0.18972  0.58450  1.0000
  C   C18       1.0  0.71734  0.81029  0.41550  1.0000
  C   C19       1.0  0.36070  0.36744  0.58809  1.0000
  C   C20       1.0  0.63930  0.63256  0.41190  1.0000
  C   C21       1.0  0.59392  0.44078  0.62015  1.0000
  C   C22       1.0  0.40607  0.55922  0.37984  1.0000
  C   C23       1.0  0.74881  0.33419  0.64702  1.0000
  C   C24       1.0  0.25118  0.66582  0.35298  1.0000
  C   C25       1.0  0.67126  0.15562  0.64084  1.0000
  C   C26       1.0  0.32874  0.84438  0.35916  1.0000
  N   N1        1.0  0.19432  0.04200  0.82813  1.0000
  N   N2        1.0  0.80569  0.95800  0.17188  1.0000
  N   N3        1.0  0.56430  0.91115  0.77648  1.0000
  N   N4        1.0  0.43571  0.08886  0.22352  1.0000
  O   O1        1.0  0.15011  0.39506  0.91923  1.0000
  O   O2        1.0  0.84990  0.60493  0.08077  1.0000
  O   O3        1.0  0.38776  0.60458  0.87886  1.0000
  O   O4        1.0  0.61224  0.39542  0.12113  1.0000
  O   O5        1.0  0.80243  0.07299  0.91669  1.0000
  O   O6        1.0  0.19757  0.92699  0.08331  1.0000
  O   O7        1.0  0.94796  0.83620  0.70319  1.0000
  O   O8        1.0  0.05204  0.16380  0.29682  1.0000
