data_image0
_chemical_formula_structural       Tb2Ag2H16C24N8O20
_chemical_formula_sum              "Tb2 Ag2 H16 C24 N8 O20"
_cell_length_a       6.77558
_cell_length_b       9.23838
_cell_length_c       15.0413
_cell_angle_alpha    95.1323
_cell_angle_beta     108.141
_cell_angle_gamma    103.516

_space_group_name_H-M_alt    "P 1"
_space_group_IT_number       1

loop_
  _space_group_symop_operation_xyz
  'x, y, z'

loop_
  _atom_site_type_symbol
  _atom_site_label
  _atom_site_symmetry_multiplicity
  _atom_site_fract_x
  _atom_site_fract_y
  _atom_site_fract_z
  _atom_site_occupancy
  Tb  Tb1       1.0  0.08744  0.51158  0.27272  1.0000
  Tb  Tb2       1.0  0.91254  0.48841  0.72729  1.0000
  Ag  Ag1       1.0  0.40486  0.17771  0.19809  1.0000
  Ag  Ag2       1.0  0.59514  0.82230  0.80191  1.0000
  H   H1        1.0  0.66780  0.72828  0.16054  1.0000
  H   H2        1.0  0.33223  0.27172  0.83945  1.0000
  H   H3        1.0  0.58975  0.65636  0.98381  1.0000
  H   H4        1.0  0.41026  0.34365  0.01618  1.0000
  H   H5        1.0  0.56841  0.04601  0.38299  1.0000
  H   H6        1.0  0.43158  0.95399  0.61700  1.0000
  H   H7        1.0  0.72992  0.13603  0.56090  1.0000
  H   H8        1.0  0.27007  0.86397  0.43909  1.0000
  H   H9        1.0  0.04605  0.61367  0.08051  1.0000
  H   H10       1.0  0.95393  0.38633  0.91948  1.0000
  H   H11       1.0  0.89950  0.44544  0.06728  1.0000
  H   H12       1.0  0.10051  0.55456  0.93273  1.0000
  H   H13       1.0  0.40898  0.76254  0.29186  1.0000
  H   H14       1.0  0.59101  0.23746  0.70813  1.0000
  H   H15       1.0  0.23001  0.82304  0.22162  1.0000
  H   H16       1.0  0.76996  0.17698  0.77836  1.0000
  C   C1        1.0  0.69462  0.81433  0.11700  1.0000
  C   C2        1.0  0.30539  0.18567  0.88300  1.0000
  C   C3        1.0  0.65244  0.77392  0.01961  1.0000
  C   C4        1.0  0.34757  0.22608  0.98039  1.0000
  C   C5        1.0  0.76418  0.02533  0.00910  1.0000
  C   C6        1.0  0.23580  0.97467  0.99090  1.0000
  C   C7        1.0  0.80682  0.06368  0.10697  1.0000
  C   C8        1.0  0.19318  0.93632  0.89303  1.0000
  C   C9        1.0  0.90179  0.22416  0.15968  1.0000
  C   C10       1.0  0.09821  0.77584  0.84032  1.0000
  C   C11       1.0  0.80124  0.14107  0.94661  1.0000
  C   C12       1.0  0.19876  0.85893  0.05339  1.0000
  C   C13       1.0  0.61707  0.16569  0.41350  1.0000
  C   C14       1.0  0.38295  0.83431  0.58650  1.0000
  C   C15       1.0  0.70443  0.21480  0.51154  1.0000
  C   C16       1.0  0.29561  0.78519  0.48846  1.0000
  C   C17       1.0  0.73397  0.46084  0.48872  1.0000
  C   C18       1.0  0.26603  0.53915  0.51129  1.0000
  C   C19       1.0  0.65081  0.41181  0.39003  1.0000
  C   C20       1.0  0.34919  0.58818  0.60997  1.0000
  C   C21       1.0  0.63151  0.52209  0.32097  1.0000
  C   C22       1.0  0.36850  0.47791  0.67904  1.0000
  C   C23       1.0  0.79687  0.62693  0.53288  1.0000
  C   C24       1.0  0.20313  0.37307  0.46713  1.0000
  N   N1        1.0  0.76757  0.95876  0.16044  1.0000
  N   N2        1.0  0.23245  0.04124  0.83956  1.0000
  N   N3        1.0  0.68418  0.87912  0.96627  1.0000
  N   N4        1.0  0.31584  0.12089  0.03372  1.0000
  N   N5        1.0  0.58826  0.26322  0.35268  1.0000
  N   N6        1.0  0.41171  0.73678  0.64732  1.0000
  N   N7        1.0  0.75909  0.36170  0.54874  1.0000
  N   N8        1.0  0.24091  0.63829  0.45127  1.0000
  O   O1        1.0  0.10375  0.28548  0.18190  1.0000
  O   O2        1.0  0.89625  0.71452  0.81809  1.0000
  O   O3        1.0  0.78149  0.29487  0.18368  1.0000
  O   O4        1.0  0.21850  0.70511  0.81633  1.0000
  O   O5        1.0  0.83569  0.27956  0.97960  1.0000
  O   O6        1.0  0.16429  0.72044  0.02041  1.0000
  O   O7        1.0  0.79696  0.09095  0.86452  1.0000
  O   O8        1.0  0.20308  0.90906  0.13549  1.0000
  O   O9        1.0  0.45214  0.55172  0.28846  1.0000
  O   O10       1.0  0.54787  0.44828  0.71154  1.0000
  O   O11       1.0  0.79251  0.57010  0.29541  1.0000
  O   O12       1.0  0.20750  0.42991  0.70459  1.0000
  O   O13       1.0  0.76350  0.71995  0.47917  1.0000
  O   O14       1.0  0.23647  0.28004  0.52084  1.0000
  O   O15       1.0  0.87956  0.65385  0.62432  1.0000
  O   O16       1.0  0.12044  0.34614  0.37568  1.0000
  O   O17       1.0  0.96061  0.54328  0.11125  1.0000
  O   O18       1.0  0.03939  0.45672  0.88875  1.0000
  O   O19       1.0  0.26359  0.77439  0.28064  1.0000
  O   O20       1.0  0.73637  0.22559  0.71938  1.0000
