data_image0
_chemical_formula_structural       Dy2Ag2H16C24N8O20
_chemical_formula_sum              "Dy2 Ag2 H16 C24 N8 O20"
_cell_length_a       6.74658
_cell_length_b       9.26728
_cell_length_c       15.0252
_cell_angle_alpha    95.2341
_cell_angle_beta     107.882
_cell_angle_gamma    103.791

_space_group_name_H-M_alt    "P 1"
_space_group_IT_number       1

loop_
  _space_group_symop_operation_xyz
  'x, y, z'

loop_
  _atom_site_type_symbol
  _atom_site_label
  _atom_site_symmetry_multiplicity
  _atom_site_fract_x
  _atom_site_fract_y
  _atom_site_fract_z
  _atom_site_occupancy
  Dy  Dy1       1.0  0.09052  0.51049  0.27283  1.0000
  Dy  Dy2       1.0  0.90948  0.48951  0.72717  1.0000
  Ag  Ag1       1.0  0.40717  0.17639  0.19904  1.0000
  Ag  Ag2       1.0  0.59285  0.82360  0.80096  1.0000
  H   H1        1.0  0.67402  0.72858  0.16014  1.0000
  H   H2        1.0  0.32599  0.27142  0.83986  1.0000
  H   H3        1.0  0.59170  0.65754  0.98284  1.0000
  H   H4        1.0  0.40832  0.34247  0.01717  1.0000
  H   H5        1.0  0.56802  0.04661  0.38427  1.0000
  H   H6        1.0  0.43196  0.95339  0.61573  1.0000
  H   H7        1.0  0.72733  0.13773  0.56225  1.0000
  H   H8        1.0  0.27267  0.86227  0.43774  1.0000
  H   H9        1.0  0.04872  0.61318  0.08156  1.0000
  H   H10       1.0  0.95127  0.38683  0.91844  1.0000
  H   H11       1.0  0.90122  0.44497  0.06837  1.0000
  H   H12       1.0  0.09877  0.55503  0.93162  1.0000
  H   H13       1.0  0.41283  0.76140  0.29215  1.0000
  H   H14       1.0  0.58716  0.23861  0.70786  1.0000
  H   H15       1.0  0.23316  0.82083  0.22194  1.0000
  H   H16       1.0  0.76685  0.17918  0.77806  1.0000
  C   C1        1.0  0.69899  0.81487  0.11664  1.0000
  C   C2        1.0  0.30102  0.18514  0.88337  1.0000
  C   C3        1.0  0.65454  0.77493  0.01892  1.0000
  C   C4        1.0  0.34549  0.22508  0.98108  1.0000
  C   C5        1.0  0.76471  0.02614  0.00875  1.0000
  C   C6        1.0  0.23531  0.97385  0.99125  1.0000
  C   C7        1.0  0.80976  0.06418  0.10691  1.0000
  C   C8        1.0  0.19027  0.93584  0.89309  1.0000
  C   C9        1.0  0.90511  0.22441  0.15988  1.0000
  C   C10       1.0  0.09491  0.77559  0.84013  1.0000
  C   C11       1.0  0.79989  0.14197  0.94625  1.0000
  C   C12       1.0  0.20013  0.85803  0.05376  1.0000
  C   C13       1.0  0.61646  0.16624  0.41460  1.0000
  C   C14       1.0  0.38353  0.83376  0.58541  1.0000
  C   C15       1.0  0.70290  0.21585  0.51266  1.0000
  C   C16       1.0  0.29709  0.78414  0.48734  1.0000
  C   C17       1.0  0.73415  0.46122  0.48955  1.0000
  C   C18       1.0  0.26583  0.53878  0.51045  1.0000
  C   C19       1.0  0.65212  0.41169  0.39090  1.0000
  C   C20       1.0  0.34786  0.58831  0.60910  1.0000
  C   C21       1.0  0.63451  0.52114  0.32160  1.0000
  C   C22       1.0  0.36548  0.47886  0.67840  1.0000
  C   C23       1.0  0.79851  0.62717  0.53364  1.0000
  C   C24       1.0  0.20147  0.37283  0.46636  1.0000
  N   N1        1.0  0.77274  0.95903  0.16044  1.0000
  N   N2        1.0  0.22728  0.04098  0.83956  1.0000
  N   N3        1.0  0.68461  0.88026  0.96565  1.0000
  N   N4        1.0  0.31542  0.11973  0.03435  1.0000
  N   N5        1.0  0.58918  0.26320  0.35366  1.0000
  N   N6        1.0  0.41079  0.73680  0.64634  1.0000
  N   N7        1.0  0.75772  0.36261  0.54970  1.0000
  N   N8        1.0  0.24227  0.63739  0.45030  1.0000
  O   O1        1.0  0.10774  0.28654  0.18170  1.0000
  O   O2        1.0  0.89227  0.71348  0.81829  1.0000
  O   O3        1.0  0.78439  0.29425  0.18442  1.0000
  O   O4        1.0  0.21564  0.70575  0.81558  1.0000
  O   O5        1.0  0.83558  0.28013  0.97979  1.0000
  O   O6        1.0  0.16439  0.71987  0.02020  1.0000
  O   O7        1.0  0.79288  0.09224  0.86350  1.0000
  O   O8        1.0  0.20714  0.90775  0.13650  1.0000
  O   O9        1.0  0.45503  0.55084  0.28906  1.0000
  O   O10       1.0  0.54497  0.44916  0.71094  1.0000
  O   O11       1.0  0.79667  0.56846  0.29589  1.0000
  O   O12       1.0  0.20332  0.43153  0.70412  1.0000
  O   O13       1.0  0.76780  0.71991  0.47985  1.0000
  O   O14       1.0  0.23220  0.28009  0.52015  1.0000
  O   O15       1.0  0.87942  0.65409  0.62511  1.0000
  O   O16       1.0  0.12058  0.34590  0.37489  1.0000
  O   O17       1.0  0.96375  0.54254  0.11262  1.0000
  O   O18       1.0  0.03623  0.45746  0.88738  1.0000
  O   O19       1.0  0.26639  0.77197  0.28067  1.0000
  O   O20       1.0  0.73359  0.22804  0.71933  1.0000
