data_image0
_chemical_formula_structural       Ag8H8C24N8O16
_chemical_formula_sum              "Ag8 H8 C24 N8 O16"
_cell_length_a       7.2896
_cell_length_b       7.2897
_cell_length_c       14.4871
_cell_angle_alpha    90.3176
_cell_angle_beta     90.3187
_cell_angle_gamma    79.6128

_space_group_name_H-M_alt    "P 1"
_space_group_IT_number       1

loop_
  _space_group_symop_operation_xyz
  'x, y, z'

loop_
  _atom_site_type_symbol
  _atom_site_label
  _atom_site_symmetry_multiplicity
  _atom_site_fract_x
  _atom_site_fract_y
  _atom_site_fract_z
  _atom_site_occupancy
  Ag  Ag1       1.0  0.25588  0.83738  0.42132  1.0000
  Ag  Ag2       1.0  0.16262  0.74413  0.07868  1.0000
  Ag  Ag3       1.0  0.74413  0.16262  0.57868  1.0000
  Ag  Ag4       1.0  0.83738  0.25587  0.92132  1.0000
  Ag  Ag5       1.0  0.38668  0.83806  0.71039  1.0000
  Ag  Ag6       1.0  0.16192  0.61331  0.78960  1.0000
  Ag  Ag7       1.0  0.61333  0.16193  0.28961  1.0000
  Ag  Ag8       1.0  0.83809  0.38669  0.21039  1.0000
  H   H1        1.0  0.19818  0.16620  0.27479  1.0000
  H   H2        1.0  0.83379  0.80183  0.22521  1.0000
  H   H3        1.0  0.80183  0.83379  0.72521  1.0000
  H   H4        1.0  0.16620  0.19817  0.77479  1.0000
  H   H5        1.0  0.22972  0.50214  0.26955  1.0000
  H   H6        1.0  0.49785  0.77030  0.23046  1.0000
  H   H7        1.0  0.77029  0.49785  0.73046  1.0000
  H   H8        1.0  0.50214  0.22971  0.76954  1.0000
  C   C1        1.0  0.24199  0.43913  0.49409  1.0000
  C   C2        1.0  0.56085  0.75801  0.00591  1.0000
  C   C3        1.0  0.75801  0.56087  0.50591  1.0000
  C   C4        1.0  0.43914  0.24200  0.99409  1.0000
  C   C5        1.0  0.23189  0.24848  0.49723  1.0000
  C   C6        1.0  0.75151  0.76810  0.00277  1.0000
  C   C7        1.0  0.76811  0.75152  0.50277  1.0000
  C   C8        1.0  0.24848  0.23190  0.99723  1.0000
  C   C9        1.0  0.21568  0.24275  0.33828  1.0000
  C   C10       1.0  0.75724  0.78433  0.16171  1.0000
  C   C11       1.0  0.78433  0.75724  0.66172  1.0000
  C   C12       1.0  0.24275  0.21568  0.83828  1.0000
  C   C13       1.0  0.25069  0.13925  0.58642  1.0000
  C   C14       1.0  0.86074  0.74930  0.91359  1.0000
  C   C15       1.0  0.74930  0.86074  0.41359  1.0000
  C   C16       1.0  0.13926  0.25071  0.08641  1.0000
  C   C17       1.0  0.25429  0.54731  0.58195  1.0000
  C   C18       1.0  0.45266  0.74571  0.91805  1.0000
  C   C19       1.0  0.74570  0.45267  0.41806  1.0000
  C   C20       1.0  0.54733  0.25431  0.08194  1.0000
  C   C21       1.0  0.23091  0.43131  0.33560  1.0000
  C   C22       1.0  0.56869  0.76910  0.16439  1.0000
  C   C23       1.0  0.76910  0.56869  0.66439  1.0000
  C   C24       1.0  0.43132  0.23091  0.83560  1.0000
  N   N1        1.0  0.24294  0.52949  0.41322  1.0000
  N   N2        1.0  0.47049  0.75708  0.08678  1.0000
  N   N3        1.0  0.75707  0.47050  0.58679  1.0000
  N   N4        1.0  0.52950  0.24294  0.91321  1.0000
  N   N5        1.0  0.21632  0.15152  0.41881  1.0000
  N   N6        1.0  0.84847  0.78368  0.08119  1.0000
  N   N7        1.0  0.78368  0.84848  0.58119  1.0000
  N   N8        1.0  0.15152  0.21632  0.91881  1.0000
  O   O1        1.0  0.41727  0.10024  0.61819  1.0000
  O   O2        1.0  0.89975  0.58273  0.88181  1.0000
  O   O3        1.0  0.58272  0.89977  0.38181  1.0000
  O   O4        1.0  0.10024  0.41727  0.11819  1.0000
  O   O5        1.0  0.11130  0.08511  0.61973  1.0000
  O   O6        1.0  0.91488  0.88870  0.88026  1.0000
  O   O7        1.0  0.88871  0.91488  0.38027  1.0000
  O   O8        1.0  0.08512  0.11130  0.11973  1.0000
  O   O9        1.0  0.18686  0.48242  0.65261  1.0000
  O   O10       1.0  0.51755  0.81314  0.84738  1.0000
  O   O11       1.0  0.81313  0.51756  0.34738  1.0000
  O   O12       1.0  0.48246  0.18687  0.15261  1.0000
  O   O13       1.0  0.32974  0.69047  0.57756  1.0000
  O   O14       1.0  0.30952  0.67026  0.92244  1.0000
  O   O15       1.0  0.67027  0.30953  0.42245  1.0000
  O   O16       1.0  0.69048  0.32977  0.07755  1.0000
