data_image0
_chemical_formula_structural       Ho2Ag2H16C24N8O20
_chemical_formula_sum              "Ho2 Ag2 H16 C24 N8 O20"
_cell_length_a       6.72396
_cell_length_b       9.27035
_cell_length_c       14.9943
_cell_angle_alpha    95.447
_cell_angle_beta     107.808
_cell_angle_gamma    103.447

_space_group_name_H-M_alt    "P 1"
_space_group_IT_number       1

loop_
  _space_group_symop_operation_xyz
  'x, y, z'

loop_
  _atom_site_type_symbol
  _atom_site_label
  _atom_site_symmetry_multiplicity
  _atom_site_fract_x
  _atom_site_fract_y
  _atom_site_fract_z
  _atom_site_occupancy
  Ho  Ho1       1.0  0.08778  0.51147  0.27297  1.0000
  Ho  Ho2       1.0  0.91222  0.48852  0.72703  1.0000
  Ag  Ag1       1.0  0.40488  0.17723  0.19849  1.0000
  Ag  Ag2       1.0  0.59513  0.82276  0.80152  1.0000
  H   H1        1.0  0.67410  0.73308  0.16144  1.0000
  H   H2        1.0  0.32589  0.26691  0.83855  1.0000
  H   H3        1.0  0.59266  0.66019  0.98385  1.0000
  H   H4        1.0  0.40733  0.33980  0.01614  1.0000
  H   H5        1.0  0.56800  0.04740  0.38327  1.0000
  H   H6        1.0  0.43202  0.95260  0.61673  1.0000
  H   H7        1.0  0.73023  0.13759  0.56181  1.0000
  H   H8        1.0  0.26977  0.86241  0.43820  1.0000
  H   H9        1.0  0.04899  0.61360  0.08243  1.0000
  H   H10       1.0  0.95101  0.38640  0.91757  1.0000
  H   H11       1.0  0.90098  0.44624  0.06872  1.0000
  H   H12       1.0  0.09902  0.55375  0.93128  1.0000
  H   H13       1.0  0.40796  0.76062  0.29299  1.0000
  H   H14       1.0  0.59205  0.23938  0.70701  1.0000
  H   H15       1.0  0.22893  0.82007  0.22186  1.0000
  H   H16       1.0  0.77108  0.17994  0.77814  1.0000
  C   C1        1.0  0.69921  0.81854  0.11756  1.0000
  C   C2        1.0  0.30078  0.18146  0.88244  1.0000
  C   C3        1.0  0.65546  0.77748  0.01977  1.0000
  C   C4        1.0  0.34452  0.22252  0.98023  1.0000
  C   C5        1.0  0.76513  0.02783  0.00889  1.0000
  C   C6        1.0  0.23488  0.97216  0.99111  1.0000
  C   C7        1.0  0.80957  0.06700  0.10711  1.0000
  C   C8        1.0  0.19043  0.93301  0.89289  1.0000
  C   C9        1.0  0.90411  0.22735  0.15973  1.0000
  C   C10       1.0  0.09589  0.77265  0.84027  1.0000
  C   C11       1.0  0.80007  0.14257  0.94593  1.0000
  C   C12       1.0  0.19993  0.85741  0.05407  1.0000
  C   C13       1.0  0.61660  0.16667  0.41416  1.0000
  C   C14       1.0  0.38340  0.83333  0.58585  1.0000
  C   C15       1.0  0.70445  0.21581  0.51241  1.0000
  C   C16       1.0  0.29555  0.78419  0.48759  1.0000
  C   C17       1.0  0.73383  0.46098  0.48985  1.0000
  C   C18       1.0  0.26614  0.53902  0.51015  1.0000
  C   C19       1.0  0.65065  0.41195  0.39097  1.0000
  C   C20       1.0  0.34935  0.58805  0.60902  1.0000
  C   C21       1.0  0.63228  0.52155  0.32183  1.0000
  C   C22       1.0  0.36772  0.47846  0.67816  1.0000
  C   C23       1.0  0.79920  0.62659  0.53460  1.0000
  C   C24       1.0  0.20079  0.37342  0.46539  1.0000
  N   N1        1.0  0.77263  0.96273  0.16102  1.0000
  N   N2        1.0  0.22738  0.03728  0.83898  1.0000
  N   N3        1.0  0.68588  0.88190  0.96615  1.0000
  N   N4        1.0  0.31411  0.11810  0.03385  1.0000
  N   N5        1.0  0.58766  0.26370  0.35344  1.0000
  N   N6        1.0  0.41235  0.73630  0.64656  1.0000
  N   N7        1.0  0.75897  0.36232  0.54983  1.0000
  N   N8        1.0  0.24103  0.63768  0.45017  1.0000
  O   O1        1.0  0.10692  0.28929  0.18160  1.0000
  O   O2        1.0  0.89309  0.71072  0.81841  1.0000
  O   O3        1.0  0.78271  0.29765  0.18417  1.0000
  O   O4        1.0  0.21730  0.70236  0.81584  1.0000
  O   O5        1.0  0.83532  0.28075  0.97928  1.0000
  O   O6        1.0  0.16469  0.71922  0.02073  1.0000
  O   O7        1.0  0.79363  0.09211  0.86312  1.0000
  O   O8        1.0  0.20635  0.90790  0.13688  1.0000
  O   O9        1.0  0.45198  0.55104  0.28931  1.0000
  O   O10       1.0  0.54801  0.44896  0.71068  1.0000
  O   O11       1.0  0.79480  0.56947  0.29628  1.0000
  O   O12       1.0  0.20521  0.43054  0.70371  1.0000
  O   O13       1.0  0.76720  0.71994  0.48143  1.0000
  O   O14       1.0  0.23281  0.28008  0.51857  1.0000
  O   O15       1.0  0.88339  0.65283  0.62616  1.0000
  O   O16       1.0  0.11660  0.34717  0.37384  1.0000
  O   O17       1.0  0.96297  0.54350  0.11327  1.0000
  O   O18       1.0  0.03705  0.45649  0.88673  1.0000
  O   O19       1.0  0.26034  0.77046  0.28041  1.0000
  O   O20       1.0  0.73966  0.22953  0.71958  1.0000
