data_image0
_chemical_formula_structural       Er2Ag2H16C24N8O20
_chemical_formula_sum              "Er2 Ag2 H16 C24 N8 O20"
_cell_length_a       6.70842
_cell_length_b       9.25494
_cell_length_c       14.9793
_cell_angle_alpha    95.0845
_cell_angle_beta     108.005
_cell_angle_gamma    103.667

_space_group_name_H-M_alt    "P 1"
_space_group_IT_number       1

loop_
  _space_group_symop_operation_xyz
  'x, y, z'

loop_
  _atom_site_type_symbol
  _atom_site_label
  _atom_site_symmetry_multiplicity
  _atom_site_fract_x
  _atom_site_fract_y
  _atom_site_fract_z
  _atom_site_occupancy
  Er  Er1       1.0  0.09055  0.50970  0.27280  1.0000
  Er  Er2       1.0  0.90950  0.49031  0.72721  1.0000
  Ag  Ag1       1.0  0.40834  0.17539  0.19948  1.0000
  Ag  Ag2       1.0  0.59163  0.82461  0.80051  1.0000
  H   H1        1.0  0.67347  0.72973  0.16188  1.0000
  H   H2        1.0  0.32658  0.27029  0.83814  1.0000
  H   H3        1.0  0.59116  0.65852  0.98408  1.0000
  H   H4        1.0  0.40885  0.34147  0.01593  1.0000
  H   H5        1.0  0.57394  0.04660  0.38636  1.0000
  H   H6        1.0  0.42605  0.95339  0.61366  1.0000
  H   H7        1.0  0.73177  0.13878  0.56480  1.0000
  H   H8        1.0  0.26826  0.86124  0.43521  1.0000
  H   H9        1.0  0.04971  0.61275  0.08247  1.0000
  H   H10       1.0  0.95028  0.38726  0.91754  1.0000
  H   H11       1.0  0.90234  0.44476  0.06924  1.0000
  H   H12       1.0  0.09766  0.55523  0.93076  1.0000
  H   H13       1.0  0.40935  0.76001  0.29253  1.0000
  H   H14       1.0  0.59065  0.23998  0.70747  1.0000
  H   H15       1.0  0.22826  0.81853  0.22111  1.0000
  H   H16       1.0  0.77172  0.18146  0.77887  1.0000
  C   C1        1.0  0.69905  0.81590  0.11806  1.0000
  C   C2        1.0  0.30096  0.18410  0.88194  1.0000
  C   C3        1.0  0.65462  0.77586  0.02010  1.0000
  C   C4        1.0  0.34537  0.22413  0.97989  1.0000
  C   C5        1.0  0.76548  0.02701  0.00952  1.0000
  C   C6        1.0  0.23450  0.97300  0.99049  1.0000
  C   C7        1.0  0.81070  0.06523  0.10790  1.0000
  C   C8        1.0  0.18931  0.93479  0.89211  1.0000
  C   C9        1.0  0.90637  0.22552  0.16062  1.0000
  C   C10       1.0  0.09365  0.77449  0.83937  1.0000
  C   C11       1.0  0.80043  0.14257  0.94648  1.0000
  C   C12       1.0  0.19953  0.85742  0.05352  1.0000
  C   C13       1.0  0.62041  0.16624  0.41631  1.0000
  C   C14       1.0  0.37959  0.83377  0.58368  1.0000
  C   C15       1.0  0.70604  0.21634  0.51457  1.0000
  C   C16       1.0  0.29393  0.78364  0.48541  1.0000
  C   C17       1.0  0.73427  0.46130  0.49021  1.0000
  C   C18       1.0  0.26572  0.53868  0.50979  1.0000
  C   C19       1.0  0.65289  0.41133  0.39134  1.0000
  C   C20       1.0  0.34710  0.58868  0.60866  1.0000
  C   C21       1.0  0.63450  0.52032  0.32123  1.0000
  C   C22       1.0  0.36554  0.47970  0.67879  1.0000
  C   C23       1.0  0.79844  0.62731  0.53410  1.0000
  C   C24       1.0  0.20156  0.37266  0.46590  1.0000
  N   N1        1.0  0.77308  0.96010  0.16174  1.0000
  N   N2        1.0  0.22694  0.03991  0.83827  1.0000
  N   N3        1.0  0.68505  0.88112  0.96649  1.0000
  N   N4        1.0  0.31491  0.11889  0.03351  1.0000
  N   N5        1.0  0.59148  0.26269  0.35466  1.0000
  N   N6        1.0  0.40853  0.73731  0.64532  1.0000
  N   N7        1.0  0.75870  0.36313  0.55109  1.0000
  N   N8        1.0  0.24130  0.63686  0.44892  1.0000
  O   O1        1.0  0.10984  0.28793  0.18241  1.0000
  O   O2        1.0  0.89017  0.71210  0.81756  1.0000
  O   O3        1.0  0.78519  0.29573  0.18518  1.0000
  O   O4        1.0  0.21484  0.70429  0.81483  1.0000
  O   O5        1.0  0.83605  0.28085  0.97969  1.0000
  O   O6        1.0  0.16388  0.71915  0.02029  1.0000
  O   O7        1.0  0.79335  0.09259  0.86358  1.0000
  O   O8        1.0  0.20666  0.90741  0.13642  1.0000
  O   O9        1.0  0.45393  0.55039  0.28859  1.0000
  O   O10       1.0  0.54609  0.44961  0.71142  1.0000
  O   O11       1.0  0.79695  0.56702  0.29505  1.0000
  O   O12       1.0  0.20307  0.43299  0.70496  1.0000
  O   O13       1.0  0.76958  0.72047  0.47997  1.0000
  O   O14       1.0  0.23040  0.27949  0.52001  1.0000
  O   O15       1.0  0.87842  0.65397  0.62593  1.0000
  O   O16       1.0  0.12162  0.34601  0.37407  1.0000
  O   O17       1.0  0.96480  0.54202  0.11379  1.0000
  O   O18       1.0  0.03519  0.45798  0.88621  1.0000
  O   O19       1.0  0.26053  0.76835  0.27972  1.0000
  O   O20       1.0  0.73947  0.23165  0.72027  1.0000
