data_image0
_chemical_formula_structural       Zn2H16C12N4O10
_chemical_formula_sum              "Zn2 H16 C12 N4 O10"
_cell_length_a       4.76567
_cell_length_b       9.45435
_cell_length_c       9.05944
_cell_angle_alpha    90.0009
_cell_angle_beta     92.9194
_cell_angle_gamma    89.999

_space_group_name_H-M_alt    "P 1"
_space_group_IT_number       1

loop_
  _space_group_symop_operation_xyz
  'x, y, z'

loop_
  _atom_site_type_symbol
  _atom_site_label
  _atom_site_symmetry_multiplicity
  _atom_site_fract_x
  _atom_site_fract_y
  _atom_site_fract_z
  _atom_site_occupancy
  Zn  Zn1       1.0  0.81788  0.99055  0.76451  1.0000
  Zn  Zn2       1.0  0.18212  0.49056  0.23549  1.0000
  H   H1        1.0  0.70113  0.08981  0.49755  1.0000
  H   H2        1.0  0.29887  0.58981  0.50245  1.0000
  H   H3        1.0  0.42002  0.00831  0.56006  1.0000
  H   H4        1.0  0.57998  0.50831  0.43993  1.0000
  H   H5        1.0  0.25615  0.19682  0.68124  1.0000
  H   H6        1.0  0.74385  0.69682  0.31876  1.0000
  H   H7        1.0  0.41112  0.28137  0.53255  1.0000
  H   H8        1.0  0.58889  0.78137  0.46745  1.0000
  H   H9        1.0  0.40339  0.46637  0.73904  1.0000
  H   H10       1.0  0.59662  0.96637  0.26097  1.0000
  H   H11       1.0  0.96469  0.44700  0.90074  1.0000
  H   H12       1.0  0.03530  0.94700  0.09926  1.0000
  H   H13       1.0  0.57593  0.70160  0.84269  1.0000
  H   H14       1.0  0.42407  0.20160  0.15731  1.0000
  H   H15       1.0  0.89490  0.70487  0.95046  1.0000
  H   H16       1.0  0.10509  0.20487  0.04954  1.0000
  C   C1        1.0  0.45692  0.21395  0.62953  1.0000
  C   C2        1.0  0.54308  0.71395  0.37047  1.0000
  C   C3        1.0  0.65052  0.28771  0.74294  1.0000
  C   C4        1.0  0.34948  0.78771  0.25706  1.0000
  C   C5        1.0  0.75562  0.49493  0.89236  1.0000
  C   C6        1.0  0.24438  0.99494  0.10764  1.0000
  C   C7        1.0  0.62244  0.48095  0.04184  1.0000
  C   C8        1.0  0.37756  0.98095  0.95816  1.0000
  C   C9        1.0  0.78405  0.65192  0.85612  1.0000
  C   C10       1.0  0.21594  0.15193  0.14388  1.0000
  C   C11       1.0  0.94568  0.68252  0.71826  1.0000
  C   C12       1.0  0.05433  0.18253  0.28175  1.0000
  N   N1        1.0  0.57857  0.07730  0.58872  1.0000
  N   N2        1.0  0.42144  0.57730  0.41127  1.0000
  N   N3        1.0  0.59033  0.42129  0.77705  1.0000
  N   N4        1.0  0.40967  0.92130  0.22295  1.0000
  O   O1        1.0  0.85690  0.22264  0.80310  1.0000
  O   O2        1.0  0.14310  0.72264  0.19690  1.0000
  O   O3        1.0  0.35601  0.46653  0.03938  1.0000
  O   O4        1.0  0.64400  0.96654  0.96062  1.0000
  O   O5        1.0  0.77047  0.48831  0.16152  1.0000
  O   O6        1.0  0.22954  0.98831  0.83848  1.0000
  O   O7        1.0  0.91119  0.80555  0.65952  1.0000
  O   O8        1.0  0.08880  0.30556  0.34048  1.0000
  O   O9        1.0  0.10270  0.58872  0.66743  1.0000
  O   O10       1.0  0.89729  0.08873  0.33257  1.0000
