data_image0
_chemical_formula_structural       Zn4H36C28N28
_chemical_formula_sum              "Zn4 H36 C28 N28"
_cell_length_a       6.1218
_cell_length_b       10.8364
_cell_length_c       16.0285
_cell_angle_alpha    90.0001
_cell_angle_beta     90
_cell_angle_gamma    103.278

_space_group_name_H-M_alt    "P 1"
_space_group_IT_number       1

loop_
  _space_group_symop_operation_xyz
  'x, y, z'

loop_
  _atom_site_type_symbol
  _atom_site_label
  _atom_site_symmetry_multiplicity
  _atom_site_fract_x
  _atom_site_fract_y
  _atom_site_fract_z
  _atom_site_occupancy
  Zn  Zn1       1.0  0.01555  0.21267  0.21224  1.0000
  Zn  Zn2       1.0  0.48446  0.78733  0.71224  1.0000
  Zn  Zn3       1.0  0.98446  0.78733  0.78776  1.0000
  Zn  Zn4       1.0  0.51555  0.21267  0.28776  1.0000
  H   H1        1.0  0.21082  0.19742  0.89924  1.0000
  H   H2        1.0  0.28918  0.80258  0.39925  1.0000
  H   H3        1.0  0.78919  0.80258  0.10075  1.0000
  H   H4        1.0  0.71081  0.19742  0.60075  1.0000
  H   H5        1.0  0.72496  0.41305  0.96627  1.0000
  H   H6        1.0  0.77503  0.58694  0.46627  1.0000
  H   H7        1.0  0.27503  0.58694  0.03373  1.0000
  H   H8        1.0  0.22497  0.41306  0.53373  1.0000
  H   H9        1.0  0.76954  0.35144  0.11341  1.0000
  H   H10       1.0  0.73046  0.64856  0.61342  1.0000
  H   H11       1.0  0.23045  0.64856  0.88658  1.0000
  H   H12       1.0  0.26955  0.35144  0.38658  1.0000
  H   H13       1.0  0.15994  0.02243  0.08364  1.0000
  H   H14       1.0  0.34007  0.97757  0.58364  1.0000
  H   H15       1.0  0.84005  0.97757  0.91637  1.0000
  H   H16       1.0  0.65994  0.02243  0.41636  1.0000
  H   H17       1.0  0.35227  0.08197  0.00181  1.0000
  H   H18       1.0  0.14773  0.91803  0.50181  1.0000
  H   H19       1.0  0.64772  0.91803  0.99819  1.0000
  H   H20       1.0  0.85228  0.08197  0.49819  1.0000
  H   H21       1.0  0.38400  0.15484  0.10200  1.0000
  H   H22       1.0  0.11600  0.84517  0.60200  1.0000
  H   H23       1.0  0.61600  0.84516  0.89800  1.0000
  H   H24       1.0  0.88400  0.15483  0.39800  1.0000
  H   H25       1.0  0.81600  0.27342  0.79944  1.0000
  H   H26       1.0  0.68399  0.72658  0.29945  1.0000
  H   H27       1.0  0.18400  0.72658  0.20055  1.0000
  H   H28       1.0  0.31601  0.27342  0.70055  1.0000
  H   H29       1.0  0.10722  0.34698  0.79699  1.0000
  H   H30       1.0  0.39277  0.65301  0.29700  1.0000
  H   H31       1.0  0.89277  0.65302  0.20301  1.0000
  H   H32       1.0  0.60723  0.34699  0.70300  1.0000
  H   H33       1.0  0.90622  0.43678  0.82367  1.0000
  H   H34       1.0  0.59377  0.56321  0.32367  1.0000
  H   H35       1.0  0.09378  0.56322  0.17633  1.0000
  H   H36       1.0  0.40621  0.43678  0.67632  1.0000
  C   C1        1.0  0.11646  0.19584  0.02795  1.0000
  C   C2        1.0  0.38354  0.80416  0.52796  1.0000
  C   C3        1.0  0.88354  0.80416  0.97205  1.0000
  C   C4        1.0  0.61646  0.19584  0.47204  1.0000
  C   C5        1.0  0.10480  0.23087  0.94462  1.0000
  C   C6        1.0  0.39521  0.76913  0.44463  1.0000
  C   C7        1.0  0.89521  0.76913  0.05538  1.0000
  C   C8        1.0  0.60479  0.23087  0.55537  1.0000
  C   C9        1.0  0.96455  0.30933  0.91943  1.0000
  C   C10       1.0  0.53545  0.69067  0.41944  1.0000
  C   C11       1.0  0.03545  0.69067  0.08057  1.0000
  C   C12       1.0  0.46454  0.30933  0.58057  1.0000
  C   C13       1.0  0.83778  0.35174  0.98141  1.0000
  C   C14       1.0  0.66222  0.64826  0.48141  1.0000
  C   C15       1.0  0.16221  0.64826  0.01859  1.0000
  C   C16       1.0  0.33778  0.35174  0.51859  1.0000
  C   C17       1.0  0.85937  0.31634  0.06339  1.0000
  C   C18       1.0  0.64063  0.68366  0.56339  1.0000
  C   C19       1.0  0.14063  0.68366  0.93661  1.0000
  C   C20       1.0  0.35937  0.31634  0.43661  1.0000
  C   C21       1.0  0.26110  0.10911  0.05501  1.0000
  C   C22       1.0  0.23890  0.89090  0.55501  1.0000
  C   C23       1.0  0.73890  0.89089  0.94499  1.0000
  C   C24       1.0  0.76110  0.10911  0.44499  1.0000
  C   C25       1.0  0.94956  0.34454  0.82992  1.0000
  C   C26       1.0  0.55043  0.65546  0.32992  1.0000
  C   C27       1.0  0.05044  0.65546  0.17008  1.0000
  C   C28       1.0  0.44956  0.34454  0.67008  1.0000
  N   N1        1.0  0.17419  0.09296  0.27154  1.0000
  N   N2        1.0  0.32581  0.90704  0.77154  1.0000
  N   N3        1.0  0.82582  0.90705  0.72846  1.0000
  N   N4        1.0  0.67419  0.09295  0.22846  1.0000
  N   N5        1.0  0.08914  0.99413  0.30602  1.0000
  N   N6        1.0  0.41086  0.00587  0.80602  1.0000
  N   N7        1.0  0.91087  0.00588  0.69398  1.0000
  N   N8        1.0  0.58913  0.99413  0.19398  1.0000
  N   N9        1.0  0.01119  0.89940  0.33966  1.0000
  N   N10       1.0  0.48882  0.10061  0.83967  1.0000
  N   N11       1.0  0.98883  0.10061  0.66034  1.0000
  N   N12       1.0  0.51118  0.89940  0.16033  1.0000
  N   N13       1.0  0.35520  0.33306  0.22655  1.0000
  N   N14       1.0  0.14480  0.66694  0.72656  1.0000
  N   N15       1.0  0.64480  0.66693  0.77344  1.0000
  N   N16       1.0  0.85520  0.33307  0.27344  1.0000
  N   N17       1.0  0.43576  0.41895  0.17938  1.0000
  N   N18       1.0  0.06425  0.58106  0.67939  1.0000
  N   N19       1.0  0.56425  0.58106  0.82061  1.0000
  N   N20       1.0  0.93575  0.41894  0.32061  1.0000
  N   N21       1.0  0.50882  0.50145  0.13390  1.0000
  N   N22       1.0  0.99119  0.49855  0.63390  1.0000
  N   N23       1.0  0.49118  0.49854  0.86610  1.0000
  N   N24       1.0  0.00882  0.50145  0.36610  1.0000
  N   N25       1.0  0.99448  0.23995  0.08692  1.0000
  N   N26       1.0  0.50552  0.76005  0.58693  1.0000
  N   N27       1.0  0.00552  0.76005  0.91307  1.0000
  N   N28       1.0  0.49448  0.23994  0.41307  1.0000
