data_image0
_chemical_formula_structural       Zn4H36C28N28
_chemical_formula_sum              "Zn4 H36 C28 N28"
_cell_length_a       6.01886
_cell_length_b       10.9583
_cell_length_c       16.5381
_cell_angle_alpha    90.0005
_cell_angle_beta     89.9995
_cell_angle_gamma    105.13

_space_group_name_H-M_alt    "P 1"
_space_group_IT_number       1

loop_
  _space_group_symop_operation_xyz
  'x, y, z'

loop_
  _atom_site_type_symbol
  _atom_site_label
  _atom_site_symmetry_multiplicity
  _atom_site_fract_x
  _atom_site_fract_y
  _atom_site_fract_z
  _atom_site_occupancy
  Zn  Zn1       1.0  0.23822  0.26060  0.21078  1.0000
  Zn  Zn2       1.0  0.26178  0.73940  0.71078  1.0000
  Zn  Zn3       1.0  0.76178  0.73940  0.78922  1.0000
  Zn  Zn4       1.0  0.73823  0.26060  0.28922  1.0000
  H   H1        1.0  0.53646  0.35067  0.06434  1.0000
  H   H2        1.0  0.96354  0.64933  0.56434  1.0000
  H   H3        1.0  0.46354  0.64933  0.93566  1.0000
  H   H4        1.0  0.03646  0.35067  0.43566  1.0000
  H   H5        1.0  0.79517  0.10738  0.95509  1.0000
  H   H6        1.0  0.70482  0.89262  0.45508  1.0000
  H   H7        1.0  0.20484  0.89261  0.04492  1.0000
  H   H8        1.0  0.29518  0.10740  0.54492  1.0000
  H   H9        1.0  0.86885  0.13115  0.10298  1.0000
  H   H10       1.0  0.63115  0.86884  0.60297  1.0000
  H   H11       1.0  0.13116  0.86883  0.89703  1.0000
  H   H12       1.0  0.36885  0.13117  0.39703  1.0000
  H   H13       1.0  0.69938  0.39864  0.93600  1.0000
  H   H14       1.0  0.80061  0.60136  0.43600  1.0000
  H   H15       1.0  0.30063  0.60136  0.06400  1.0000
  H   H16       1.0  0.19939  0.39864  0.56400  1.0000
  H   H17       1.0  0.59832  0.27993  0.86158  1.0000
  H   H18       1.0  0.90166  0.72006  0.36157  1.0000
  H   H19       1.0  0.40168  0.72006  0.13843  1.0000
  H   H20       1.0  0.09833  0.27994  0.63843  1.0000
  H   H21       1.0  0.50036  0.41896  0.86039  1.0000
  H   H22       1.0  0.99964  0.58103  0.36038  1.0000
  H   H23       1.0  0.49964  0.58103  0.13962  1.0000
  H   H24       1.0  0.00036  0.41896  0.63962  1.0000
  H   H25       1.0  0.92186  0.15149  0.81944  1.0000
  H   H26       1.0  0.57813  0.84850  0.31943  1.0000
  H   H27       1.0  0.07814  0.84851  0.18056  1.0000
  H   H28       1.0  0.42186  0.15150  0.68056  1.0000
  H   H29       1.0  0.21849  0.15591  0.80619  1.0000
  H   H30       1.0  0.28149  0.84409  0.30619  1.0000
  H   H31       1.0  0.78152  0.84409  0.19381  1.0000
  H   H32       1.0  0.71850  0.15591  0.69382  1.0000
  H   H33       1.0  0.13200  0.29826  0.80483  1.0000
  H   H34       1.0  0.36798  0.70173  0.30482  1.0000
  H   H35       1.0  0.86800  0.70174  0.19517  1.0000
  H   H36       1.0  0.63201  0.29827  0.69518  1.0000
  C   C1        1.0  0.37473  0.29658  0.03771  1.0000
  C   C2        1.0  0.12527  0.70342  0.53771  1.0000
  C   C3        1.0  0.62526  0.70342  0.96229  1.0000
  C   C4        1.0  0.87474  0.29658  0.46229  1.0000
  C   C5        1.0  0.35118  0.28676  0.95401  1.0000
  C   C6        1.0  0.14881  0.71323  0.45401  1.0000
  C   C7        1.0  0.64882  0.71323  0.04599  1.0000
  C   C8        1.0  0.85119  0.28677  0.54599  1.0000
  C   C9        1.0  0.13722  0.21755  0.92244  1.0000
  C   C10       1.0  0.36278  0.78245  0.42243  1.0000
  C   C11       1.0  0.86278  0.78245  0.07757  1.0000
  C   C12       1.0  0.63722  0.21755  0.57757  1.0000
  C   C13       1.0  0.96265  0.16169  0.97699  1.0000
  C   C14       1.0  0.53734  0.83831  0.47698  1.0000
  C   C15       1.0  0.03734  0.83830  0.02301  1.0000
  C   C16       1.0  0.46265  0.16170  0.52302  1.0000
  C   C17       1.0  0.00110  0.17553  0.05948  1.0000
  C   C18       1.0  0.49890  0.82447  0.55947  1.0000
  C   C19       1.0  0.99890  0.82446  0.94052  1.0000
  C   C20       1.0  0.50110  0.17555  0.44053  1.0000
  C   C21       1.0  0.54854  0.34979  0.90048  1.0000
  C   C22       1.0  0.95145  0.65021  0.40047  1.0000
  C   C23       1.0  0.45146  0.65021  0.09953  1.0000
  C   C24       1.0  0.04855  0.34979  0.59953  1.0000
  C   C25       1.0  0.09854  0.20456  0.83333  1.0000
  C   C26       1.0  0.40145  0.79543  0.33333  1.0000
  C   C27       1.0  0.90146  0.79544  0.16667  1.0000
  C   C28       1.0  0.59855  0.20457  0.66667  1.0000
  N   N1        1.0  0.98017  0.14167  0.27426  1.0000
  N   N2        1.0  0.51983  0.85833  0.77426  1.0000
  N   N3        1.0  0.01983  0.85833  0.72574  1.0000
  N   N4        1.0  0.48017  0.14167  0.22574  1.0000
  N   N5        1.0  0.99479  0.05354  0.31595  1.0000
  N   N6        1.0  0.50521  0.94646  0.81595  1.0000
  N   N7        1.0  0.00521  0.94646  0.68405  1.0000
  N   N8        1.0  0.49480  0.05353  0.18405  1.0000
  N   N9        1.0  0.00560  0.96850  0.35639  1.0000
  N   N10       1.0  0.49440  0.03150  0.85639  1.0000
  N   N11       1.0  0.99439  0.03149  0.64361  1.0000
  N   N12       1.0  0.50561  0.96851  0.14361  1.0000
  N   N13       1.0  0.98880  0.38032  0.22478  1.0000
  N   N14       1.0  0.51120  0.61968  0.72478  1.0000
  N   N15       1.0  0.01120  0.61968  0.77522  1.0000
  N   N16       1.0  0.48881  0.38032  0.27522  1.0000
  N   N17       1.0  0.93220  0.43589  0.16806  1.0000
  N   N18       1.0  0.56780  0.56411  0.66805  1.0000
  N   N19       1.0  0.06780  0.56411  0.83194  1.0000
  N   N20       1.0  0.43220  0.43589  0.33194  1.0000
  N   N21       1.0  0.88153  0.48954  0.11353  1.0000
  N   N22       1.0  0.61848  0.51046  0.61353  1.0000
  N   N23       1.0  0.11848  0.51046  0.88646  1.0000
  N   N24       1.0  0.38152  0.48954  0.38647  1.0000
  N   N25       1.0  0.20427  0.24269  0.08974  1.0000
  N   N26       1.0  0.29573  0.75731  0.58973  1.0000
  N   N27       1.0  0.79572  0.75731  0.91026  1.0000
  N   N28       1.0  0.70427  0.24270  0.41027  1.0000
