data_image0
_chemical_formula_structural       Zn4H36C28N28
_chemical_formula_sum              "Zn4 H36 C28 N28"
_cell_length_a       6.09247
_cell_length_b       8.52094
_cell_length_c       20.3866
_cell_angle_alpha    90.0003
_cell_angle_beta     90.0001
_cell_angle_gamma    89.3071

_space_group_name_H-M_alt    "P 1"
_space_group_IT_number       1

loop_
  _space_group_symop_operation_xyz
  'x, y, z'

loop_
  _atom_site_type_symbol
  _atom_site_label
  _atom_site_symmetry_multiplicity
  _atom_site_fract_x
  _atom_site_fract_y
  _atom_site_fract_z
  _atom_site_occupancy
  Zn  Zn1       1.0  0.74347  0.94392  0.98154  1.0000
  Zn  Zn2       1.0  0.25653  0.55609  0.48154  1.0000
  Zn  Zn3       1.0  0.25654  0.05609  0.01846  1.0000
  Zn  Zn4       1.0  0.74346  0.44390  0.51846  1.0000
  H   H1        1.0  0.02975  0.67047  0.95775  1.0000
  H   H2        1.0  0.97026  0.82953  0.45775  1.0000
  H   H3        1.0  0.97026  0.32954  0.04225  1.0000
  H   H4        1.0  0.02974  0.17046  0.54225  1.0000
  H   H5        1.0  0.93242  0.53800  0.75627  1.0000
  H   H6        1.0  0.06758  0.96199  0.25627  1.0000
  H   H7        1.0  0.06758  0.46200  0.24374  1.0000
  H   H8        1.0  0.93242  0.03801  0.74373  1.0000
  H   H9        1.0  0.55581  0.90831  0.84832  1.0000
  H   H10       1.0  0.44419  0.59169  0.34832  1.0000
  H   H11       1.0  0.44419  0.09170  0.15168  1.0000
  H   H12       1.0  0.55580  0.40830  0.65167  1.0000
  H   H13       1.0  0.16137  0.40139  0.91272  1.0000
  H   H14       1.0  0.83862  0.09862  0.41272  1.0000
  H   H15       1.0  0.83862  0.59862  0.08729  1.0000
  H   H16       1.0  0.16137  0.90138  0.58729  1.0000
  H   H17       1.0  0.34234  0.51190  0.86386  1.0000
  H   H18       1.0  0.65767  0.98810  0.36386  1.0000
  H   H19       1.0  0.65767  0.48810  0.13615  1.0000
  H   H20       1.0  0.34232  0.01190  0.63615  1.0000
  H   H21       1.0  0.16621  0.37365  0.82612  1.0000
  H   H22       1.0  0.83380  0.12635  0.32612  1.0000
  H   H23       1.0  0.83381  0.62635  0.17388  1.0000
  H   H24       1.0  0.16619  0.87365  0.67388  1.0000
  H   H25       1.0  0.47268  0.66466  0.72509  1.0000
  H   H26       1.0  0.52731  0.83534  0.22509  1.0000
  H   H27       1.0  0.52731  0.33534  0.27490  1.0000
  H   H28       1.0  0.47269  0.16466  0.77490  1.0000
  H   H29       1.0  0.70862  0.74539  0.68797  1.0000
  H   H30       1.0  0.29138  0.75461  0.18797  1.0000
  H   H31       1.0  0.29138  0.25461  0.31203  1.0000
  H   H32       1.0  0.70861  0.24540  0.81203  1.0000
  H   H33       1.0  0.51992  0.86834  0.73118  1.0000
  H   H34       1.0  0.48008  0.63165  0.23117  1.0000
  H   H35       1.0  0.48009  0.13166  0.26882  1.0000
  H   H36       1.0  0.51990  0.36835  0.76882  1.0000
  C   C1        1.0  0.94863  0.68373  0.91032  1.0000
  C   C2        1.0  0.05137  0.81627  0.41032  1.0000
  C   C3        1.0  0.05138  0.31628  0.08968  1.0000
  C   C4        1.0  0.94863  0.18372  0.58968  1.0000
  C   C5        1.0  0.00387  0.58614  0.85763  1.0000
  C   C6        1.0  0.99614  0.91386  0.35763  1.0000
  C   C7        1.0  0.99614  0.41386  0.14237  1.0000
  C   C8        1.0  0.00386  0.08614  0.64237  1.0000
  C   C9        1.0  0.89073  0.61004  0.79885  1.0000
  C   C10       1.0  0.10927  0.88996  0.29885  1.0000
  C   C11       1.0  0.10927  0.38997  0.20115  1.0000
  C   C12       1.0  0.89073  0.11004  0.70115  1.0000
  C   C13       1.0  0.72727  0.72637  0.79347  1.0000
  C   C14       1.0  0.27272  0.77363  0.29347  1.0000
  C   C15       1.0  0.27273  0.27363  0.20653  1.0000
  C   C16       1.0  0.72728  0.22637  0.70653  1.0000
  C   C17       1.0  0.68251  0.81661  0.84906  1.0000
  C   C18       1.0  0.31748  0.68339  0.34906  1.0000
  C   C19       1.0  0.31749  0.18339  0.15094  1.0000
  C   C20       1.0  0.68251  0.31661  0.65094  1.0000
  C   C21       1.0  0.17716  0.46127  0.86530  1.0000
  C   C22       1.0  0.82285  0.03873  0.36530  1.0000
  C   C23       1.0  0.82285  0.53873  0.13470  1.0000
  C   C24       1.0  0.17714  0.96127  0.63470  1.0000
  C   C25       1.0  0.60142  0.75304  0.73119  1.0000
  C   C26       1.0  0.39857  0.74696  0.23119  1.0000
  C   C27       1.0  0.39857  0.24696  0.26881  1.0000
  C   C28       1.0  0.60142  0.25305  0.76881  1.0000
  N   N1        1.0  0.94563  0.91360  0.05855  1.0000
  N   N2        1.0  0.05437  0.58640  0.55855  1.0000
  N   N3        1.0  0.05438  0.08640  0.94145  1.0000
  N   N4        1.0  0.94562  0.41360  0.44145  1.0000
  N   N5        1.0  0.87690  0.94301  0.11293  1.0000
  N   N6        1.0  0.12311  0.55699  0.61294  1.0000
  N   N7        1.0  0.12311  0.05699  0.88706  1.0000
  N   N8        1.0  0.87689  0.44301  0.38706  1.0000
  N   N9        1.0  0.81674  0.97132  0.16583  1.0000
  N   N10       1.0  0.18327  0.52867  0.66583  1.0000
  N   N11       1.0  0.18327  0.02868  0.83417  1.0000
  N   N12       1.0  0.81673  0.47133  0.33417  1.0000
  N   N13       1.0  0.55511  0.13963  0.97535  1.0000
  N   N14       1.0  0.44489  0.36037  0.47535  1.0000
  N   N15       1.0  0.44490  0.86039  0.02465  1.0000
  N   N16       1.0  0.55510  0.63961  0.52465  1.0000
  N   N17       1.0  0.61670  0.27223  0.96486  1.0000
  N   N18       1.0  0.38329  0.22776  0.46486  1.0000
  N   N19       1.0  0.38331  0.72778  0.03514  1.0000
  N   N20       1.0  0.61670  0.77222  0.53515  1.0000
  N   N21       1.0  0.67397  0.39907  0.95483  1.0000
  N   N22       1.0  0.32603  0.10094  0.45483  1.0000
  N   N23       1.0  0.32604  0.60095  0.04517  1.0000
  N   N24       1.0  0.67396  0.89905  0.54517  1.0000
  N   N25       1.0  0.79182  0.79556  0.90603  1.0000
  N   N26       1.0  0.20819  0.70444  0.40603  1.0000
  N   N27       1.0  0.20820  0.20445  0.09397  1.0000
  N   N28       1.0  0.79181  0.29556  0.59397  1.0000
