data_image0
_chemical_formula_structural       Cu4H48C24S6Cl4
_chemical_formula_sum              "Cu4 H48 C24 S6 Cl4"
_cell_length_a       9.74996
_cell_length_b       9.8959
_cell_length_c       9.89595
_cell_angle_alpha    107.442
_cell_angle_beta     102.541
_cell_angle_gamma    102.54

_space_group_name_H-M_alt    "P 1"
_space_group_IT_number       1

loop_
  _space_group_symop_operation_xyz
  'x, y, z'

loop_
  _atom_site_type_symbol
  _atom_site_label
  _atom_site_symmetry_multiplicity
  _atom_site_fract_x
  _atom_site_fract_y
  _atom_site_fract_z
  _atom_site_occupancy
  Cu  Cu1       1.0  0.87658  0.39076  0.97651  1.0000
  Cu  Cu2       1.0  0.62342  0.02350  0.60924  1.0000
  Cu  Cu3       1.0  0.12342  0.60923  0.02350  1.0000
  Cu  Cu4       1.0  0.37657  0.97651  0.39076  1.0000
  H   H1        1.0  0.64726  0.47116  0.77368  1.0000
  H   H2        1.0  0.85274  0.22632  0.52885  1.0000
  H   H3        1.0  0.35275  0.52885  0.22632  1.0000
  H   H4        1.0  0.14727  0.77368  0.47116  1.0000
  H   H5        1.0  0.51200  0.29899  0.64540  1.0000
  H   H6        1.0  0.98800  0.35460  0.70102  1.0000
  H   H7        1.0  0.48800  0.70102  0.35460  1.0000
  H   H8        1.0  0.01201  0.64540  0.29899  1.0000
  H   H9        1.0  0.62750  0.50548  0.53891  1.0000
  H   H10       1.0  0.87250  0.46109  0.49452  1.0000
  H   H11       1.0  0.37251  0.49452  0.46109  1.0000
  H   H12       1.0  0.12751  0.53891  0.50548  1.0000
  H   H13       1.0  0.61358  0.31589  0.44435  1.0000
  H   H14       1.0  0.88641  0.55564  0.68410  1.0000
  H   H15       1.0  0.38642  0.68410  0.55565  1.0000
  H   H16       1.0  0.11359  0.44436  0.31590  1.0000
  H   H17       1.0  0.65927  0.10483  0.13963  1.0000
  H   H18       1.0  0.84074  0.86039  0.89519  1.0000
  H   H19       1.0  0.34072  0.89518  0.86038  1.0000
  H   H20       1.0  0.15925  0.13963  0.10482  1.0000
  H   H21       1.0  0.64550  0.11580  0.95938  1.0000
  H   H22       1.0  0.85451  0.04064  0.88420  1.0000
  H   H23       1.0  0.35451  0.88419  0.04063  1.0000
  H   H24       1.0  0.14549  0.95938  0.11580  1.0000
  H   H25       1.0  0.46542  0.20782  0.16705  1.0000
  H   H26       1.0  0.03458  0.83293  0.79220  1.0000
  H   H27       1.0  0.53456  0.79218  0.83292  1.0000
  H   H28       1.0  0.96541  0.16705  0.20781  1.0000
  H   H29       1.0  0.40554  0.12600  0.96943  1.0000
  H   H30       1.0  0.09447  0.03056  0.87401  1.0000
  H   H31       1.0  0.59447  0.87400  0.03055  1.0000
  H   H32       1.0  0.90553  0.96942  0.12601  1.0000
  H   H33       1.0  0.52746  0.35890  0.94843  1.0000
  H   H34       1.0  0.97256  0.05156  0.64110  1.0000
  H   H35       1.0  0.47256  0.64110  0.05156  1.0000
  H   H36       1.0  0.02746  0.94843  0.35891  1.0000
  H   H37       1.0  0.42434  0.40441  0.07354  1.0000
  H   H38       1.0  0.07567  0.92644  0.59559  1.0000
  H   H39       1.0  0.57566  0.59559  0.92643  1.0000
  H   H40       1.0  0.92433  0.07355  0.40442  1.0000
  H   H41       1.0  0.71083  0.56581  0.16442  1.0000
  H   H42       1.0  0.78918  0.83557  0.43420  1.0000
  H   H43       1.0  0.28918  0.43420  0.83557  1.0000
  H   H44       1.0  0.21083  0.16443  0.56581  1.0000
  H   H45       1.0  0.65013  0.48537  0.28975  1.0000
  H   H46       1.0  0.84987  0.71024  0.51465  1.0000
  H   H47       1.0  0.34986  0.51463  0.71023  1.0000
  H   H48       1.0  0.15012  0.28976  0.48536  1.0000
  C   C1        1.0  0.62498  0.37150  0.67579  1.0000
  C   C2        1.0  0.87502  0.32420  0.62850  1.0000
  C   C3        1.0  0.37502  0.62850  0.32421  1.0000
  C   C4        1.0  0.12499  0.67580  0.37151  1.0000
  C   C5        1.0  0.66604  0.41148  0.54956  1.0000
  C   C6        1.0  0.83396  0.45044  0.58852  1.0000
  C   C7        1.0  0.33396  0.58852  0.45044  1.0000
  C   C8        1.0  0.16605  0.54956  0.41148  1.0000
  C   C9        1.0  0.63988  0.17152  0.07101  1.0000
  C   C10       1.0  0.86013  0.92900  0.82849  1.0000
  C   C11       1.0  0.36012  0.82848  0.92900  1.0000
  C   C12       1.0  0.13987  0.07100  0.17152  1.0000
  C   C13       1.0  0.49487  0.20872  0.06601  1.0000
  C   C14       1.0  0.00514  0.93399  0.79128  1.0000
  C   C15       1.0  0.50512  0.79127  0.93397  1.0000
  C   C16       1.0  0.99486  0.06601  0.20873  1.0000
  C   C17       1.0  0.51782  0.36313  0.05821  1.0000
  C   C18       1.0  0.98219  0.94177  0.63688  1.0000
  C   C19       1.0  0.48219  0.63687  0.94177  1.0000
  C   C20       1.0  0.01781  0.05821  0.36313  1.0000
  C   C21       1.0  0.66171  0.46170  0.17778  1.0000
  C   C22       1.0  0.83829  0.82221  0.53830  1.0000
  C   C23       1.0  0.33828  0.53829  0.82221  1.0000
  C   C24       1.0  0.16171  0.17779  0.46170  1.0000
  S   S1        1.0  0.75000  0.26919  0.73081  1.0000
  S   S2        1.0  0.25000  0.73081  0.26919  1.0000
  S   S3        1.0  0.78891  0.35034  0.15760  1.0000
  S   S4        1.0  0.71110  0.84241  0.64967  1.0000
  S   S5        1.0  0.21109  0.64966  0.84240  1.0000
  S   S6        1.0  0.28890  0.15760  0.35034  1.0000
  Cl  Cl1       1.0  0.10744  0.35214  0.98996  1.0000
  Cl  Cl2       1.0  0.39256  0.01005  0.64786  1.0000
  Cl  Cl3       1.0  0.89255  0.64785  0.01004  1.0000
  Cl  Cl4       1.0  0.60744  0.98996  0.35215  1.0000
