data_image0
_chemical_formula_structural       Cu4H48C24S6Br4
_chemical_formula_sum              "Cu4 H48 C24 S6 Br4"
_cell_length_a       9.89491
_cell_length_b       9.89488
_cell_length_c       10.0289
_cell_angle_alpha    101.264
_cell_angle_beta     101.264
_cell_angle_gamma    109.572

_space_group_name_H-M_alt    "P 1"
_space_group_IT_number       1

loop_
  _space_group_symop_operation_xyz
  'x, y, z'

loop_
  _atom_site_type_symbol
  _atom_site_label
  _atom_site_symmetry_multiplicity
  _atom_site_fract_x
  _atom_site_fract_y
  _atom_site_fract_z
  _atom_site_occupancy
  Cu  Cu1       1.0  0.60242  0.02465  0.62390  1.0000
  Cu  Cu2       1.0  0.97535  0.39758  0.87610  1.0000
  Cu  Cu3       1.0  0.39758  0.97535  0.37609  1.0000
  Cu  Cu4       1.0  0.02465  0.60242  0.12391  1.0000
  H   H1        1.0  0.52025  0.22064  0.84621  1.0000
  H   H2        1.0  0.77936  0.47975  0.65378  1.0000
  H   H3        1.0  0.47975  0.77936  0.15378  1.0000
  H   H4        1.0  0.22064  0.52025  0.34621  1.0000
  H   H5        1.0  0.69148  0.34774  0.97825  1.0000
  H   H6        1.0  0.65225  0.30853  0.52175  1.0000
  H   H7        1.0  0.30852  0.65225  0.02175  1.0000
  H   H8        1.0  0.34775  0.69148  0.47825  1.0000
  H   H9        1.0  0.49332  0.45901  0.86888  1.0000
  H   H10       1.0  0.54098  0.50669  0.63112  1.0000
  H   H11       1.0  0.50668  0.54098  0.13112  1.0000
  H   H12       1.0  0.45901  0.49332  0.36888  1.0000
  H   H13       1.0  0.68593  0.55421  0.87998  1.0000
  H   H14       1.0  0.44579  0.31407  0.62002  1.0000
  H   H15       1.0  0.31407  0.44579  0.12002  1.0000
  H   H16       1.0  0.55421  0.68593  0.37998  1.0000
  H   H17       1.0  0.88078  0.84969  0.80787  1.0000
  H   H18       1.0  0.15031  0.11922  0.69213  1.0000
  H   H19       1.0  0.11922  0.15031  0.19213  1.0000
  H   H20       1.0  0.84968  0.88078  0.30787  1.0000
  H   H21       1.0  0.87524  0.03243  0.83317  1.0000
  H   H22       1.0  0.96757  0.12476  0.66683  1.0000
  H   H23       1.0  0.12476  0.96757  0.16684  1.0000
  H   H24       1.0  0.03242  0.87524  0.33316  1.0000
  H   H25       1.0  0.78225  0.80910  0.00234  1.0000
  H   H26       1.0  0.19090  0.21775  0.49766  1.0000
  H   H27       1.0  0.21775  0.19090  0.99766  1.0000
  H   H28       1.0  0.80910  0.78225  0.50234  1.0000
  H   H29       1.0  0.88579  0.00574  0.06620  1.0000
  H   H30       1.0  0.99426  0.11421  0.43380  1.0000
  H   H31       1.0  0.11421  0.99426  0.93380  1.0000
  H   H32       1.0  0.00574  0.88579  0.56620  1.0000
  H   H33       1.0  0.61045  0.92630  0.07400  1.0000
  H   H34       1.0  0.07370  0.38955  0.42600  1.0000
  H   H35       1.0  0.38955  0.07370  0.92600  1.0000
  H   H36       1.0  0.92630  0.61045  0.57400  1.0000
  H   H37       1.0  0.66237  0.05445  0.97357  1.0000
  H   H38       1.0  0.94554  0.33763  0.52643  1.0000
  H   H39       1.0  0.33763  0.94555  0.02643  1.0000
  H   H40       1.0  0.05446  0.66237  0.47357  1.0000
  H   H41       1.0  0.49751  0.71288  0.85483  1.0000
  H   H42       1.0  0.28712  0.50249  0.64517  1.0000
  H   H43       1.0  0.50249  0.28712  0.14517  1.0000
  H   H44       1.0  0.71289  0.49751  0.35483  1.0000
  H   H45       1.0  0.43293  0.85131  0.80811  1.0000
  H   H46       1.0  0.14869  0.56706  0.69189  1.0000
  H   H47       1.0  0.56706  0.14870  0.19189  1.0000
  H   H48       1.0  0.85131  0.43294  0.30811  1.0000
  C   C1        1.0  0.62247  0.32042  0.86935  1.0000
  C   C2        1.0  0.67957  0.37753  0.63064  1.0000
  C   C3        1.0  0.37753  0.67957  0.13064  1.0000
  C   C4        1.0  0.32043  0.62247  0.36935  1.0000
  C   C5        1.0  0.58747  0.44890  0.83072  1.0000
  C   C6        1.0  0.55110  0.41254  0.66928  1.0000
  C   C7        1.0  0.41253  0.55110  0.16928  1.0000
  C   C8        1.0  0.44890  0.58747  0.33072  1.0000
  C   C9        1.0  0.81831  0.91807  0.83758  1.0000
  C   C10       1.0  0.08193  0.18169  0.66242  1.0000
  C   C11       1.0  0.18169  0.08193  0.16242  1.0000
  C   C12       1.0  0.91807  0.81831  0.33758  1.0000
  C   C13       1.0  0.79165  0.91700  0.98250  1.0000
  C   C14       1.0  0.08300  0.20834  0.51750  1.0000
  C   C15       1.0  0.20835  0.08300  0.01750  1.0000
  C   C16       1.0  0.91700  0.79165  0.48250  1.0000
  C   C17       1.0  0.64627  0.94015  0.97879  1.0000
  C   C18       1.0  0.05985  0.35373  0.52121  1.0000
  C   C19       1.0  0.35373  0.05985  0.02121  1.0000
  C   C20       1.0  0.94016  0.64627  0.47879  1.0000
  C   C21       1.0  0.53202  0.82713  0.84438  1.0000
  C   C22       1.0  0.17287  0.46799  0.65562  1.0000
  C   C23       1.0  0.46798  0.17287  0.15562  1.0000
  C   C24       1.0  0.82713  0.53201  0.34438  1.0000
  S   S1        1.0  0.72886  0.27114  0.75000  1.0000
  S   S2        1.0  0.27114  0.72886  0.25000  1.0000
  S   S3        1.0  0.63170  0.83809  0.70799  1.0000
  S   S4        1.0  0.16191  0.36830  0.79201  1.0000
  S   S5        1.0  0.36830  0.16191  0.29201  1.0000
  S   S6        1.0  0.83809  0.63170  0.20800  1.0000
  Br  Br1       1.0  0.33059  0.97855  0.60243  1.0000
  Br  Br2       1.0  0.02145  0.66941  0.89757  1.0000
  Br  Br3       1.0  0.66941  0.02145  0.39757  1.0000
  Br  Br4       1.0  0.97855  0.33059  0.10243  1.0000
