data_image0
_chemical_formula_structural       Gd2H44C36N2O14
_chemical_formula_sum              "Gd2 H44 C36 N2 O14"
_cell_length_a       8.5652
_cell_length_b       10.3824
_cell_length_c       11.8982
_cell_angle_alpha    66.4325
_cell_angle_beta     75.0487
_cell_angle_gamma    86.0698

_space_group_name_H-M_alt    "P 1"
_space_group_IT_number       1

loop_
  _space_group_symop_operation_xyz
  'x, y, z'

loop_
  _atom_site_type_symbol
  _atom_site_label
  _atom_site_symmetry_multiplicity
  _atom_site_fract_x
  _atom_site_fract_y
  _atom_site_fract_z
  _atom_site_occupancy
  Gd  Gd1       1.0  0.70528  0.58286  0.35821  1.0000
  Gd  Gd2       1.0  0.29472  0.41714  0.64179  1.0000
  H   H1        1.0  0.05160  0.89458  0.42202  1.0000
  H   H2        1.0  0.94840  0.10542  0.57798  1.0000
  H   H3        1.0  0.86095  0.07332  0.23001  1.0000
  H   H4        1.0  0.13906  0.92668  0.76998  1.0000
  H   H5        1.0  0.09923  0.15697  0.35079  1.0000
  H   H6        1.0  0.90077  0.84304  0.64921  1.0000
  H   H7        1.0  0.92728  0.25330  0.30779  1.0000
  H   H8        1.0  0.07272  0.74670  0.69221  1.0000
  H   H9        1.0  0.09415  0.24428  0.18900  1.0000
  H   H10       1.0  0.90585  0.75572  0.81100  1.0000
  H   H11       1.0  0.50225  0.84237  0.98517  1.0000
  H   H12       1.0  0.49775  0.15763  0.01484  1.0000
  H   H13       1.0  0.23800  0.84206  0.21611  1.0000
  H   H14       1.0  0.76200  0.15794  0.78389  1.0000
  H   H15       1.0  0.18102  0.05942  0.02777  1.0000
  H   H16       1.0  0.81898  0.94058  0.97223  1.0000
  H   H17       1.0  0.07551  0.90615  0.05379  1.0000
  H   H18       1.0  0.92449  0.09385  0.94621  1.0000
  H   H19       1.0  0.25509  0.96919  0.92736  1.0000
  H   H20       1.0  0.74491  0.03081  0.07264  1.0000
  H   H21       1.0  0.36606  0.15336  0.48727  1.0000
  H   H22       1.0  0.63394  0.84664  0.51273  1.0000
  H   H23       1.0  0.59847  0.20279  0.22798  1.0000
  H   H24       1.0  0.40153  0.79721  0.77202  1.0000
  H   H25       1.0  0.33804  0.96673  0.41179  1.0000
  H   H26       1.0  0.66196  0.03327  0.58821  1.0000
  H   H27       1.0  0.52155  0.94194  0.31115  1.0000
  H   H28       1.0  0.47845  0.05806  0.68884  1.0000
  H   H29       1.0  0.37036  0.04170  0.24340  1.0000
  H   H30       1.0  0.62964  0.95830  0.75660  1.0000
  H   H31       1.0  0.08504  0.48033  0.36771  1.0000
  H   H32       1.0  0.91496  0.51967  0.63229  1.0000
  H   H33       1.0  0.34601  0.44130  0.24383  1.0000
  H   H34       1.0  0.65399  0.55870  0.75617  1.0000
  H   H35       1.0  0.16320  0.62925  0.90983  1.0000
  H   H36       1.0  0.83680  0.37075  0.09017  1.0000
  H   H37       1.0  0.90275  0.66118  0.05047  1.0000
  H   H38       1.0  0.09725  0.33882  0.94953  1.0000
  H   H39       1.0  0.42346  0.53308  0.88728  1.0000
  H   H40       1.0  0.57654  0.46692  0.11272  1.0000
  H   H41       1.0  0.70690  0.33787  0.59376  1.0000
  H   H42       1.0  0.29310  0.66213  0.40625  1.0000
  H   H43       1.0  0.90033  0.35941  0.53518  1.0000
  H   H44       1.0  0.09967  0.64059  0.46482  1.0000
  C   C1        1.0  0.88509  0.80359  0.35825  1.0000
  C   C2        1.0  0.11491  0.19641  0.64175  1.0000
  C   C3        1.0  0.96904  0.92179  0.36036  1.0000
  C   C4        1.0  0.03096  0.07821  0.63964  1.0000
  C   C5        1.0  0.94480  0.05613  0.28983  1.0000
  C   C6        1.0  0.05520  0.94387  0.71017  1.0000
  C   C7        1.0  0.02097  0.18281  0.28548  1.0000
  C   C8        1.0  0.97903  0.81719  0.71451  1.0000
  C   C9        1.0  0.52879  0.73570  0.17776  1.0000
  C   C10       1.0  0.47121  0.26430  0.82224  1.0000
  C   C11       1.0  0.44025  0.82008  0.08374  1.0000
  C   C12       1.0  0.55975  0.17992  0.91627  1.0000
  C   C13       1.0  0.29295  0.86789  0.11547  1.0000
  C   C14       1.0  0.70705  0.13211  0.88453  1.0000
  C   C15       1.0  0.19743  0.95416  0.02562  1.0000
  C   C16       1.0  0.80258  0.04584  0.97437  1.0000
  C   C17       1.0  0.53731  0.33427  0.38456  1.0000
  C   C18       1.0  0.46269  0.66573  0.61544  1.0000
  C   C19       1.0  0.46150  0.20273  0.40098  1.0000
  C   C20       1.0  0.53850  0.79727  0.59902  1.0000
  C   C21       1.0  0.50290  0.14741  0.31320  1.0000
  C   C22       1.0  0.49710  0.85259  0.68680  1.0000
  C   C23       1.0  0.42850  0.01779  0.32167  1.0000
  C   C24       1.0  0.57150  0.98221  0.67833  1.0000
  C   C25       1.0  0.10522  0.51316  0.26596  1.0000
  C   C26       1.0  0.89478  0.48684  0.73404  1.0000
  C   C27       1.0  0.25283  0.49186  0.19560  1.0000
  C   C28       1.0  0.74717  0.50813  0.80440  1.0000
  C   C29       1.0  0.27897  0.53410  0.06411  1.0000
  C   C30       1.0  0.72104  0.46590  0.93589  1.0000
  C   C31       1.0  0.14985  0.59639  0.01120  1.0000
  C   C32       1.0  0.85015  0.40361  0.98880  1.0000
  C   C33       1.0  0.00531  0.61387  0.08858  1.0000
  C   C34       1.0  0.99469  0.38613  0.91142  1.0000
  C   C35       1.0  0.42986  0.51668  0.98250  1.0000
  C   C36       1.0  0.57014  0.48332  0.01750  1.0000
  N   N1        1.0  0.98109  0.57291  0.21481  1.0000
  N   N2        1.0  0.01891  0.42710  0.78519  1.0000
  O   O1        1.0  0.91602  0.67602  0.42443  1.0000
  O   O2        1.0  0.08398  0.32398  0.57557  1.0000
  O   O3        1.0  0.78069  0.82574  0.29344  1.0000
  O   O4        1.0  0.21931  0.17426  0.70656  1.0000
  O   O5        1.0  0.67084  0.69735  0.14108  1.0000
  O   O6        1.0  0.32916  0.30265  0.85892  1.0000
  O   O7        1.0  0.46636  0.69969  0.29763  1.0000
  O   O8        1.0  0.53364  0.30031  0.70237  1.0000
  O   O9        1.0  0.66367  0.39062  0.29661  1.0000
  O   O10       1.0  0.33634  0.60938  0.70339  1.0000
  O   O11       1.0  0.47156  0.39550  0.46019  1.0000
  O   O12       1.0  0.52844  0.60450  0.53981  1.0000
  O   O13       1.0  0.79396  0.37814  0.51321  1.0000
  O   O14       1.0  0.20604  0.62185  0.48679  1.0000
