data_image0
_chemical_formula_structural       K2Fe2H40C40S8Cl8O4
_chemical_formula_sum              "K2 Fe2 H40 C40 S8 Cl8 O4"
_cell_length_a       8.54619
_cell_length_b       11.947
_cell_length_c       12.757
_cell_angle_alpha    74.2996
_cell_angle_beta     82.7213
_cell_angle_gamma    86.7026

_space_group_name_H-M_alt    "P 1"
_space_group_IT_number       1

loop_
  _space_group_symop_operation_xyz
  'x, y, z'

loop_
  _atom_site_type_symbol
  _atom_site_label
  _atom_site_symmetry_multiplicity
  _atom_site_fract_x
  _atom_site_fract_y
  _atom_site_fract_z
  _atom_site_occupancy
  K   K1        1.0  0.98772  0.94045  0.29850  1.0000
  K   K2        1.0  0.01228  0.05954  0.70150  1.0000
  Fe  Fe1       1.0  0.42377  0.02363  0.39455  1.0000
  Fe  Fe2       1.0  0.57623  0.97637  0.60545  1.0000
  H   H1        1.0  0.12996  0.52467  0.14316  1.0000
  H   H2        1.0  0.87004  0.47532  0.85684  1.0000
  H   H3        1.0  0.95249  0.48088  0.31840  1.0000
  H   H4        1.0  0.04751  0.51912  0.68160  1.0000
  H   H5        1.0  0.77641  0.50730  0.45697  1.0000
  H   H6        1.0  0.22358  0.49269  0.54303  1.0000
  H   H7        1.0  0.59940  0.47519  0.63215  1.0000
  H   H8        1.0  0.40059  0.52482  0.36785  1.0000
  H   H9        1.0  0.20668  0.66343  0.27694  1.0000
  H   H10       1.0  0.79333  0.33656  0.72306  1.0000
  H   H11       1.0  0.35632  0.74135  0.31278  1.0000
  H   H12       1.0  0.64369  0.25864  0.68722  1.0000
  H   H13       1.0  0.51627  0.64600  0.18852  1.0000
  H   H14       1.0  0.48373  0.35400  0.81147  1.0000
  H   H15       1.0  0.36166  0.65830  0.10502  1.0000
  H   H16       1.0  0.63834  0.34170  0.89498  1.0000
  H   H17       1.0  0.51466  0.82708  0.00298  1.0000
  H   H18       1.0  0.48535  0.17293  0.99702  1.0000
  H   H19       1.0  0.56538  0.85189  0.12613  1.0000
  H   H20       1.0  0.43463  0.14811  0.87387  1.0000
  H   H21       1.0  0.34854  0.98429  0.11032  1.0000
  H   H22       1.0  0.65146  0.01571  0.88969  1.0000
  H   H23       1.0  0.25741  0.91544  0.02549  1.0000
  H   H24       1.0  0.74259  0.08456  0.97451  1.0000
  H   H25       1.0  0.10638  0.11097  0.98041  1.0000
  H   H26       1.0  0.89361  0.88904  0.01959  1.0000
  H   H27       1.0  0.16610  0.18090  0.07614  1.0000
  H   H28       1.0  0.83390  0.81911  0.92385  1.0000
  H   H29       1.0  0.07509  0.34963  0.94312  1.0000
  H   H30       1.0  0.92489  0.65038  0.05687  1.0000
  H   H31       1.0  0.92672  0.26854  0.91167  1.0000
  H   H32       1.0  0.07326  0.73146  0.08834  1.0000
  H   H33       1.0  0.91467  0.37509  0.10270  1.0000
  H   H34       1.0  0.08532  0.62491  0.89731  1.0000
  H   H35       1.0  0.75559  0.34190  0.04097  1.0000
  H   H36       1.0  0.24440  0.65811  0.95904  1.0000
  H   H37       1.0  0.89700  0.19842  0.23425  1.0000
  H   H38       1.0  0.10301  0.80158  0.76575  1.0000
  H   H39       1.0  0.72961  0.16323  0.17957  1.0000
  H   H40       1.0  0.27039  0.83677  0.82044  1.0000
  C   C1        1.0  0.26536  0.24870  0.25635  1.0000
  C   C2        1.0  0.73465  0.75130  0.74365  1.0000
  C   C3        1.0  0.24821  0.35726  0.17982  1.0000
  C   C4        1.0  0.75179  0.64274  0.82018  1.0000
  C   C5        1.0  0.13832  0.44051  0.20249  1.0000
  C   C6        1.0  0.86169  0.55949  0.79751  1.0000
  C   C7        1.0  0.03876  0.41577  0.30113  1.0000
  C   C8        1.0  0.96125  0.58424  0.69887  1.0000
  C   C9        1.0  0.05097  0.30800  0.37647  1.0000
  C   C10       1.0  0.94904  0.69199  0.62353  1.0000
  C   C11       1.0  0.16438  0.22352  0.35715  1.0000
  C   C12       1.0  0.83562  0.77648  0.64285  1.0000
  C   C13       1.0  0.59949  0.77864  0.41543  1.0000
  C   C14       1.0  0.40051  0.22136  0.58456  1.0000
  C   C15       1.0  0.69694  0.68504  0.39636  1.0000
  C   C16       1.0  0.30305  0.31496  0.60363  1.0000
  C   C17       1.0  0.69976  0.57787  0.47374  1.0000
  C   C18       1.0  0.30023  0.42213  0.52626  1.0000
  C   C19       1.0  0.60144  0.55959  0.57250  1.0000
  C   C20       1.0  0.39856  0.44040  0.42750  1.0000
  C   C21       1.0  0.50291  0.64979  0.59347  1.0000
  C   C22       1.0  0.49708  0.35022  0.40652  1.0000
  C   C23       1.0  0.50324  0.75988  0.51744  1.0000
  C   C24       1.0  0.49675  0.24013  0.48255  1.0000
  C   C25       1.0  0.29787  0.72925  0.24438  1.0000
  C   C26       1.0  0.70213  0.27074  0.75562  1.0000
  C   C27       1.0  0.41816  0.70216  0.15528  1.0000
  C   C28       1.0  0.58184  0.29784  0.84472  1.0000
  C   C29       1.0  0.47125  0.82394  0.08842  1.0000
  C   C30       1.0  0.52876  0.17606  0.91159  1.0000
  C   C31       1.0  0.32268  0.90019  0.09737  1.0000
  C   C32       1.0  0.67733  0.09981  0.90263  1.0000
  C   C33       1.0  0.06596  0.16664  0.03476  1.0000
  C   C34       1.0  0.93404  0.83337  0.96524  1.0000
  C   C35       1.0  0.98826  0.28135  0.97796  1.0000
  C   C36       1.0  0.01173  0.71866  0.02204  1.0000
  C   C37       1.0  0.86943  0.30915  0.06981  1.0000
  C   C38       1.0  0.13057  0.69085  0.93020  1.0000
  C   C39       1.0  0.85168  0.19267  0.15858  1.0000
  C   C40       1.0  0.14833  0.80733  0.84143  1.0000
  S   S1        1.0  0.40719  0.14438  0.23403  1.0000
  S   S2        1.0  0.59281  0.85562  0.76597  1.0000
  S   S3        1.0  0.19059  0.08922  0.45007  1.0000
  S   S4        1.0  0.80942  0.91078  0.54993  1.0000
  S   S5        1.0  0.59793  0.91421  0.32017  1.0000
  S   S6        1.0  0.40207  0.08579  0.67983  1.0000
  S   S7        1.0  0.39354  0.87897  0.54739  1.0000
  S   S8        1.0  0.60646  0.12103  0.45261  1.0000
  Cl  Cl1       1.0  0.36702  0.39058  0.05573  1.0000
  Cl  Cl2       1.0  0.63298  0.60942  0.94427  1.0000
  Cl  Cl3       1.0  0.92475  0.28157  0.49829  1.0000
  Cl  Cl4       1.0  0.07525  0.71842  0.50170  1.0000
  Cl  Cl5       1.0  0.37745  0.62279  0.71468  1.0000
  Cl  Cl6       1.0  0.62255  0.37722  0.28532  1.0000
  Cl  Cl7       1.0  0.81931  0.70361  0.27316  1.0000
  Cl  Cl8       1.0  0.18069  0.29639  0.72684  1.0000
  O   O1        1.0  0.21938  0.83688  0.19255  1.0000
  O   O2        1.0  0.78062  0.16312  0.80745  1.0000
  O   O3        1.0  0.94291  0.10596  0.11452  1.0000
  O   O4        1.0  0.05710  0.89404  0.88548  1.0000
