data_image0
_chemical_formula_structural       Zn4H48C64S4N8O16
_chemical_formula_sum              "Zn4 H48 C64 S4 N8 O16"
_cell_length_a       8.57639
_cell_length_b       13.4154
_cell_length_c       15.1031
_cell_angle_alpha    91.5065
_cell_angle_beta     90
_cell_angle_gamma    90.0001

_space_group_name_H-M_alt    "P 1"
_space_group_IT_number       1

loop_
  _space_group_symop_operation_xyz
  'x, y, z'

loop_
  _atom_site_type_symbol
  _atom_site_label
  _atom_site_symmetry_multiplicity
  _atom_site_fract_x
  _atom_site_fract_y
  _atom_site_fract_z
  _atom_site_occupancy
  Zn  Zn1       1.0  0.77315  0.25000  0.75000  1.0000
  Zn  Zn2       1.0  0.22684  0.75000  0.25000  1.0000
  Zn  Zn3       1.0  0.78921  0.75000  0.75000  1.0000
  Zn  Zn4       1.0  0.21079  0.25000  0.25000  1.0000
  H   H1        1.0  0.60009  0.29764  0.57693  1.0000
  H   H2        1.0  0.60009  0.20236  0.92307  1.0000
  H   H3        1.0  0.39991  0.70236  0.42307  1.0000
  H   H4        1.0  0.39991  0.79764  0.07693  1.0000
  H   H5        1.0  0.90347  0.97368  0.75765  1.0000
  H   H6        1.0  0.90347  0.52632  0.74235  1.0000
  H   H7        1.0  0.09653  0.02632  0.24235  1.0000
  H   H8        1.0  0.09653  0.47368  0.25765  1.0000
  H   H9        1.0  0.17532  0.81611  0.50353  1.0000
  H   H10       1.0  0.17532  0.68389  0.99647  1.0000
  H   H11       1.0  0.82468  0.18389  0.49647  1.0000
  H   H12       1.0  0.82468  0.31611  0.00353  1.0000
  H   H13       1.0  0.39006  0.21815  0.48372  1.0000
  H   H14       1.0  0.39006  0.28186  0.01628  1.0000
  H   H15       1.0  0.60994  0.78185  0.51628  1.0000
  H   H16       1.0  0.60994  0.71814  0.98372  1.0000
  H   H17       1.0  0.40558  0.96906  0.66257  1.0000
  H   H18       1.0  0.40558  0.53094  0.83743  1.0000
  H   H19       1.0  0.59442  0.03094  0.33743  1.0000
  H   H20       1.0  0.59442  0.46906  0.16257  1.0000
  H   H21       1.0  0.06520  0.08048  0.66209  1.0000
  H   H22       1.0  0.06520  0.41951  0.83791  1.0000
  H   H23       1.0  0.93480  0.91951  0.33791  1.0000
  H   H24       1.0  0.93480  0.58049  0.16209  1.0000
  H   H25       1.0  0.87233  0.50589  0.57395  1.0000
  H   H26       1.0  0.87233  0.99410  0.92605  1.0000
  H   H27       1.0  0.12767  0.49410  0.42605  1.0000
  H   H28       1.0  0.12767  0.00590  0.07395  1.0000
  H   H29       1.0  0.11771  0.34572  0.52287  1.0000
  H   H30       1.0  0.11772  0.15428  0.97713  1.0000
  H   H31       1.0  0.88229  0.65428  0.47713  1.0000
  H   H32       1.0  0.88228  0.84572  0.02287  1.0000
  H   H33       1.0  0.64567  0.56981  0.49517  1.0000
  H   H34       1.0  0.64567  0.93019  0.00483  1.0000
  H   H35       1.0  0.35433  0.43019  0.50483  1.0000
  H   H36       1.0  0.35433  0.06981  0.99517  1.0000
  H   H37       1.0  0.41485  0.52457  0.64560  1.0000
  H   H38       1.0  0.41485  0.97543  0.85441  1.0000
  H   H39       1.0  0.58515  0.47543  0.35440  1.0000
  H   H40       1.0  0.58515  0.02457  0.14560  1.0000
  H   H41       1.0  0.61166  0.05879  0.74528  1.0000
  H   H42       1.0  0.61166  0.44121  0.75472  1.0000
  H   H43       1.0  0.38834  0.94121  0.25472  1.0000
  H   H44       1.0  0.38834  0.55879  0.24528  1.0000
  H   H45       1.0  0.00851  0.71924  0.60626  1.0000
  H   H46       1.0  0.00851  0.78076  0.89374  1.0000
  H   H47       1.0  0.99149  0.28076  0.39374  1.0000
  H   H48       1.0  0.99149  0.21924  0.10626  1.0000
  C   C1        1.0  0.55280  0.22460  0.59270  1.0000
  C   C2        1.0  0.55280  0.27540  0.90730  1.0000
  C   C3        1.0  0.44720  0.77540  0.40730  1.0000
  C   C4        1.0  0.44720  0.72460  0.09270  1.0000
  C   C5        1.0  0.96789  0.94049  0.70197  1.0000
  C   C6        1.0  0.96789  0.55951  0.79803  1.0000
  C   C7        1.0  0.03211  0.05951  0.29803  1.0000
  C   C8        1.0  0.03211  0.44049  0.20197  1.0000
  C   C9        1.0  0.13651  0.95550  0.57621  1.0000
  C   C10       1.0  0.13651  0.54450  0.92379  1.0000
  C   C11       1.0  0.86350  0.04450  0.42379  1.0000
  C   C12       1.0  0.86349  0.45550  0.07621  1.0000
  C   C13       1.0  0.11960  0.85300  0.56016  1.0000
  C   C14       1.0  0.11959  0.64700  0.93984  1.0000
  C   C15       1.0  0.88041  0.14700  0.43984  1.0000
  C   C16       1.0  0.88040  0.35300  0.06016  1.0000
  C   C17       1.0  0.61263  0.62602  0.66686  1.0000
  C   C18       1.0  0.61263  0.87398  0.83314  1.0000
  C   C19       1.0  0.38737  0.37398  0.33314  1.0000
  C   C20       1.0  0.38737  0.12602  0.16686  1.0000
  C   C21       1.0  0.43621  0.18034  0.54132  1.0000
  C   C22       1.0  0.43621  0.31966  0.95868  1.0000
  C   C23       1.0  0.56379  0.81966  0.45868  1.0000
  C   C24       1.0  0.56379  0.68034  0.04132  1.0000
  C   C25       1.0  0.37794  0.08734  0.56655  1.0000
  C   C26       1.0  0.37794  0.41266  0.93345  1.0000
  C   C27       1.0  0.62206  0.91266  0.43345  1.0000
  C   C28       1.0  0.62206  0.58734  0.06655  1.0000
  C   C29       1.0  0.44074  0.04269  0.64145  1.0000
  C   C30       1.0  0.44074  0.45730  0.85855  1.0000
  C   C31       1.0  0.55926  0.95730  0.35854  1.0000
  C   C32       1.0  0.55926  0.54269  0.14145  1.0000
  C   C33       1.0  0.05983  0.00021  0.64905  1.0000
  C   C34       1.0  0.05983  0.49979  0.85095  1.0000
  C   C35       1.0  0.94017  0.99979  0.35095  1.0000
  C   C36       1.0  0.94017  0.50021  0.14905  1.0000
  C   C37       1.0  0.96880  0.47264  0.53620  1.0000
  C   C38       1.0  0.96880  0.02736  0.96380  1.0000
  C   C39       1.0  0.03120  0.52736  0.46380  1.0000
  C   C40       1.0  0.03120  0.97264  0.03620  1.0000
  C   C41       1.0  0.02254  0.38216  0.55929  1.0000
  C   C42       1.0  0.02254  0.11784  0.94070  1.0000
  C   C43       1.0  0.97746  0.61784  0.44071  1.0000
  C   C44       1.0  0.97746  0.88216  0.05929  1.0000
  C   C45       1.0  0.54535  0.53468  0.52635  1.0000
  C   C46       1.0  0.54536  0.96532  0.97365  1.0000
  C   C47       1.0  0.45465  0.46532  0.47365  1.0000
  C   C48       1.0  0.45464  0.03468  0.02635  1.0000
  C   C49       1.0  0.51405  0.55810  0.61212  1.0000
  C   C50       1.0  0.51405  0.94189  0.88788  1.0000
  C   C51       1.0  0.48595  0.44190  0.38788  1.0000
  C   C52       1.0  0.48595  0.05810  0.11212  1.0000
  C   C53       1.0  0.55733  0.09226  0.68812  1.0000
  C   C54       1.0  0.55733  0.40774  0.81188  1.0000
  C   C55       1.0  0.44267  0.90774  0.31188  1.0000
  C   C56       1.0  0.44267  0.59226  0.18812  1.0000
  C   C57       1.0  0.94934  0.32426  0.62998  1.0000
  C   C58       1.0  0.94934  0.17574  0.87002  1.0000
  C   C59       1.0  0.05066  0.67574  0.37002  1.0000
  C   C60       1.0  0.05066  0.82426  0.12998  1.0000
  C   C61       1.0  0.02605  0.79911  0.61683  1.0000
  C   C62       1.0  0.02605  0.70089  0.88317  1.0000
  C   C63       1.0  0.97396  0.20089  0.38317  1.0000
  C   C64       1.0  0.97395  0.29911  0.11683  1.0000
  S   S1        1.0  0.23939  0.02729  0.49880  1.0000
  S   S2        1.0  0.23939  0.47271  0.00120  1.0000
  S   S3        1.0  0.76061  0.97270  0.50120  1.0000
  S   S4        1.0  0.76061  0.52729  0.99880  1.0000
  N   N1        1.0  0.95017  0.84170  0.68605  1.0000
  N   N2        1.0  0.95017  0.65830  0.81395  1.0000
  N   N3        1.0  0.04983  0.15830  0.31395  1.0000
  N   N4        1.0  0.04983  0.34170  0.18605  1.0000
  N   N5        1.0  0.61273  0.18183  0.66502  1.0000
  N   N6        1.0  0.61273  0.31817  0.83498  1.0000
  N   N7        1.0  0.38727  0.81817  0.33498  1.0000
  N   N8        1.0  0.38727  0.68183  0.16502  1.0000
  O   O1        1.0  0.72515  0.67403  0.63021  1.0000
  O   O2        1.0  0.72515  0.82597  0.86979  1.0000
  O   O3        1.0  0.27485  0.32597  0.36979  1.0000
  O   O4        1.0  0.27485  0.17403  0.13021  1.0000
  O   O5        1.0  0.84124  0.36723  0.67791  1.0000
  O   O6        1.0  0.84124  0.13277  0.82209  1.0000
  O   O7        1.0  0.15876  0.63277  0.32209  1.0000
  O   O8        1.0  0.15876  0.86723  0.17791  1.0000
  O   O9        1.0  0.58645  0.63446  0.74943  1.0000
  O   O10       1.0  0.58645  0.86554  0.75057  1.0000
  O   O11       1.0  0.41355  0.36554  0.25057  1.0000
  O   O12       1.0  0.41355  0.13446  0.24943  1.0000
  O   O13       1.0  0.98810  0.23453  0.63985  1.0000
  O   O14       1.0  0.98810  0.26547  0.86015  1.0000
  O   O15       1.0  0.01190  0.76547  0.36015  1.0000
  O   O16       1.0  0.01190  0.73453  0.13985  1.0000
