data_image0
_chemical_formula_structural       Gd6H24C36N18O48
_chemical_formula_sum              "Gd6 H24 C36 N18 O48"
_cell_length_a       7.79314
_cell_length_b       15.7832
_cell_length_c       15.7834
_cell_angle_alpha    120.001
_cell_angle_beta     89.9997
_cell_angle_gamma    90.0003

_space_group_name_H-M_alt    "P 1"
_space_group_IT_number       1

loop_
  _space_group_symop_operation_xyz
  'x, y, z'

loop_
  _atom_site_type_symbol
  _atom_site_label
  _atom_site_symmetry_multiplicity
  _atom_site_fract_x
  _atom_site_fract_y
  _atom_site_fract_z
  _atom_site_occupancy
  Gd  Gd1       1.0  0.24334  0.37194  0.18627  1.0000
  Gd  Gd2       1.0  0.74335  0.62806  0.81372  1.0000
  Gd  Gd3       1.0  0.24333  0.81373  0.18568  1.0000
  Gd  Gd4       1.0  0.24335  0.81433  0.62806  1.0000
  Gd  Gd5       1.0  0.74334  0.18566  0.37194  1.0000
  Gd  Gd6       1.0  0.74334  0.18628  0.81433  1.0000
  H   H1        1.0  0.23894  0.62075  0.24267  1.0000
  H   H2        1.0  0.73895  0.37925  0.75733  1.0000
  H   H3        1.0  0.23895  0.75734  0.37809  1.0000
  H   H4        1.0  0.23896  0.62191  0.37925  1.0000
  H   H5        1.0  0.73897  0.37808  0.62075  1.0000
  H   H6        1.0  0.73895  0.24266  0.62192  1.0000
  H   H7        1.0  0.65122  0.48765  0.97729  1.0000
  H   H8        1.0  0.15121  0.51237  0.02271  1.0000
  H   H9        1.0  0.65123  0.02271  0.51035  1.0000
  H   H10       1.0  0.65122  0.48964  0.51235  1.0000
  H   H11       1.0  0.15122  0.51035  0.48763  1.0000
  H   H12       1.0  0.15123  0.97729  0.48965  1.0000
  H   H13       1.0  0.31206  0.17676  0.04733  1.0000
  H   H14       1.0  0.81210  0.82323  0.95264  1.0000
  H   H15       1.0  0.31206  0.95266  0.12942  1.0000
  H   H16       1.0  0.31211  0.87058  0.82323  1.0000
  H   H17       1.0  0.81211  0.12940  0.17677  1.0000
  H   H18       1.0  0.81206  0.04735  0.87059  1.0000
  H   H19       1.0  0.28247  0.17607  0.14421  1.0000
  H   H20       1.0  0.78248  0.82393  0.85576  1.0000
  H   H21       1.0  0.28245  0.85578  0.03184  1.0000
  H   H22       1.0  0.28246  0.96816  0.82394  1.0000
  H   H23       1.0  0.78244  0.03182  0.17606  1.0000
  H   H24       1.0  0.78245  0.14423  0.96817  1.0000
  C   C1        1.0  0.33867  0.59283  0.18692  1.0000
  C   C2        1.0  0.83868  0.40718  0.81309  1.0000
  C   C3        1.0  0.33868  0.81309  0.40591  1.0000
  C   C4        1.0  0.33868  0.59409  0.40718  1.0000
  C   C5        1.0  0.83870  0.40589  0.59281  1.0000
  C   C6        1.0  0.83869  0.18691  0.59410  1.0000
  C   C7        1.0  0.50283  0.61378  0.07828  1.0000
  C   C8        1.0  0.00284  0.38622  0.92172  1.0000
  C   C9        1.0  0.50283  0.92172  0.53550  1.0000
  C   C10       1.0  0.50283  0.46449  0.38621  1.0000
  C   C11       1.0  0.00284  0.53550  0.61378  1.0000
  C   C12       1.0  0.00284  0.07828  0.46451  1.0000
  C   C13       1.0  0.56462  0.51875  0.03941  1.0000
  C   C14       1.0  0.06462  0.48126  0.96060  1.0000
  C   C15       1.0  0.56462  0.96059  0.47934  1.0000
  C   C16       1.0  0.56463  0.52065  0.48124  1.0000
  C   C17       1.0  0.06462  0.47934  0.51874  1.0000
  C   C18       1.0  0.06463  0.03940  0.52066  1.0000
  C   C19       1.0  0.50282  0.46296  0.07869  1.0000
  C   C20       1.0  0.00283  0.53706  0.92132  1.0000
  C   C21       1.0  0.50285  0.92131  0.38427  1.0000
  C   C22       1.0  0.50283  0.61572  0.53704  1.0000
  C   C23       1.0  0.00283  0.38426  0.46294  1.0000
  C   C24       1.0  0.00283  0.07868  0.61574  1.0000
  C   C25       1.0  0.54385  0.35471  0.03347  1.0000
  C   C26       1.0  0.04384  0.64530  0.96655  1.0000
  C   C27       1.0  0.54384  0.96653  0.32125  1.0000
  C   C28       1.0  0.54386  0.67875  0.64529  1.0000
  C   C29       1.0  0.04383  0.32125  0.35470  1.0000
  C   C30       1.0  0.04384  0.03346  0.67875  1.0000
  C   C31       1.0  0.54435  0.67667  0.03296  1.0000
  C   C32       1.0  0.04438  0.32334  0.96705  1.0000
  C   C33       1.0  0.54439  0.96704  0.64370  1.0000
  C   C34       1.0  0.54436  0.35629  0.32333  1.0000
  C   C35       1.0  0.04438  0.64371  0.67666  1.0000
  C   C36       1.0  0.04440  0.03296  0.35630  1.0000
  N   N1        1.0  0.39008  0.50065  0.15330  1.0000
  N   N2        1.0  0.89009  0.49936  0.84672  1.0000
  N   N3        1.0  0.39010  0.84671  0.34735  1.0000
  N   N4        1.0  0.39009  0.65266  0.49936  1.0000
  N   N5        1.0  0.89010  0.34735  0.50064  1.0000
  N   N6        1.0  0.89010  0.15329  0.65265  1.0000
  N   N7        1.0  0.38967  0.65099  0.15273  1.0000
  N   N8        1.0  0.88968  0.34901  0.84727  1.0000
  N   N9        1.0  0.38968  0.84726  0.49826  1.0000
  N   N10       1.0  0.38968  0.50174  0.34901  1.0000
  N   N11       1.0  0.88968  0.49825  0.65099  1.0000
  N   N12       1.0  0.88969  0.15274  0.50174  1.0000
  N   N13       1.0  0.90459  0.45799  0.22901  1.0000
  N   N14       1.0  0.40459  0.54202  0.77099  1.0000
  N   N15       1.0  0.90459  0.77100  0.22898  1.0000
  N   N16       1.0  0.90460  0.77103  0.54202  1.0000
  N   N17       1.0  0.40460  0.22897  0.45799  1.0000
  N   N18       1.0  0.40460  0.22901  0.77103  1.0000
  O   O1        1.0  0.46914  0.30841  0.06884  1.0000
  O   O2        1.0  0.96911  0.69161  0.93117  1.0000
  O   O3        1.0  0.46914  0.93117  0.23957  1.0000
  O   O4        1.0  0.46912  0.76042  0.69160  1.0000
  O   O5        1.0  0.96913  0.23957  0.30839  1.0000
  O   O6        1.0  0.96913  0.06883  0.76044  1.0000
  O   O7        1.0  0.64644  0.32001  0.96212  1.0000
  O   O8        1.0  0.14642  0.68000  0.03788  1.0000
  O   O9        1.0  0.64644  0.03786  0.35788  1.0000
  O   O10       1.0  0.64645  0.64211  0.67999  1.0000
  O   O11       1.0  0.14641  0.35788  0.32000  1.0000
  O   O12       1.0  0.14644  0.96213  0.64213  1.0000
  O   O13       1.0  0.47131  0.75879  0.06926  1.0000
  O   O14       1.0  0.97132  0.24121  0.93073  1.0000
  O   O15       1.0  0.47133  0.93072  0.68951  1.0000
  O   O16       1.0  0.47131  0.31046  0.24121  1.0000
  O   O17       1.0  0.97132  0.68952  0.75879  1.0000
  O   O18       1.0  0.97134  0.06928  0.31049  1.0000
  O   O19       1.0  0.64537  0.63949  0.96082  1.0000
  O   O20       1.0  0.14539  0.36051  0.03916  1.0000
  O   O21       1.0  0.64537  0.03917  0.67866  1.0000
  O   O22       1.0  0.64536  0.32133  0.36050  1.0000
  O   O23       1.0  0.14539  0.67866  0.63948  1.0000
  O   O24       1.0  0.14539  0.96083  0.32135  1.0000
  O   O25       1.0  0.92269  0.36476  0.18238  1.0000
  O   O26       1.0  0.42271  0.63526  0.81762  1.0000
  O   O27       1.0  0.92269  0.81762  0.18237  1.0000
  O   O28       1.0  0.92271  0.81764  0.63526  1.0000
  O   O29       1.0  0.42271  0.18236  0.36475  1.0000
  O   O30       1.0  0.42271  0.18238  0.81764  1.0000
  O   O31       1.0  0.04594  0.50861  0.25504  1.0000
  O   O32       1.0  0.54594  0.49139  0.74497  1.0000
  O   O33       1.0  0.04593  0.74496  0.25358  1.0000
  O   O34       1.0  0.04595  0.74642  0.49139  1.0000
  O   O35       1.0  0.54595  0.25357  0.50862  1.0000
  O   O36       1.0  0.54594  0.25504  0.74642  1.0000
  O   O37       1.0  0.76301  0.49796  0.24839  1.0000
  O   O38       1.0  0.26301  0.50205  0.75162  1.0000
  O   O39       1.0  0.76301  0.75161  0.24956  1.0000
  O   O40       1.0  0.76300  0.75044  0.50206  1.0000
  O   O41       1.0  0.26302  0.24957  0.49796  1.0000
  O   O42       1.0  0.26301  0.24838  0.75044  1.0000
  O   O43       1.0  0.22582  0.19095  0.09787  1.0000
  O   O44       1.0  0.72584  0.80905  0.90211  1.0000
  O   O45       1.0  0.22580  0.90213  0.09308  1.0000
  O   O46       1.0  0.22583  0.90692  0.80905  1.0000
  O   O47       1.0  0.72583  0.09306  0.19096  1.0000
  O   O48       1.0  0.72581  0.09788  0.90693  1.0000
