data_image0
_chemical_formula_structural       Na4Cu2H20C20O24
_chemical_formula_sum              "Na4 Cu2 H20 C20 O24"
_cell_length_a       6.88509
_cell_length_b       8.92472
_cell_length_c       13.0394
_cell_angle_alpha    86.4929
_cell_angle_beta     80.859
_cell_angle_gamma    67.3458

_space_group_name_H-M_alt    "P 1"
_space_group_IT_number       1

loop_
  _space_group_symop_operation_xyz
  'x, y, z'

loop_
  _atom_site_type_symbol
  _atom_site_label
  _atom_site_symmetry_multiplicity
  _atom_site_fract_x
  _atom_site_fract_y
  _atom_site_fract_z
  _atom_site_occupancy
  Na  Na1       1.0  0.57384  0.20632  0.63054  1.0000
  Na  Na2       1.0  0.21999  0.20621  0.86948  1.0000
  Na  Na3       1.0  0.42616  0.79368  0.36946  1.0000
  Na  Na4       1.0  0.78001  0.79379  0.13052  1.0000
  Cu  Cu1       1.0  0.01132  0.97717  0.75001  1.0000
  Cu  Cu2       1.0  0.98867  0.02284  0.25000  1.0000
  H   H1        1.0  0.98006  0.48829  0.31223  1.0000
  H   H2        1.0  0.53147  0.48863  0.18774  1.0000
  H   H3        1.0  0.01993  0.51171  0.68777  1.0000
  H   H4        1.0  0.46853  0.51137  0.81226  1.0000
  H   H5        1.0  0.66459  0.17101  0.41388  1.0000
  H   H6        1.0  0.16437  0.17105  0.08616  1.0000
  H   H7        1.0  0.33541  0.82899  0.58612  1.0000
  H   H8        1.0  0.83563  0.82896  0.91384  1.0000
  H   H9        1.0  0.44019  0.15403  0.43421  1.0000
  H   H10       1.0  0.40565  0.15420  0.06585  1.0000
  H   H11       1.0  0.55982  0.84597  0.56579  1.0000
  H   H12       1.0  0.59435  0.84580  0.93415  1.0000
  H   H13       1.0  0.32164  0.56357  0.65278  1.0000
  H   H14       1.0  0.11457  0.56365  0.84725  1.0000
  H   H15       1.0  0.67836  0.43643  0.34723  1.0000
  H   H16       1.0  0.88542  0.43635  0.15275  1.0000
  H   H17       1.0  0.53252  0.56952  0.60356  1.0000
  H   H18       1.0  0.89794  0.56932  0.89653  1.0000
  H   H19       1.0  0.46748  0.43047  0.39644  1.0000
  H   H20       1.0  0.10205  0.43068  0.10347  1.0000
  C   C1        1.0  0.97177  0.64748  0.54438  1.0000
  C   C2        1.0  0.38062  0.64733  0.95556  1.0000
  C   C3        1.0  0.02823  0.35252  0.45562  1.0000
  C   C4        1.0  0.61937  0.35267  0.04444  1.0000
  C   C5        1.0  0.95621  0.64093  0.43881  1.0000
  C   C6        1.0  0.40256  0.64103  0.06114  1.0000
  C   C7        1.0  0.04380  0.35907  0.56119  1.0000
  C   C8        1.0  0.59745  0.35897  0.93887  1.0000
  C   C9        1.0  0.98473  0.49345  0.39537  1.0000
  C   C10       1.0  0.52161  0.49367  0.10462  1.0000
  C   C11       1.0  0.01527  0.50655  0.60464  1.0000
  C   C12       1.0  0.47839  0.50632  0.89539  1.0000
  C   C13       1.0  0.92428  0.80419  0.59827  1.0000
  C   C14       1.0  0.27152  0.80393  0.90156  1.0000
  C   C15       1.0  0.07573  0.19581  0.40172  1.0000
  C   C16       1.0  0.72847  0.19607  0.09844  1.0000
  C   C17       1.0  0.91383  0.78520  0.36804  1.0000
  C   C18       1.0  0.30081  0.78538  0.13188  1.0000
  C   C19       1.0  0.08618  0.21479  0.63195  1.0000
  C   C20       1.0  0.69919  0.21463  0.86812  1.0000
  O   O1        1.0  0.74945  0.91923  0.59447  1.0000
  O   O2        1.0  0.33142  0.91901  0.90537  1.0000
  O   O3        1.0  0.25056  0.08077  0.40552  1.0000
  O   O4        1.0  0.66858  0.08098  0.09464  1.0000
  O   O5        1.0  0.07118  0.80209  0.65035  1.0000
  O   O6        1.0  0.12672  0.80179  0.84950  1.0000
  O   O7        1.0  0.92881  0.19791  0.34965  1.0000
  O   O8        1.0  0.87328  0.19820  0.15050  1.0000
  O   O9        1.0  0.76027  0.82670  0.31759  1.0000
  O   O10       1.0  0.41284  0.82679  0.18243  1.0000
  O   O11       1.0  0.23974  0.17329  0.68241  1.0000
  O   O12       1.0  0.58717  0.17321  0.81756  1.0000
  O   O13       1.0  0.04839  0.85527  0.36053  1.0000
  O   O14       1.0  0.09629  0.85553  0.13933  1.0000
  O   O15       1.0  0.95162  0.14474  0.63947  1.0000
  O   O16       1.0  0.90371  0.14448  0.86067  1.0000
  O   O17       1.0  0.52097  0.21742  0.45267  1.0000
  O   O18       1.0  0.26160  0.21744  0.04731  1.0000
  O   O19       1.0  0.47904  0.78258  0.54733  1.0000
  O   O20       1.0  0.73839  0.78256  0.95270  1.0000
  O   O21       1.0  0.47335  0.49474  0.64289  1.0000
  O   O22       1.0  0.03176  0.49469  0.85710  1.0000
  O   O23       1.0  0.52665  0.50525  0.35710  1.0000
  O   O24       1.0  0.96824  0.50531  0.14291  1.0000
