data_image0
_chemical_formula_structural       K4Cu2H16C20O22
_chemical_formula_sum              "K4 Cu2 H16 C20 O22"
_cell_length_a       7.77077
_cell_length_b       10.6604
_cell_length_c       10.6443
_cell_angle_alpha    113.582
_cell_angle_beta     89.8001
_cell_angle_gamma    106.367

_space_group_name_H-M_alt    "P 1"
_space_group_IT_number       1

loop_
  _space_group_symop_operation_xyz
  'x, y, z'

loop_
  _atom_site_type_symbol
  _atom_site_label
  _atom_site_symmetry_multiplicity
  _atom_site_fract_x
  _atom_site_fract_y
  _atom_site_fract_z
  _atom_site_occupancy
  K   K1        1.0  0.83285  0.19394  0.48275  1.0000
  K   K2        1.0  0.16717  0.80605  0.51725  1.0000
  K   K3        1.0  0.81458  0.52787  0.14567  1.0000
  K   K4        1.0  0.18538  0.47211  0.85430  1.0000
  Cu  Cu1       1.0  0.50293  0.23307  0.76200  1.0000
  Cu  Cu2       1.0  0.49707  0.76694  0.23800  1.0000
  H   H1        1.0  0.43752  0.06651  0.07329  1.0000
  H   H2        1.0  0.56248  0.93349  0.92671  1.0000
  H   H3        1.0  0.26522  0.43660  0.46746  1.0000
  H   H4        1.0  0.73479  0.56341  0.53255  1.0000
  H   H5        1.0  0.98834  0.42536  0.32085  1.0000
  H   H6        1.0  0.01164  0.57463  0.67916  1.0000
  H   H7        1.0  0.85618  0.28502  0.21445  1.0000
  H   H8        1.0  0.14379  0.71497  0.78555  1.0000
  H   H9        1.0  0.86265  0.91590  0.21762  1.0000
  H   H10       1.0  0.13736  0.08407  0.78236  1.0000
  H   H11       1.0  0.05542  0.96611  0.29313  1.0000
  H   H12       1.0  0.94459  0.03387  0.70686  1.0000
  H   H13       1.0  0.04743  0.27532  0.98843  1.0000
  H   H14       1.0  0.95256  0.72471  0.01158  1.0000
  H   H15       1.0  0.85116  0.22893  0.91612  1.0000
  H   H16       1.0  0.14883  0.77110  0.08387  1.0000
  C   C1        1.0  0.33206  0.23860  0.39576  1.0000
  C   C2        1.0  0.66796  0.76141  0.60426  1.0000
  C   C3        1.0  0.38042  0.13360  0.28434  1.0000
  C   C4        1.0  0.61959  0.86642  0.71566  1.0000
  C   C5        1.0  0.40200  0.14853  0.16043  1.0000
  C   C6        1.0  0.59801  0.85149  0.83957  1.0000
  C   C7        1.0  0.37350  0.26555  0.14538  1.0000
  C   C8        1.0  0.62649  0.73445  0.85462  1.0000
  C   C9        1.0  0.32192  0.36954  0.25578  1.0000
  C   C10       1.0  0.67808  0.63045  0.74421  1.0000
  C   C11       1.0  0.30110  0.35468  0.38002  1.0000
  C   C12       1.0  0.69890  0.64533  0.61999  1.0000
  C   C13       1.0  0.32261  0.23443  0.53494  1.0000
  C   C14       1.0  0.67741  0.76556  0.46505  1.0000
  C   C15       1.0  0.39174  0.99641  0.28698  1.0000
  C   C16       1.0  0.60829  0.00360  0.71303  1.0000
  C   C17       1.0  0.38927  0.26965  0.00696  1.0000
  C   C18       1.0  0.61072  0.73036  0.99304  1.0000
  C   C19       1.0  0.30559  0.50356  0.24869  1.0000
  C   C20       1.0  0.69438  0.49643  0.75133  1.0000
  O   O1        1.0  0.20721  0.27735  0.60829  1.0000
  O   O2        1.0  0.79280  0.72262  0.39171  1.0000
  O   O3        1.0  0.44694  0.18948  0.56814  1.0000
  O   O4        1.0  0.55310  0.81051  0.43186  1.0000
  O   O5        1.0  0.24724  0.90427  0.28747  1.0000
  O   O6        1.0  0.75277  0.09573  0.71255  1.0000
  O   O7        1.0  0.54627  0.97486  0.27779  1.0000
  O   O8        1.0  0.45379  0.02515  0.72221  1.0000
  O   O9        1.0  0.54215  0.27055  0.96096  1.0000
  O   O10       1.0  0.45781  0.72947  0.03905  1.0000
  O   O11       1.0  0.25283  0.26413  0.93799  1.0000
  O   O12       1.0  0.74716  0.73584  0.06201  1.0000
  O   O13       1.0  0.43041  0.55949  0.18929  1.0000
  O   O14       1.0  0.56955  0.44051  0.81071  1.0000
  O   O15       1.0  0.18221  0.55472  0.30259  1.0000
  O   O16       1.0  0.81777  0.44529  0.69744  1.0000
  O   O17       1.0  0.86856  0.35459  0.31032  1.0000
  O   O18       1.0  0.13143  0.64539  0.68968  1.0000
  O   O19       1.0  0.95001  0.99954  0.28930  1.0000
  O   O20       1.0  0.05000  0.00043  0.71068  1.0000
  O   O21       1.0  0.93131  0.29816  0.00094  1.0000
  O   O22       1.0  0.06868  0.70188  0.99905  1.0000
