data_image0
_chemical_formula_structural       Zn4H32C24N32O20
_chemical_formula_sum              "Zn4 H32 C24 N32 O20"
_cell_length_a       8.52561
_cell_length_b       8.71612
_cell_length_c       15.6513
_cell_angle_alpha    96.0119
_cell_angle_beta     89.9996
_cell_angle_gamma    90

_space_group_name_H-M_alt    "P 1"
_space_group_IT_number       1

loop_
  _space_group_symop_operation_xyz
  'x, y, z'

loop_
  _atom_site_type_symbol
  _atom_site_label
  _atom_site_symmetry_multiplicity
  _atom_site_fract_x
  _atom_site_fract_y
  _atom_site_fract_z
  _atom_site_occupancy
  Zn  Zn1       1.0  0.52777  0.77128  0.21200  1.0000
  Zn  Zn2       1.0  0.02774  0.72872  0.78800  1.0000
  Zn  Zn3       1.0  0.47224  0.22873  0.78800  1.0000
  Zn  Zn4       1.0  0.97225  0.27127  0.21200  1.0000
  H   H1        1.0  0.37068  0.12915  0.20126  1.0000
  H   H2        1.0  0.87067  0.37085  0.79874  1.0000
  H   H3        1.0  0.62931  0.87085  0.79874  1.0000
  H   H4        1.0  0.12932  0.62914  0.20126  1.0000
  H   H5        1.0  0.51868  0.35177  0.01258  1.0000
  H   H6        1.0  0.01868  0.14823  0.98742  1.0000
  H   H7        1.0  0.48132  0.64824  0.98742  1.0000
  H   H8        1.0  0.98131  0.85175  0.01258  1.0000
  H   H9        1.0  0.33694  0.33018  0.06398  1.0000
  H   H10       1.0  0.83694  0.16983  0.93603  1.0000
  H   H11       1.0  0.66306  0.66983  0.93603  1.0000
  H   H12       1.0  0.16305  0.83016  0.06397  1.0000
  H   H13       1.0  0.35870  0.98313  0.53219  1.0000
  H   H14       1.0  0.85869  0.51688  0.46781  1.0000
  H   H15       1.0  0.64132  0.01688  0.46781  1.0000
  H   H16       1.0  0.14131  0.48312  0.53219  1.0000
  H   H17       1.0  0.07520  0.93812  0.33214  1.0000
  H   H18       1.0  0.57516  0.56189  0.66785  1.0000
  H   H19       1.0  0.92481  0.06191  0.66785  1.0000
  H   H20       1.0  0.42483  0.43811  0.33215  1.0000
  H   H21       1.0  0.13688  0.80076  0.40070  1.0000
  H   H22       1.0  0.63687  0.69925  0.59929  1.0000
  H   H23       1.0  0.86311  0.19925  0.59929  1.0000
  H   H24       1.0  0.36312  0.30075  0.40071  1.0000
  H   H25       1.0  0.73995  0.76137  0.33150  1.0000
  H   H26       1.0  0.23993  0.73862  0.66850  1.0000
  H   H27       1.0  0.26006  0.23862  0.66850  1.0000
  H   H28       1.0  0.76007  0.26138  0.33150  1.0000
  H   H29       1.0  0.81482  0.81835  0.24628  1.0000
  H   H30       1.0  0.31480  0.68165  0.75371  1.0000
  H   H31       1.0  0.18518  0.18165  0.75371  1.0000
  H   H32       1.0  0.68520  0.31836  0.24629  1.0000
  C   C1        1.0  0.46224  0.09413  0.15463  1.0000
  C   C2        1.0  0.96223  0.40587  0.84538  1.0000
  C   C3        1.0  0.53776  0.90587  0.84537  1.0000
  C   C4        1.0  0.03777  0.59412  0.15463  1.0000
  C   C5        1.0  0.46454  0.33181  0.07406  1.0000
  C   C6        1.0  0.96453  0.16819  0.92594  1.0000
  C   C7        1.0  0.53547  0.66819  0.92594  1.0000
  C   C8        1.0  0.03546  0.83180  0.07406  1.0000
  C   C9        1.0  0.50583  0.46289  0.14311  1.0000
  C   C10       1.0  0.00582  0.03711  0.85689  1.0000
  C   C11       1.0  0.49417  0.53711  0.85689  1.0000
  C   C12       1.0  0.99418  0.96288  0.14311  1.0000
  C   C13       1.0  0.26310  0.05745  0.51629  1.0000
  C   C14       1.0  0.76309  0.44256  0.48371  1.0000
  C   C15       1.0  0.73692  0.94255  0.48371  1.0000
  C   C16       1.0  0.23691  0.55745  0.51629  1.0000
  C   C17       1.0  0.16860  0.91027  0.37634  1.0000
  C   C18       1.0  0.66858  0.58973  0.62366  1.0000
  C   C19       1.0  0.83141  0.08974  0.62366  1.0000
  C   C20       1.0  0.33142  0.41027  0.37634  1.0000
  C   C21       1.0  0.32181  0.89206  0.32704  1.0000
  C   C22       1.0  0.82179  0.60793  0.67296  1.0000
  C   C23       1.0  0.67819  0.10794  0.67296  1.0000
  C   C24       1.0  0.17821  0.39207  0.32704  1.0000
  N   N1        1.0  0.54384  0.96329  0.14603  1.0000
  N   N2        1.0  0.04383  0.53672  0.85397  1.0000
  N   N3        1.0  0.45616  0.03672  0.85397  1.0000
  N   N4        1.0  0.95616  0.46327  0.14603  1.0000
  N   N5        1.0  0.64800  0.97258  0.08075  1.0000
  N   N6        1.0  0.14799  0.52742  0.91925  1.0000
  N   N7        1.0  0.35200  0.02742  0.91925  1.0000
  N   N8        1.0  0.85201  0.47256  0.08075  1.0000
  N   N9        1.0  0.63190  0.10349  0.04965  1.0000
  N   N10       1.0  0.13189  0.39651  0.95035  1.0000
  N   N11       1.0  0.36810  0.89651  0.95035  1.0000
  N   N12       1.0  0.86810  0.60347  0.04965  1.0000
  N   N13       1.0  0.51498  0.18083  0.09472  1.0000
  N   N14       1.0  0.01497  0.31917  0.90528  1.0000
  N   N15       1.0  0.48502  0.81917  0.90529  1.0000
  N   N16       1.0  0.98502  0.68082  0.09472  1.0000
  N   N17       1.0  0.17131  0.03354  0.44608  1.0000
  N   N18       1.0  0.67129  0.46646  0.55392  1.0000
  N   N19       1.0  0.82870  0.96646  0.55392  1.0000
  N   N20       1.0  0.32870  0.53354  0.44608  1.0000
  N   N21       1.0  0.06477  0.14920  0.44806  1.0000
  N   N22       1.0  0.56476  0.35079  0.55194  1.0000
  N   N23       1.0  0.93524  0.85081  0.55195  1.0000
  N   N24       1.0  0.43524  0.64921  0.44806  1.0000
  N   N25       1.0  0.09123  0.23890  0.51809  1.0000
  N   N26       1.0  0.59122  0.26110  0.48191  1.0000
  N   N27       1.0  0.90879  0.76110  0.48192  1.0000
  N   N28       1.0  0.40878  0.73891  0.51809  1.0000
  N   N29       1.0  0.21397  0.18500  0.56213  1.0000
  N   N30       1.0  0.71396  0.31500  0.43787  1.0000
  N   N31       1.0  0.78605  0.81500  0.43787  1.0000
  N   N32       1.0  0.28604  0.68500  0.56213  1.0000
  O   O1        1.0  0.47977  0.59749  0.11992  1.0000
  O   O2        1.0  0.97975  0.90251  0.88008  1.0000
  O   O3        1.0  0.52023  0.40252  0.88009  1.0000
  O   O4        1.0  0.02025  0.09748  0.11991  1.0000
  O   O5        1.0  0.55534  0.43633  0.21542  1.0000
  O   O6        1.0  0.05532  0.06367  0.78458  1.0000
  O   O7        1.0  0.44466  0.56367  0.78458  1.0000
  O   O8        1.0  0.94467  0.93632  0.21542  1.0000
  O   O9        1.0  0.31824  0.77788  0.26638  1.0000
  O   O10       1.0  0.81823  0.72213  0.73361  1.0000
  O   O11       1.0  0.68175  0.22212  0.73362  1.0000
  O   O12       1.0  0.18177  0.27787  0.26639  1.0000
  O   O13       1.0  0.43583  0.97890  0.34352  1.0000
  O   O14       1.0  0.93579  0.52107  0.65649  1.0000
  O   O15       1.0  0.56417  0.02109  0.65648  1.0000
  O   O16       1.0  0.06420  0.47893  0.34351  1.0000
  O   O17       1.0  0.73322  0.74737  0.26652  1.0000
  O   O18       1.0  0.23320  0.75262  0.73348  1.0000
  O   O19       1.0  0.26678  0.25263  0.73348  1.0000
  O   O20       1.0  0.76679  0.24737  0.26652  1.0000
