data_image0
_chemical_formula_structural       Cu2H26C34S2N2O20
_chemical_formula_sum              "Cu2 H26 C34 S2 N2 O20"
_cell_length_a       7.97275
_cell_length_b       9.72215
_cell_length_c       12.0409
_cell_angle_alpha    83.0052
_cell_angle_beta     74.0566
_cell_angle_gamma    78.6404

_space_group_name_H-M_alt    "P 1"
_space_group_IT_number       1

loop_
  _space_group_symop_operation_xyz
  'x, y, z'

loop_
  _atom_site_type_symbol
  _atom_site_label
  _atom_site_symmetry_multiplicity
  _atom_site_fract_x
  _atom_site_fract_y
  _atom_site_fract_z
  _atom_site_occupancy
  Cu  Cu1       1.0  0.57245  0.44824  0.77728  1.0000
  Cu  Cu2       1.0  0.42756  0.55176  0.22271  1.0000
  H   H1        1.0  0.35241  0.83246  0.66745  1.0000
  H   H2        1.0  0.64758  0.16752  0.33255  1.0000
  H   H3        1.0  0.44615  0.40409  0.61558  1.0000
  H   H4        1.0  0.55386  0.59590  0.38442  1.0000
  H   H5        1.0  0.35071  0.55349  0.65575  1.0000
  H   H6        1.0  0.64930  0.44651  0.34425  1.0000
  H   H7        1.0  0.79779  0.34966  0.89608  1.0000
  H   H8        1.0  0.20222  0.65036  0.10393  1.0000
  H   H9        1.0  0.86169  0.47704  0.79433  1.0000
  H   H10       1.0  0.13831  0.52297  0.20567  1.0000
  H   H11       1.0  0.14525  0.66655  0.49518  1.0000
  H   H12       1.0  0.85474  0.33345  0.50482  1.0000
  H   H13       1.0  0.96620  0.91315  0.21356  1.0000
  H   H14       1.0  0.03378  0.08686  0.78644  1.0000
  H   H15       1.0  0.65564  0.90045  0.32115  1.0000
  H   H16       1.0  0.34436  0.09955  0.67885  1.0000
  H   H17       1.0  0.14116  0.05872  0.30897  1.0000
  H   H18       1.0  0.85883  0.94130  0.69103  1.0000
  H   H19       1.0  0.33592  0.23385  0.21720  1.0000
  H   H20       1.0  0.66409  0.76615  0.78280  1.0000
  H   H21       1.0  0.86810  0.96447  0.98551  1.0000
  H   H22       1.0  0.13192  0.03553  0.01449  1.0000
  H   H23       1.0  0.93874  0.71662  0.93284  1.0000
  H   H24       1.0  0.06126  0.28338  0.06715  1.0000
  H   H25       1.0  0.72221  0.55362  0.02594  1.0000
  H   H26       1.0  0.27778  0.44639  0.97406  1.0000
  C   C1        1.0  0.83121  0.61252  0.62551  1.0000
  C   C2        1.0  0.16879  0.38748  0.37449  1.0000
  C   C3        1.0  0.86294  0.70687  0.51632  1.0000
  C   C4        1.0  0.13706  0.29313  0.48369  1.0000
  C   C5        1.0  0.03714  0.71844  0.45798  1.0000
  C   C6        1.0  0.96285  0.28155  0.54203  1.0000
  C   C7        1.0  0.07225  0.79118  0.34965  1.0000
  C   C8        1.0  0.92774  0.20882  0.65035  1.0000
  C   C9        1.0  0.93723  0.85719  0.29871  1.0000
  C   C10       1.0  0.06276  0.14281  0.70128  1.0000
  C   C11       1.0  0.76282  0.84839  0.35903  1.0000
  C   C12       1.0  0.23719  0.15160  0.64097  1.0000
  C   C13       1.0  0.72391  0.77326  0.46684  1.0000
  C   C14       1.0  0.27610  0.22674  0.53316  1.0000
  C   C15       1.0  0.53436  0.76445  0.52759  1.0000
  C   C16       1.0  0.46564  0.23554  0.47241  1.0000
  C   C17       1.0  0.49832  0.84126  0.15193  1.0000
  C   C18       1.0  0.50168  0.15874  0.84807  1.0000
  C   C19       1.0  0.33226  0.88494  0.23240  1.0000
  C   C20       1.0  0.66774  0.11507  0.76760  1.0000
  C   C21       1.0  0.27102  0.02492  0.25149  1.0000
  C   C22       1.0  0.72898  0.97509  0.74851  1.0000
  C   C23       1.0  0.38161  0.12398  0.19957  1.0000
  C   C24       1.0  0.61839  0.87602  0.80042  1.0000
  C   C25       1.0  0.55079  0.08479  0.13142  1.0000
  C   C26       1.0  0.44921  0.91522  0.86858  1.0000
  C   C27       1.0  0.61225  0.94215  0.10167  1.0000
  C   C28       1.0  0.38775  0.05785  0.89833  1.0000
  C   C29       1.0  0.77669  0.89207  0.02457  1.0000
  C   C30       1.0  0.22331  0.10793  0.97543  1.0000
  C   C31       1.0  0.81638  0.75426  0.99595  1.0000
  C   C32       1.0  0.18361  0.24574  0.00405  1.0000
  C   C33       1.0  0.69694  0.66251  0.04783  1.0000
  C   C34       1.0  0.30305  0.33750  0.95216  1.0000
  S   S1        1.0  0.69335  0.21338  0.10373  1.0000
  S   S2        1.0  0.30666  0.78662  0.89627  1.0000
  N   N1        1.0  0.54556  0.70394  0.12519  1.0000
  N   N2        1.0  0.45443  0.29606  0.87481  1.0000
  O   O1        1.0  0.67681  0.57587  0.65270  1.0000
  O   O2        1.0  0.32320  0.42412  0.34730  1.0000
  O   O3        1.0  0.94878  0.57434  0.67941  1.0000
  O   O4        1.0  0.05121  0.42565  0.32059  1.0000
  O   O5        1.0  0.46808  0.85037  0.61192  1.0000
  O   O6        1.0  0.53192  0.14962  0.38809  1.0000
  O   O7        1.0  0.44660  0.69039  0.49734  1.0000
  O   O8        1.0  0.55341  0.30961  0.50267  1.0000
  O   O9        1.0  0.25000  0.77686  0.28992  1.0000
  O   O10       1.0  0.75000  0.22314  0.71008  1.0000
  O   O11       1.0  0.57829  0.35073  0.11560  1.0000
  O   O12       1.0  0.42172  0.64927  0.88440  1.0000
  O   O13       1.0  0.81241  0.19820  0.98637  1.0000
  O   O14       1.0  0.18759  0.80180  0.01362  1.0000
  O   O15       1.0  0.79120  0.17529  0.19487  1.0000
  O   O16       1.0  0.20881  0.82470  0.80513  1.0000
  O   O17       1.0  0.38517  0.45732  0.68659  1.0000
  O   O18       1.0  0.61483  0.54267  0.31341  1.0000
  O   O19       1.0  0.76204  0.44319  0.85738  1.0000
  O   O20       1.0  0.23797  0.55681  0.14262  1.0000
