data_image0
_chemical_formula_structural       Cd2H26C36N22
_chemical_formula_sum              "Cd2 H26 C36 N22"
_cell_length_a       6.54968
_cell_length_b       11.95
_cell_length_c       11.9499
_cell_angle_alpha    100.515
_cell_angle_beta     91.3459
_cell_angle_gamma    91.3457

_space_group_name_H-M_alt    "P 1"
_space_group_IT_number       1

loop_
  _space_group_symop_operation_xyz
  'x, y, z'

loop_
  _atom_site_type_symbol
  _atom_site_label
  _atom_site_symmetry_multiplicity
  _atom_site_fract_x
  _atom_site_fract_y
  _atom_site_fract_z
  _atom_site_occupancy
  Cd  Cd1       1.0  0.28970  0.03320  0.14018  1.0000
  Cd  Cd2       1.0  0.78969  0.14018  0.03320  1.0000
  H   H1        1.0  0.04976  0.69503  0.31936  1.0000
  H   H2        1.0  0.54976  0.31936  0.69502  1.0000
  H   H3        1.0  0.05898  0.57965  0.47405  1.0000
  H   H4        1.0  0.55899  0.47405  0.57965  1.0000
  H   H5        1.0  0.87935  0.38638  0.43838  1.0000
  H   H6        1.0  0.37935  0.43838  0.38637  1.0000
  H   H7        1.0  0.69480  0.32176  0.25023  1.0000
  H   H8        1.0  0.19480  0.25024  0.32175  1.0000
  H   H9        1.0  0.80925  0.69189  0.02543  1.0000
  H   H10       1.0  0.30924  0.02544  0.69189  1.0000
  H   H11       1.0  0.69283  0.89127  0.08751  1.0000
  H   H12       1.0  0.19282  0.08751  0.89128  1.0000
  H   H13       1.0  0.11263  0.77865  0.15404  1.0000
  H   H14       1.0  0.61262  0.15404  0.77865  1.0000
  H   H15       1.0  0.20769  0.57356  0.09907  1.0000
  H   H16       1.0  0.70768  0.09906  0.57355  1.0000
  H   H17       1.0  0.14479  0.31105  0.84439  1.0000
  H   H18       1.0  0.64476  0.84439  0.31106  1.0000
  H   H19       1.0  0.88197  0.36045  0.70943  1.0000
  H   H20       1.0  0.38196  0.70942  0.36047  1.0000
  H   H21       1.0  0.90817  0.54704  0.64424  1.0000
  H   H22       1.0  0.40821  0.64424  0.54707  1.0000
  H   H23       1.0  0.20182  0.68132  0.71243  1.0000
  H   H24       1.0  0.70189  0.71243  0.68133  1.0000
  H   H25       1.0  0.46906  0.62874  0.83839  1.0000
  H   H26       1.0  0.96912  0.83839  0.62873  1.0000
  C   C1        1.0  0.78880  0.47209  0.18684  1.0000
  C   C2        1.0  0.28879  0.18684  0.47208  1.0000
  C   C3        1.0  0.97623  0.61060  0.30665  1.0000
  C   C4        1.0  0.47623  0.30664  0.61059  1.0000
  C   C5        1.0  0.98074  0.54622  0.39304  1.0000
  C   C6        1.0  0.48075  0.39304  0.54622  1.0000
  C   C7        1.0  0.88141  0.43976  0.37352  1.0000
  C   C8        1.0  0.38141  0.37352  0.43976  1.0000
  C   C9        1.0  0.78109  0.40214  0.26883  1.0000
  C   C10       1.0  0.28109  0.26883  0.40214  1.0000
  C   C11       1.0  0.68329  0.43446  0.07631  1.0000
  C   C12       1.0  0.18328  0.07632  0.43445  1.0000
  C   C13       1.0  0.47527  0.43107  0.92833  1.0000
  C   C14       1.0  0.97528  0.92834  0.43107  1.0000
  C   C15       1.0  0.51584  0.61905  0.05855  1.0000
  C   C16       1.0  0.01582  0.05854  0.61905  1.0000
  C   C17       1.0  0.65525  0.70789  0.05495  1.0000
  C   C18       1.0  0.15524  0.05495  0.70789  1.0000
  C   C19       1.0  0.58922  0.81859  0.08794  1.0000
  C   C20       1.0  0.08921  0.08794  0.81859  1.0000
  C   C21       1.0  0.26487  0.75533  0.12475  1.0000
  C   C22       1.0  0.76486  0.12475  0.75532  1.0000
  C   C23       1.0  0.31780  0.64197  0.09446  1.0000
  C   C24       1.0  0.81779  0.09446  0.64197  1.0000
  C   C25       1.0  0.32454  0.46535  0.84978  1.0000
  C   C26       1.0  0.82455  0.84978  0.46536  1.0000
  C   C27       1.0  0.15724  0.39084  0.81313  1.0000
  C   C28       1.0  0.65726  0.81313  0.39085  1.0000
  C   C29       1.0  0.00972  0.41951  0.73823  1.0000
  C   C30       1.0  0.50972  0.73823  0.41953  1.0000
  C   C31       1.0  0.02574  0.52349  0.70098  1.0000
  C   C32       1.0  0.52577  0.70099  0.52351  1.0000
  C   C33       1.0  0.19076  0.59840  0.73783  1.0000
  C   C34       1.0  0.69082  0.73783  0.59841  1.0000
  C   C35       1.0  0.34094  0.56939  0.81117  1.0000
  C   C36       1.0  0.84098  0.81117  0.56939  1.0000
  N   N1        1.0  0.88420  0.57508  0.20487  1.0000
  N   N2        1.0  0.38419  0.20487  0.57508  1.0000
  N   N3        1.0  0.66552  0.32808  0.01880  1.0000
  N   N4        1.0  0.16552  0.01881  0.32808  1.0000
  N   N5        1.0  0.53704  0.32579  0.92606  1.0000
  N   N6        1.0  0.03705  0.92607  0.32579  1.0000
  N   N7        1.0  0.56884  0.50305  0.01987  1.0000
  N   N8        1.0  0.06883  0.01986  0.50305  1.0000
  N   N9        1.0  0.39784  0.84208  0.12148  1.0000
  N   N10       1.0  0.89783  0.12148  0.84209  1.0000
  N   N11       1.0  0.60660  0.12290  0.20049  1.0000
  N   N12       1.0  0.10660  0.20050  0.12289  1.0000
  N   N13       1.0  0.68231  0.13648  0.29534  1.0000
  N   N14       1.0  0.18230  0.29533  0.13648  1.0000
  N   N15       1.0  0.75512  0.15276  0.38691  1.0000
  N   N16       1.0  0.25512  0.38691  0.15276  1.0000
  N   N17       1.0  0.99004  0.96629  0.03583  1.0000
  N   N18       1.0  0.49004  0.03583  0.96629  1.0000
  N   N19       1.0  0.98675  0.88870  0.95480  1.0000
  N   N20       1.0  0.48674  0.95480  0.88869  1.0000
  N   N21       1.0  0.97835  0.81320  0.87768  1.0000
  N   N22       1.0  0.47835  0.87768  0.81319  1.0000
