data_image0
_chemical_formula_structural       CuH8C16S2N2Cl2F4
_chemical_formula_sum              "Cu1 H8 C16 S2 N2 Cl2 F4"
_cell_length_a       7.62129
_cell_length_b       8.25512
_cell_length_c       10.5587
_cell_angle_alpha    87.4747
_cell_angle_beta     117.343
_cell_angle_gamma    104.822

_space_group_name_H-M_alt    "P 1"
_space_group_IT_number       1

loop_
  _space_group_symop_operation_xyz
  'x, y, z'

loop_
  _atom_site_type_symbol
  _atom_site_label
  _atom_site_symmetry_multiplicity
  _atom_site_fract_x
  _atom_site_fract_y
  _atom_site_fract_z
  _atom_site_occupancy
  Cu  Cu1       1.0  0.99998  1.00000  0.99998  1.0000
  H   H1        1.0  0.59223  0.05399  0.90813  1.0000
  H   H2        1.0  0.40773  0.94606  0.09181  1.0000
  H   H3        1.0  0.45033  0.25551  0.97686  1.0000
  H   H4        1.0  0.54965  0.74453  0.02312  1.0000
  H   H5        1.0  0.70184  0.51149  0.14822  1.0000
  H   H6        1.0  0.29819  0.48853  0.85178  1.0000
  H   H7        1.0  0.07306  0.55097  0.23759  1.0000
  H   H8        1.0  0.92696  0.44900  0.76243  1.0000
  C   C1        1.0  0.69299  0.16378  0.98328  1.0000
  C   C2        1.0  0.30702  0.83627  0.01670  1.0000
  C   C3        1.0  0.61598  0.27720  0.02225  1.0000
  C   C4        1.0  0.38403  0.72286  0.97774  1.0000
  C   C5        1.0  0.75452  0.41668  0.11708  1.0000
  C   C6        1.0  0.24552  0.58336  0.88291  1.0000
  C   C7        1.0  0.96381  0.43880  0.16901  1.0000
  C   C8        1.0  0.03621  0.56120  0.83098  1.0000
  C   C9        1.0  0.02886  0.31654  0.12747  1.0000
  C   C10       1.0  0.97115  0.68346  0.87253  1.0000
  C   C11       1.0  0.40267  0.42439  0.35736  1.0000
  C   C12       1.0  0.59731  0.57553  0.64265  1.0000
  C   C13       1.0  0.55662  0.57657  0.40018  1.0000
  C   C14       1.0  0.44340  0.42339  0.59986  1.0000
  C   C15       1.0  0.34867  0.34870  0.46067  1.0000
  C   C16       1.0  0.65135  0.65126  0.53939  1.0000
  S   S1        1.0  0.28979  0.32985  0.18197  1.0000
  S   S2        1.0  0.71021  0.67010  0.81806  1.0000
  N   N1        1.0  0.10459  0.81859  0.96257  1.0000
  N   N2        1.0  0.89541  0.18144  0.03741  1.0000
  Cl  Cl1       1.0  0.05862  0.14412  0.83036  1.0000
  Cl  Cl2       1.0  0.94135  0.85587  0.16962  1.0000
  F   F1        1.0  0.38627  0.34405  0.69491  1.0000
  F   F2        1.0  0.61372  0.65594  0.30509  1.0000
  F   F3        1.0  0.20382  0.20171  0.42615  1.0000
  F   F4        1.0  0.79614  0.79827  0.57387  1.0000
