data_image0
_chemical_formula_structural       CuH28C20S4N10O4
_chemical_formula_sum              "Cu1 H28 C20 S4 N10 O4"
_cell_length_a       8.69404
_cell_length_b       9.70085
_cell_length_c       9.83194
_cell_angle_alpha    63.1283
_cell_angle_beta     73.4816
_cell_angle_gamma    64.2906

_space_group_name_H-M_alt    "P 1"
_space_group_IT_number       1

loop_
  _space_group_symop_operation_xyz
  'x, y, z'

loop_
  _atom_site_type_symbol
  _atom_site_label
  _atom_site_symmetry_multiplicity
  _atom_site_fract_x
  _atom_site_fract_y
  _atom_site_fract_z
  _atom_site_occupancy
  Cu  Cu1       1.0  1.00000  0.00000  1.00000  1.0000
  H   H1        1.0  0.21719  0.75327  0.86906  1.0000
  H   H2        1.0  0.78281  0.24673  0.13094  1.0000
  H   H3        1.0  0.11863  0.67213  0.04939  1.0000
  H   H4        1.0  0.88137  0.32787  0.95060  1.0000
  H   H5        1.0  0.08741  0.04359  0.19761  1.0000
  H   H6        1.0  0.91259  0.95641  0.80239  1.0000
  H   H7        1.0  0.17165  0.14377  0.02431  1.0000
  H   H8        1.0  0.82835  0.85623  0.97569  1.0000
  H   H9        1.0  0.26682  0.93864  0.11521  1.0000
  H   H10       1.0  0.73318  0.06136  0.88479  1.0000
  H   H11       1.0  0.40998  0.05735  0.37818  1.0000
  H   H12       1.0  0.59002  0.94264  0.62182  1.0000
  H   H13       1.0  0.19893  0.14631  0.32882  1.0000
  H   H14       1.0  0.80108  0.85368  0.67118  1.0000
  H   H15       1.0  0.33499  0.84042  0.37336  1.0000
  H   H16       1.0  0.66502  0.15957  0.62664  1.0000
  H   H17       1.0  0.14893  0.87883  0.50460  1.0000
  H   H18       1.0  0.85108  0.12116  0.49540  1.0000
  H   H19       1.0  0.35536  0.79216  0.56480  1.0000
  H   H20       1.0  0.64465  0.20784  0.43520  1.0000
  H   H21       1.0  0.22677  0.34960  0.05966  1.0000
  H   H22       1.0  0.77323  0.65040  0.94034  1.0000
  H   H23       1.0  0.49352  0.25372  0.17364  1.0000
  H   H24       1.0  0.50648  0.74629  0.82636  1.0000
  H   H25       1.0  0.23447  0.60655  0.28001  1.0000
  H   H26       1.0  0.76552  0.39346  0.71998  1.0000
  H   H27       1.0  0.50211  0.48518  0.60665  1.0000
  H   H28       1.0  0.49788  0.51482  0.39335  1.0000
  C   C1        1.0  0.34803  0.42248  0.82534  1.0000
  C   C2        1.0  0.65196  0.57752  0.17467  1.0000
  C   C3        1.0  0.13183  0.25715  0.72601  1.0000
  C   C4        1.0  0.86816  0.74285  0.27399  1.0000
  C   C5        1.0  0.27925  0.05491  0.42285  1.0000
  C   C6        1.0  0.72076  0.94508  0.57715  1.0000
  C   C7        1.0  0.27886  0.88268  0.46889  1.0000
  C   C8        1.0  0.72115  0.11732  0.53111  1.0000
  C   C9        1.0  0.21568  0.11365  0.55231  1.0000
  C   C10       1.0  0.78433  0.88634  0.44769  1.0000
  C   C11       1.0  0.34630  0.35460  0.98571  1.0000
  C   C12       1.0  0.65369  0.64541  0.01430  1.0000
  C   C13       1.0  0.49505  0.30188  0.04946  1.0000
  C   C14       1.0  0.50495  0.69813  0.95054  1.0000
  C   C15       1.0  0.35278  0.68023  0.04479  1.0000
  C   C16       1.0  0.64722  0.31977  0.95521  1.0000
  C   C17       1.0  0.35167  0.61737  0.20535  1.0000
  C   C18       1.0  0.64832  0.38263  0.79465  1.0000
  C   C19       1.0  0.49993  0.43396  0.73067  1.0000
  C   C20       1.0  0.50006  0.56605  0.26933  1.0000
  S   S1        1.0  0.22874  0.29464  0.53498  1.0000
  S   S2        1.0  0.77127  0.70536  0.46502  1.0000
  S   S3        1.0  0.15560  0.50418  0.74331  1.0000
  S   S4        1.0  0.84440  0.49582  0.25668  1.0000
  N   N1        1.0  0.20616  0.72805  0.98288  1.0000
  N   N2        1.0  0.79384  0.27196  0.01712  1.0000
  N   N3        1.0  0.08904  0.35142  0.80677  1.0000
  N   N4        1.0  0.91095  0.64858  0.19323  1.0000
  N   N5        1.0  0.09925  0.11645  0.78461  1.0000
  N   N6        1.0  0.90075  0.88355  0.21539  1.0000
  N   N7        1.0  0.14532  0.03744  0.68592  1.0000
  N   N8        1.0  0.85469  0.96256  0.31408  1.0000
  N   N9        1.0  0.15206  0.03502  0.09527  1.0000
  N   N10       1.0  0.84795  0.96498  0.90473  1.0000
  O   O1        1.0  0.03062  0.62402  0.80830  1.0000
  O   O2        1.0  0.96937  0.37598  0.19171  1.0000
  O   O3        1.0  0.19708  0.56383  0.57696  1.0000
  O   O4        1.0  0.80292  0.43617  0.42305  1.0000
