data_image0
_chemical_formula_structural       Zn4H32C48N8O16
_chemical_formula_sum              "Zn4 H32 C48 N8 O16"
_cell_length_a       8.31371
_cell_length_b       11.7142
_cell_length_c       12.697
_cell_angle_alpha    90
_cell_angle_beta     89.9998
_cell_angle_gamma    90

_space_group_name_H-M_alt    "P 1"
_space_group_IT_number       1

loop_
  _space_group_symop_operation_xyz
  'x, y, z'

loop_
  _atom_site_type_symbol
  _atom_site_label
  _atom_site_symmetry_multiplicity
  _atom_site_fract_x
  _atom_site_fract_y
  _atom_site_fract_z
  _atom_site_occupancy
  Zn  Zn1       1.0  0.89365  0.42699  0.24706  1.0000
  Zn  Zn2       1.0  0.60636  0.57301  0.74706  1.0000
  Zn  Zn3       1.0  0.10635  0.92699  0.25294  1.0000
  Zn  Zn4       1.0  0.39365  0.07301  0.75294  1.0000
  H   H1        1.0  0.17982  0.34021  0.13929  1.0000
  H   H2        1.0  0.32017  0.65979  0.63929  1.0000
  H   H3        1.0  0.82018  0.84021  0.36072  1.0000
  H   H4        1.0  0.67982  0.15979  0.86072  1.0000
  H   H5        1.0  0.36935  0.40601  0.99653  1.0000
  H   H6        1.0  0.13065  0.59399  0.49653  1.0000
  H   H7        1.0  0.63065  0.90601  0.50347  1.0000
  H   H8        1.0  0.86935  0.09399  0.00348  1.0000
  H   H9        1.0  0.07869  0.70804  0.96391  1.0000
  H   H10       1.0  0.42131  0.29197  0.46391  1.0000
  H   H11       1.0  0.92131  0.20804  0.53609  1.0000
  H   H12       1.0  0.57868  0.79196  0.03609  1.0000
  H   H13       1.0  0.90426  0.63468  0.11099  1.0000
  H   H14       1.0  0.59574  0.36533  0.61099  1.0000
  H   H15       1.0  0.09574  0.13468  0.38901  1.0000
  H   H16       1.0  0.40426  0.86532  0.88901  1.0000
  H   H17       1.0  0.79665  0.58063  0.41866  1.0000
  H   H18       1.0  0.70335  0.41937  0.91865  1.0000
  H   H19       1.0  0.20334  0.08063  0.08135  1.0000
  H   H20       1.0  0.29665  0.91938  0.58135  1.0000
  H   H21       1.0  0.56937  0.71098  0.46226  1.0000
  H   H22       1.0  0.93063  0.28902  0.96226  1.0000
  H   H23       1.0  0.43062  0.21098  0.03774  1.0000
  H   H24       1.0  0.06937  0.78902  0.53774  1.0000
  H   H25       1.0  0.36949  0.63989  0.15642  1.0000
  H   H26       1.0  0.13053  0.36011  0.65643  1.0000
  H   H27       1.0  0.63051  0.13989  0.34358  1.0000
  H   H28       1.0  0.86948  0.86011  0.84358  1.0000
  H   H29       1.0  0.60530  0.50874  0.12374  1.0000
  H   H30       1.0  0.89471  0.49126  0.62374  1.0000
  H   H31       1.0  0.39470  0.00875  0.37626  1.0000
  H   H32       1.0  0.10529  0.99126  0.87626  1.0000
  C   C1        1.0  0.34744  0.60454  0.88393  1.0000
  C   C2        1.0  0.15257  0.39545  0.38393  1.0000
  C   C3        1.0  0.65256  0.10454  0.61607  1.0000
  C   C4        1.0  0.84743  0.89545  0.11608  1.0000
  C   C5        1.0  0.16137  0.42028  0.09730  1.0000
  C   C6        1.0  0.33863  0.57972  0.59730  1.0000
  C   C7        1.0  0.83863  0.92028  0.40270  1.0000
  C   C8        1.0  0.66137  0.07972  0.90270  1.0000
  C   C9        1.0  0.26550  0.45711  0.01895  1.0000
  C   C10       1.0  0.23450  0.54290  0.51895  1.0000
  C   C11       1.0  0.73450  0.95711  0.48105  1.0000
  C   C12       1.0  0.76550  0.04289  0.98105  1.0000
  C   C13       1.0  0.23663  0.56185  0.96956  1.0000
  C   C14       1.0  0.26337  0.43815  0.46956  1.0000
  C   C15       1.0  0.76337  0.06186  0.53044  1.0000
  C   C16       1.0  0.73662  0.93814  0.03044  1.0000
  C   C17       1.0  0.10349  0.62616  0.00116  1.0000
  C   C18       1.0  0.39651  0.37384  0.50115  1.0000
  C   C19       1.0  0.89651  0.12617  0.49885  1.0000
  C   C20       1.0  0.60349  0.87383  0.99885  1.0000
  C   C21       1.0  0.00554  0.58491  0.08127  1.0000
  C   C22       1.0  0.49446  0.41509  0.58127  1.0000
  C   C23       1.0  0.99445  0.08491  0.41873  1.0000
  C   C24       1.0  0.50554  0.91509  0.91873  1.0000
  C   C25       1.0  0.31824  0.76908  0.33217  1.0000
  C   C26       1.0  0.18177  0.23093  0.83217  1.0000
  C   C27       1.0  0.68176  0.26907  0.16783  1.0000
  C   C28       1.0  0.81824  0.73093  0.66783  1.0000
  C   C29       1.0  0.69962  0.59525  0.36267  1.0000
  C   C30       1.0  0.80039  0.40474  0.86267  1.0000
  C   C31       1.0  0.30037  0.09526  0.13734  1.0000
  C   C32       1.0  0.19962  0.90475  0.63734  1.0000
  C   C33       1.0  0.57281  0.66792  0.38644  1.0000
  C   C34       1.0  0.92720  0.33208  0.88644  1.0000
  C   C35       1.0  0.42718  0.16792  0.11356  1.0000
  C   C36       1.0  0.07281  0.83208  0.61356  1.0000
  C   C37       1.0  0.45185  0.68499  0.31184  1.0000
  C   C38       1.0  0.04816  0.31500  0.81184  1.0000
  C   C39       1.0  0.54814  0.18500  0.18816  1.0000
  C   C40       1.0  0.95185  0.81500  0.68816  1.0000
  C   C41       1.0  0.46224  0.62746  0.21570  1.0000
  C   C42       1.0  0.03777  0.37254  0.71571  1.0000
  C   C43       1.0  0.53775  0.12746  0.28430  1.0000
  C   C44       1.0  0.96224  0.87254  0.78430  1.0000
  C   C45       1.0  0.59231  0.55607  0.19715  1.0000
  C   C46       1.0  0.90771  0.44393  0.69716  1.0000
  C   C47       1.0  0.40769  0.05607  0.30285  1.0000
  C   C48       1.0  0.09230  0.94393  0.80285  1.0000
  N   N1        1.0  0.03384  0.48334  0.12805  1.0000
  N   N2        1.0  0.46616  0.51665  0.62805  1.0000
  N   N3        1.0  0.96616  0.98335  0.37195  1.0000
  N   N4        1.0  0.53384  0.01666  0.87195  1.0000
  N   N5        1.0  0.70926  0.54020  0.26952  1.0000
  N   N6        1.0  0.79075  0.45979  0.76952  1.0000
  N   N7        1.0  0.29074  0.04021  0.23048  1.0000
  N   N8        1.0  0.20925  0.95980  0.73048  1.0000
  O   O1        1.0  0.48078  0.54771  0.87651  1.0000
  O   O2        1.0  0.01921  0.45229  0.37651  1.0000
  O   O3        1.0  0.51922  0.04771  0.62349  1.0000
  O   O4        1.0  0.98078  0.95229  0.12349  1.0000
  O   O5        1.0  0.30606  0.68693  0.82786  1.0000
  O   O6        1.0  0.19393  0.31307  0.32786  1.0000
  O   O7        1.0  0.69393  0.18693  0.67214  1.0000
  O   O8        1.0  0.80607  0.81307  0.17214  1.0000
  O   O9        1.0  0.21530  0.77880  0.25595  1.0000
  O   O10       1.0  0.28470  0.22119  0.75596  1.0000
  O   O11       1.0  0.78470  0.27880  0.24405  1.0000
  O   O12       1.0  0.71530  0.72120  0.74404  1.0000
  O   O13       1.0  0.31778  0.82561  0.41566  1.0000
  O   O14       1.0  0.18221  0.17438  0.91567  1.0000
  O   O15       1.0  0.68222  0.32561  0.08434  1.0000
  O   O16       1.0  0.81779  0.67439  0.58433  1.0000
