data_image0
_chemical_formula_structural       Cd2H24C32N4O8
_chemical_formula_sum              "Cd2 H24 C32 N4 O8"
_cell_length_a       7.56488
_cell_length_b       10.3044
_cell_length_c       12.7863
_cell_angle_alpha    111.315
_cell_angle_beta     104.019
_cell_angle_gamma    97.6282

_space_group_name_H-M_alt    "P 1"
_space_group_IT_number       1

loop_
  _space_group_symop_operation_xyz
  'x, y, z'

loop_
  _atom_site_type_symbol
  _atom_site_label
  _atom_site_symmetry_multiplicity
  _atom_site_fract_x
  _atom_site_fract_y
  _atom_site_fract_z
  _atom_site_occupancy
  Cd  Cd1       1.0  0.32629  0.08062  0.21996  1.0000
  Cd  Cd2       1.0  0.60630  0.86066  0.77979  1.0000
  H   H1        1.0  0.07401  0.58855  0.15323  1.0000
  H   H2        1.0  0.42078  0.43582  0.84696  1.0000
  H   H3        1.0  0.02192  0.60953  0.91387  1.0000
  H   H4        1.0  0.60807  0.69613  0.08628  1.0000
  H   H5        1.0  0.67596  0.13330  0.72034  1.0000
  H   H6        1.0  0.45595  0.41312  0.27989  1.0000
  H   H7        1.0  0.88227  0.08547  0.03243  1.0000
  H   H8        1.0  0.34981  0.05345  0.96772  1.0000
  H   H9        1.0  0.02478  0.34591  0.14420  1.0000
  H   H10       1.0  0.38053  0.20209  0.85595  1.0000
  H   H11       1.0  0.81558  0.39732  0.81836  1.0000
  H   H12       1.0  0.49716  0.57927  0.18190  1.0000
  H   H13       1.0  0.89758  0.33650  0.35074  1.0000
  H   H14       1.0  0.04650  0.98565  0.64923  1.0000
  H   H15       1.0  0.01327  0.80557  0.84055  1.0000
  H   H16       1.0  0.67258  0.96470  0.15920  1.0000
  H   H17       1.0  0.19937  0.64360  0.74742  1.0000
  H   H18       1.0  0.95197  0.89617  0.25252  1.0000
  H   H19       1.0  0.76028  0.50223  0.41368  1.0000
  H   H20       1.0  0.84610  0.08826  0.58611  1.0000
  H   H21       1.0  0.58958  0.66953  0.52015  1.0000
  H   H22       1.0  0.56890  0.14898  0.47957  1.0000
  H   H23       1.0  0.24796  0.47711  0.57313  1.0000
  H   H24       1.0  0.17457  0.90388  0.42686  1.0000
  C   C1        1.0  0.15582  0.79595  0.08411  1.0000
  C   C2        1.0  0.57178  0.71217  0.91597  1.0000
  C   C3        1.0  0.02607  0.54833  0.05673  1.0000
  C   C4        1.0  0.46927  0.49206  0.94345  1.0000
  C   C5        1.0  0.05961  0.64240  0.00925  1.0000
  C   C6        1.0  0.55031  0.63357  0.99091  1.0000
  C   C7        1.0  0.75921  0.18541  0.81384  1.0000
  C   C8        1.0  0.44552  0.37187  0.18636  1.0000
  C   C9        1.0  0.93759  0.39546  0.99076  1.0000
  C   C10       1.0  0.44668  0.40511  0.00937  1.0000
  C   C11       1.0  0.87182  0.15765  0.98779  1.0000
  C   C12       1.0  0.38402  0.17024  0.01236  1.0000
  C   C13       1.0  0.95105  0.30430  0.04986  1.0000
  C   C14       1.0  0.40114  0.25485  0.95028  1.0000
  C   C15       1.0  0.83690  0.33230  0.86899  1.0000
  C   C16       1.0  0.46778  0.46363  0.13119  1.0000
  C   C17       1.0  0.15608  0.26559  0.35258  1.0000
  C   C18       1.0  0.30314  0.91287  0.64738  1.0000
  C   C19       1.0  0.04091  0.35812  0.40778  1.0000
  C   C20       1.0  0.13271  0.95017  0.59215  1.0000
  C   C21       1.0  0.95983  0.73562  0.74615  1.0000
  C   C22       1.0  0.71348  0.98925  0.25364  1.0000
  C   C23       1.0  0.06327  0.64439  0.69423  1.0000
  C   C24       1.0  0.86887  0.95001  0.30564  1.0000
  C   C25       1.0  0.99423  0.55630  0.57262  1.0000
  C   C26       1.0  0.92130  0.98349  0.42723  1.0000
  C   C27       1.0  0.82030  0.56602  0.50857  1.0000
  C   C28       1.0  0.81123  0.05714  0.49120  1.0000
  C   C29       1.0  0.72466  0.65886  0.56657  1.0000
  C   C30       1.0  0.65764  0.09197  0.43318  1.0000
  C   C31       1.0  0.10467  0.46182  0.51842  1.0000
  C   C32       1.0  0.08589  0.94328  0.48151  1.0000
  N   N1        1.0  0.77744  0.09864  0.87133  1.0000
  N   N2        1.0  0.40618  0.22760  0.12883  1.0000
  N   N3        1.0  0.79303  0.74257  0.68378  1.0000
  N   N4        1.0  0.60892  0.05844  0.31596  1.0000
  O   O1        1.0  0.19200  0.84332  0.19621  1.0000
  O   O2        1.0  0.49600  0.64736  0.80385  1.0000
  O   O3        1.0  0.19932  0.87520  0.03241  1.0000
  O   O4        1.0  0.66704  0.84307  0.96763  1.0000
  O   O5        1.0  0.07587  0.17959  0.24285  1.0000
  O   O6        1.0  0.33346  0.93758  0.75734  1.0000
  O   O7        1.0  0.32255  0.27281  0.40965  1.0000
  O   O8        1.0  0.41178  0.86203  0.59004  1.0000
