data_image0
_chemical_formula_structural       Mn2H12C24N4O8
_chemical_formula_sum              "Mn2 H12 C24 N4 O8"
_cell_length_a       6.50641
_cell_length_b       8.92512
_cell_length_c       8.78934
_cell_angle_alpha    90.0002
_cell_angle_beta     90
_cell_angle_gamma    90.0001

_space_group_name_H-M_alt    "P 1"
_space_group_IT_number       1

loop_
  _space_group_symop_operation_xyz
  'x, y, z'

loop_
  _atom_site_type_symbol
  _atom_site_label
  _atom_site_symmetry_multiplicity
  _atom_site_fract_x
  _atom_site_fract_y
  _atom_site_fract_z
  _atom_site_occupancy
  Mn  Mn1       1.0  0.99999  0.49999  0.45313  1.0000
  Mn  Mn2       1.0  0.50000  0.00000  0.54687  1.0000
  H   H1        1.0  0.36620  0.44055  0.20971  1.0000
  H   H2        1.0  0.63379  0.55945  0.20971  1.0000
  H   H3        1.0  0.13377  0.94055  0.79029  1.0000
  H   H4        1.0  0.86621  0.05945  0.79029  1.0000
  H   H5        1.0  0.29662  0.98439  0.05605  1.0000
  H   H6        1.0  0.70338  0.01561  0.05606  1.0000
  H   H7        1.0  0.20341  0.48439  0.94394  1.0000
  H   H8        1.0  0.79662  0.51561  0.94393  1.0000
  H   H9        1.0  0.49750  0.22394  0.05327  1.0000
  H   H10       1.0  0.50249  0.77606  0.05328  1.0000
  H   H11       1.0  0.00250  0.72393  0.94672  1.0000
  H   H12       1.0  0.99750  0.27607  0.94671  1.0000
  C   C1        1.0  0.28196  0.33523  0.20128  1.0000
  C   C2        1.0  0.71804  0.66476  0.20127  1.0000
  C   C3        1.0  0.21804  0.83523  0.79874  1.0000
  C   C4        1.0  0.78195  0.16477  0.79874  1.0000
  C   C5        1.0  0.35444  0.21413  0.11666  1.0000
  C   C6        1.0  0.64556  0.78587  0.11666  1.0000
  C   C7        1.0  0.14554  0.71413  0.88334  1.0000
  C   C8        1.0  0.85446  0.28586  0.88334  1.0000
  C   C9        1.0  0.24201  0.08199  0.11820  1.0000
  C   C10       1.0  0.75799  0.91800  0.11821  1.0000
  C   C11       1.0  0.25801  0.58199  0.88181  1.0000
  C   C12       1.0  0.74201  0.41801  0.88180  1.0000
  C   C13       1.0  0.05874  0.07165  0.20168  1.0000
  C   C14       1.0  0.94126  0.92834  0.20168  1.0000
  C   C15       1.0  0.44127  0.57164  0.79834  1.0000
  C   C16       1.0  0.55874  0.42838  0.79834  1.0000
  C   C17       1.0  0.99249  0.20172  0.27788  1.0000
  C   C18       1.0  0.00751  0.79826  0.27788  1.0000
  C   C19       1.0  0.50753  0.70175  0.72211  1.0000
  C   C20       1.0  0.49247  0.29826  0.72211  1.0000
  C   C21       1.0  0.79408  0.21451  0.36696  1.0000
  C   C22       1.0  0.20591  0.78548  0.36695  1.0000
  C   C23       1.0  0.70591  0.71454  0.63305  1.0000
  C   C24       1.0  0.29408  0.28547  0.63305  1.0000
  N   N1        1.0  0.10489  0.32909  0.27763  1.0000
  N   N2        1.0  0.89510  0.67090  0.27763  1.0000
  N   N3        1.0  0.39510  0.82909  0.72237  1.0000
  N   N4        1.0  0.60490  0.17091  0.72237  1.0000
  O   O1        1.0  0.68272  0.09849  0.37762  1.0000
  O   O2        1.0  0.31727  0.90151  0.37763  1.0000
  O   O3        1.0  0.81729  0.59848  0.62237  1.0000
  O   O4        1.0  0.18272  0.40154  0.62238  1.0000
  O   O5        1.0  0.75099  0.34238  0.42192  1.0000
  O   O6        1.0  0.24902  0.65761  0.42192  1.0000
  O   O7        1.0  0.74903  0.84241  0.57807  1.0000
  O   O8        1.0  0.25098  0.15761  0.57807  1.0000
