data_image0
_chemical_formula_structural       K4H20C28S4O4
_chemical_formula_sum              "K4 H20 C28 S4 O4"
_cell_length_a       4.03
_cell_length_b       11.7738
_cell_length_c       15.6741
_cell_angle_alpha    97.5582
_cell_angle_beta     97.3945
_cell_angle_gamma    90.0338

_space_group_name_H-M_alt    "P 1"
_space_group_IT_number       1

loop_
  _space_group_symop_operation_xyz
  'x, y, z'

loop_
  _atom_site_type_symbol
  _atom_site_label
  _atom_site_symmetry_multiplicity
  _atom_site_fract_x
  _atom_site_fract_y
  _atom_site_fract_z
  _atom_site_occupancy
  K   K1        1.0  0.17882  0.63235  0.07827  1.0000
  K   K2        1.0  0.90008  0.13239  0.07829  1.0000
  K   K3        1.0  0.82119  0.36765  0.92172  1.0000
  K   K4        1.0  0.09991  0.86761  0.92170  1.0000
  H   H1        1.0  0.69471  0.74000  0.23057  1.0000
  H   H2        1.0  0.53701  0.23982  0.23078  1.0000
  H   H3        1.0  0.30530  0.26001  0.76943  1.0000
  H   H4        1.0  0.46297  0.76018  0.76922  1.0000
  H   H5        1.0  0.60268  0.67921  0.37080  1.0000
  H   H6        1.0  0.76992  0.17911  0.37101  1.0000
  H   H7        1.0  0.39734  0.32079  0.62920  1.0000
  H   H8        1.0  0.23005  0.82089  0.62899  1.0000
  H   H9        1.0  0.33162  0.81180  0.47861  1.0000
  H   H10       1.0  0.14843  0.31192  0.47884  1.0000
  H   H11       1.0  0.66841  0.18820  0.52140  1.0000
  H   H12       1.0  0.85157  0.68808  0.52116  1.0000
  H   H13       1.0  0.15189  0.00438  0.44306  1.0000
  H   H14       1.0  0.29146  0.50475  0.44344  1.0000
  H   H15       1.0  0.84813  0.99562  0.55695  1.0000
  H   H16       1.0  0.70855  0.49525  0.55656  1.0000
  H   H17       1.0  0.23639  0.06284  0.30021  1.0000
  H   H18       1.0  0.06386  0.56308  0.30052  1.0000
  H   H19       1.0  0.76363  0.93716  0.69979  1.0000
  H   H20       1.0  0.93614  0.43692  0.69948  1.0000
  C   C1        1.0  0.46842  0.90516  0.25581  1.0000
  C   C2        1.0  0.78804  0.40518  0.25605  1.0000
  C   C3        1.0  0.53157  0.09485  0.74419  1.0000
  C   C4        1.0  0.21196  0.59482  0.74395  1.0000
  C   C5        1.0  0.57138  0.79731  0.27657  1.0000
  C   C6        1.0  0.70647  0.29721  0.27675  1.0000
  C   C7        1.0  0.42862  0.20269  0.72343  1.0000
  C   C8        1.0  0.29351  0.70279  0.72325  1.0000
  C   C9        1.0  0.52094  0.76371  0.35608  1.0000
  C   C10       1.0  0.83662  0.26368  0.35628  1.0000
  C   C11       1.0  0.47907  0.23629  0.64392  1.0000
  C   C12       1.0  0.16336  0.73632  0.64372  1.0000
  C   C13       1.0  0.37079  0.83797  0.41637  1.0000
  C   C14       1.0  0.04694  0.33808  0.41660  1.0000
  C   C15       1.0  0.62922  0.16203  0.58363  1.0000
  C   C16       1.0  0.95305  0.66192  0.58339  1.0000
  C   C17       1.0  0.27009  0.94613  0.39650  1.0000
  C   C18       1.0  0.12712  0.44634  0.39680  1.0000
  C   C19       1.0  0.72992  0.05387  0.60351  1.0000
  C   C20       1.0  0.87288  0.55366  0.60320  1.0000
  C   C21       1.0  0.31742  0.97928  0.31684  1.0000
  C   C22       1.0  0.99997  0.47944  0.31713  1.0000
  C   C23       1.0  0.68258  0.02072  0.68316  1.0000
  C   C24       1.0  0.00002  0.52056  0.68287  1.0000
  C   C25       1.0  0.51358  0.94618  0.17139  1.0000
  C   C26       1.0  0.65815  0.44623  0.17165  1.0000
  C   C27       1.0  0.48642  0.05382  0.82861  1.0000
  C   C28       1.0  0.34184  0.55377  0.82835  1.0000
  S   S1        1.0  0.67295  0.85588  0.09068  1.0000
  S   S2        1.0  0.41815  0.35589  0.09088  1.0000
  S   S3        1.0  0.32705  0.14412  0.90932  1.0000
  S   S4        1.0  0.58186  0.64411  0.90912  1.0000
  O   O1        1.0  0.43090  0.04722  0.16153  1.0000
  O   O2        1.0  0.73083  0.54733  0.16187  1.0000
  O   O3        1.0  0.56911  0.95278  0.83847  1.0000
  O   O4        1.0  0.26916  0.45267  0.83813  1.0000
