data_image0
_chemical_formula_structural       K4H28C32S4O8
_chemical_formula_sum              "K4 H28 C32 S4 O8"
_cell_length_a       6.9933
_cell_length_b       8.32134
_cell_length_c       15.1058
_cell_angle_alpha    98.8564
_cell_angle_beta     89.9998
_cell_angle_gamma    89.9997

_space_group_name_H-M_alt    "P 1"
_space_group_IT_number       1

loop_
  _space_group_symop_operation_xyz
  'x, y, z'

loop_
  _atom_site_type_symbol
  _atom_site_label
  _atom_site_symmetry_multiplicity
  _atom_site_fract_x
  _atom_site_fract_y
  _atom_site_fract_z
  _atom_site_occupancy
  K   K1        1.0  0.60842  0.19638  0.93657  1.0000
  K   K2        1.0  0.89158  0.69638  0.93657  1.0000
  K   K3        1.0  0.39158  0.80362  0.06343  1.0000
  K   K4        1.0  0.10843  0.30362  0.06343  1.0000
  H   H1        1.0  0.42866  0.98972  0.42782  1.0000
  H   H2        1.0  0.07133  0.48973  0.42782  1.0000
  H   H3        1.0  0.57133  0.01027  0.57218  1.0000
  H   H4        1.0  0.92867  0.51027  0.57218  1.0000
  H   H5        1.0  0.50476  0.26401  0.50824  1.0000
  H   H6        1.0  0.99523  0.76402  0.50824  1.0000
  H   H7        1.0  0.49523  0.73598  0.49176  1.0000
  H   H8        1.0  0.00478  0.23598  0.49176  1.0000
  H   H9        1.0  0.61031  0.48313  0.42322  1.0000
  H   H10       1.0  0.88969  0.98313  0.42322  1.0000
  H   H11       1.0  0.38968  0.51687  0.57678  1.0000
  H   H12       1.0  0.11032  0.01687  0.57678  1.0000
  H   H13       1.0  0.63837  0.42272  0.25606  1.0000
  H   H14       1.0  0.86163  0.92272  0.25606  1.0000
  H   H15       1.0  0.36162  0.57728  0.74395  1.0000
  H   H16       1.0  0.13837  0.07728  0.74395  1.0000
  H   H17       1.0  0.40135  0.66179  0.24561  1.0000
  H   H18       1.0  0.09865  0.16179  0.24561  1.0000
  H   H19       1.0  0.59864  0.33821  0.75439  1.0000
  H   H20       1.0  0.90135  0.83821  0.75439  1.0000
  H   H21       1.0  0.28714  0.79320  0.33576  1.0000
  H   H22       1.0  0.21285  0.29320  0.33576  1.0000
  H   H23       1.0  0.71286  0.20680  0.66424  1.0000
  H   H24       1.0  0.78714  0.70680  0.66424  1.0000
  H   H25       1.0  0.54025  0.75097  0.33976  1.0000
  H   H26       1.0  0.95974  0.25098  0.33976  1.0000
  H   H27       1.0  0.45974  0.24903  0.66024  1.0000
  H   H28       1.0  0.04025  0.74903  0.66024  1.0000
  C   C1        1.0  0.55926  0.17268  0.24889  1.0000
  C   C2        1.0  0.94074  0.67268  0.24889  1.0000
  C   C3        1.0  0.44073  0.82732  0.75111  1.0000
  C   C4        1.0  0.05927  0.32732  0.75111  1.0000
  C   C5        1.0  0.49884  0.04983  0.29732  1.0000
  C   C6        1.0  0.00116  0.54983  0.29732  1.0000
  C   C7        1.0  0.50115  0.95017  0.70268  1.0000
  C   C8        1.0  0.99885  0.45017  0.70268  1.0000
  C   C9        1.0  0.47892  0.08333  0.39055  1.0000
  C   C10       1.0  0.02108  0.58334  0.39055  1.0000
  C   C11       1.0  0.52108  0.91666  0.60945  1.0000
  C   C12       1.0  0.97892  0.41666  0.60945  1.0000
  C   C13       1.0  0.52004  0.23914  0.43559  1.0000
  C   C14       1.0  0.97996  0.73914  0.43559  1.0000
  C   C15       1.0  0.47995  0.76086  0.56441  1.0000
  C   C16       1.0  0.02005  0.26086  0.56441  1.0000
  C   C17       1.0  0.57731  0.36199  0.38811  1.0000
  C   C18       1.0  0.92269  0.86200  0.38811  1.0000
  C   C19       1.0  0.42268  0.63800  0.61189  1.0000
  C   C20       1.0  0.07732  0.13800  0.61189  1.0000
  C   C21       1.0  0.59451  0.32860  0.29484  1.0000
  C   C22       1.0  0.90549  0.82861  0.29484  1.0000
  C   C23       1.0  0.40548  0.67139  0.70516  1.0000
  C   C24       1.0  0.09452  0.17139  0.70516  1.0000
  C   C25       1.0  0.57907  0.13746  0.14847  1.0000
  C   C26       1.0  0.92093  0.63746  0.14847  1.0000
  C   C27       1.0  0.42093  0.86254  0.85153  1.0000
  C   C28       1.0  0.07907  0.36254  0.85153  1.0000
  C   C29       1.0  0.41869  0.76971  0.29631  1.0000
  C   C30       1.0  0.08131  0.26972  0.29631  1.0000
  C   C31       1.0  0.58131  0.23029  0.70369  1.0000
  C   C32       1.0  0.91869  0.73028  0.70369  1.0000
  S   S1        1.0  0.78764  0.04783  0.10628  1.0000
  S   S2        1.0  0.71237  0.54783  0.10628  1.0000
  S   S3        1.0  0.21236  0.95217  0.89372  1.0000
  S   S4        1.0  0.28764  0.45218  0.89372  1.0000
  O   O1        1.0  0.43996  0.17188  0.10181  1.0000
  O   O2        1.0  0.06005  0.67189  0.10181  1.0000
  O   O3        1.0  0.56004  0.82812  0.89819  1.0000
  O   O4        1.0  0.93996  0.32812  0.89819  1.0000
  O   O5        1.0  0.45914  0.90139  0.24780  1.0000
  O   O6        1.0  0.04085  0.40140  0.24780  1.0000
  O   O7        1.0  0.54085  0.09860  0.75220  1.0000
  O   O8        1.0  0.95914  0.59860  0.75220  1.0000
