data_image0
_chemical_formula_structural       Cu4H40C44N12
_chemical_formula_sum              "Cu4 H40 C44 N12"
_cell_length_a       8.85949
_cell_length_b       8.93588
_cell_length_c       16.4247
_cell_angle_alpha    74.2003
_cell_angle_beta     82.3361
_cell_angle_gamma    60.6042

_space_group_name_H-M_alt    "P 1"
_space_group_IT_number       1

loop_
  _space_group_symop_operation_xyz
  'x, y, z'

loop_
  _atom_site_type_symbol
  _atom_site_label
  _atom_site_symmetry_multiplicity
  _atom_site_fract_x
  _atom_site_fract_y
  _atom_site_fract_z
  _atom_site_occupancy
  Cu  Cu1       1.0  0.34977  0.46694  0.56273  1.0000
  Cu  Cu2       1.0  0.84958  0.02964  0.43730  1.0000
  Cu  Cu3       1.0  0.28634  0.38919  0.06751  1.0000
  Cu  Cu4       1.0  0.78633  0.45673  0.93244  1.0000
  H   H1        1.0  0.02080  0.47936  0.64334  1.0000
  H   H2        1.0  0.52067  0.12316  0.35643  1.0000
  H   H3        1.0  0.84045  0.33099  0.65207  1.0000
  H   H4        1.0  0.34008  0.98382  0.34760  1.0000
  H   H5        1.0  0.96286  0.06094  0.59188  1.0000
  H   H6        1.0  0.46220  0.65354  0.40795  1.0000
  H   H7        1.0  0.26248  0.94538  0.53444  1.0000
  H   H8        1.0  0.76170  0.48027  0.46560  1.0000
  H   H9        1.0  0.42558  0.11322  0.52979  1.0000
  H   H10       1.0  0.92512  0.64317  0.47027  1.0000
  H   H11       1.0  0.21040  0.61481  0.71531  1.0000
  H   H12       1.0  0.71042  0.33011  0.28487  1.0000
  H   H13       1.0  0.26007  0.50114  0.87340  1.0000
  H   H14       1.0  0.75970  0.37467  0.12673  1.0000
  H   H15       1.0  0.52327  0.21891  0.92730  1.0000
  H   H16       1.0  0.02274  0.14638  0.07285  1.0000
  H   H17       1.0  0.72644  0.04977  0.82271  1.0000
  H   H18       1.0  0.22617  0.87257  0.17739  1.0000
  H   H19       1.0  0.65242  0.17740  0.66791  1.0000
  H   H20       1.0  0.15246  0.84517  0.33222  1.0000
  H   H21       1.0  0.07995  0.32686  0.21882  1.0000
  H   H22       1.0  0.57966  0.54597  0.78116  1.0000
  H   H23       1.0  0.04431  0.34549  0.36990  1.0000
  H   H24       1.0  0.54406  0.71550  0.63000  1.0000
  H   H25       1.0  0.21578  0.45983  0.42294  1.0000
  H   H26       1.0  0.71582  0.88261  0.57686  1.0000
  H   H27       1.0  0.41216  0.54467  0.32201  1.0000
  H   H28       1.0  0.91231  0.86647  0.67775  1.0000
  H   H29       1.0  0.42859  0.52124  0.17116  1.0000
  H   H30       1.0  0.92874  0.69224  0.82866  1.0000
  H   H31       1.0  0.59951  0.12148  0.17852  1.0000
  H   H32       1.0  0.09970  0.29997  0.82166  1.0000
  H   H33       1.0  0.83470  0.80953  0.19167  1.0000
  H   H34       1.0  0.33491  0.00115  0.80853  1.0000
  H   H35       1.0  0.80995  0.62531  0.10687  1.0000
  H   H36       1.0  0.31015  0.73204  0.89330  1.0000
  H   H37       1.0  0.54444  0.75816  0.01887  1.0000
  H   H38       1.0  0.04464  0.77678  0.98120  1.0000
  H   H39       1.0  0.31798  0.07315  0.01497  1.0000
  H   H40       1.0  0.81816  0.08790  0.98508  1.0000
  C   C1        1.0  0.67611  0.21620  0.47886  1.0000
  C   C2        1.0  0.17623  0.69508  0.52117  1.0000
  C   C3        1.0  0.07027  0.35929  0.62090  1.0000
  C   C4        1.0  0.57000  0.98065  0.37889  1.0000
  C   C5        1.0  0.97041  0.27617  0.62539  1.0000
  C   C6        1.0  0.47002  0.90218  0.37434  1.0000
  C   C7        1.0  0.03890  0.12567  0.59359  1.0000
  C   C8        1.0  0.53835  0.71987  0.40623  1.0000
  C   C9        1.0  0.20592  0.06235  0.55991  1.0000
  C   C10       1.0  0.70532  0.62272  0.44005  1.0000
  C   C11       1.0  0.29650  0.15407  0.55758  1.0000
  C   C12       1.0  0.79604  0.71194  0.44242  1.0000
  C   C13       1.0  0.32220  0.48957  0.74247  1.0000
  C   C14       1.0  0.82214  0.23207  0.25768  1.0000
  C   C15       1.0  0.35059  0.42750  0.82935  1.0000
  C   C16       1.0  0.85029  0.25695  0.17080  1.0000
  C   C17       1.0  0.49772  0.26749  0.85964  1.0000
  C   C18       1.0  0.99733  0.12724  0.14051  1.0000
  C   C19       1.0  0.60993  0.17497  0.80179  1.0000
  C   C20       1.0  0.10971  0.97680  0.19834  1.0000
  C   C21       1.0  0.57083  0.24547  0.71589  1.0000
  C   C22       1.0  0.07080  0.96128  0.28425  1.0000
  C   C23       1.0  0.59081  0.45952  0.99011  1.0000
  C   C24       1.0  0.09071  0.44972  0.00984  1.0000
  C   C25       1.0  0.14972  0.37606  0.24439  1.0000
  C   C26       1.0  0.64960  0.62053  0.75551  1.0000
  C   C27       1.0  0.13050  0.38719  0.32842  1.0000
  C   C28       1.0  0.63041  0.71559  0.67144  1.0000
  C   C29       1.0  0.22462  0.44975  0.35760  1.0000
  C   C30       1.0  0.72467  0.80718  0.64221  1.0000
  C   C31       1.0  0.33417  0.49845  0.30114  1.0000
  C   C32       1.0  0.83431  0.79938  0.69865  1.0000
  C   C33       1.0  0.34511  0.48460  0.21796  1.0000
  C   C34       1.0  0.84522  0.70240  0.78186  1.0000
  C   C35       1.0  0.59089  0.03560  0.14523  1.0000
  C   C36       1.0  0.09113  0.18074  0.85493  1.0000
  C   C37       1.0  0.72214  0.86187  0.15193  1.0000
  C   C38       1.0  0.22238  0.01372  0.84824  1.0000
  C   C39       1.0  0.70742  0.75944  0.10585  1.0000
  C   C40       1.0  0.20765  0.86517  0.89431  1.0000
  C   C41       1.0  0.56001  0.83406  0.05600  1.0000
  C   C42       1.0  0.06022  0.88987  0.94410  1.0000
  C   C43       1.0  0.43451  0.00825  0.05365  1.0000
  C   C44       1.0  0.93470  0.06174  0.94644  1.0000
  N   N1        1.0  0.55755  0.32544  0.50779  1.0000
  N   N2        1.0  0.05745  0.83318  0.49229  1.0000
  N   N3        1.0  0.23012  0.30124  0.58681  1.0000
  N   N4        1.0  0.72980  0.88834  0.41311  1.0000
  N   N5        1.0  0.42965  0.40039  0.68611  1.0000
  N   N6        1.0  0.92970  0.08645  0.31403  1.0000
  N   N7        1.0  0.46872  0.45136  0.02525  1.0000
  N   N8        1.0  0.96857  0.47678  0.97473  1.0000
  N   N9        1.0  0.25470  0.42403  0.18948  1.0000
  N   N10       1.0  0.75468  0.61351  0.81041  1.0000
  N   N11       1.0  0.44939  0.10917  0.09666  1.0000
  N   N12       1.0  0.94960  0.20570  0.90346  1.0000
