data_image0
_chemical_formula_structural       CuH14PdC16N6O2
_chemical_formula_sum              "Cu1 H14 Pd1 C16 N6 O2"
_cell_length_a       7.37575
_cell_length_b       7.89786
_cell_length_c       8.89357
_cell_angle_alpha    106.285
_cell_angle_beta     100.43
_cell_angle_gamma    110.73

_space_group_name_H-M_alt    "P 1"
_space_group_IT_number       1

loop_
  _space_group_symop_operation_xyz
  'x, y, z'

loop_
  _atom_site_type_symbol
  _atom_site_label
  _atom_site_symmetry_multiplicity
  _atom_site_fract_x
  _atom_site_fract_y
  _atom_site_fract_z
  _atom_site_occupancy
  Cu  Cu1       1.0  1.00000  0.49999  0.50000  1.0000
  H   H1        1.0  0.69218  0.48420  0.22528  1.0000
  H   H2        1.0  0.30782  0.51580  0.77472  1.0000
  H   H3        1.0  0.90334  0.52343  0.08470  1.0000
  H   H4        1.0  0.09666  0.47657  0.91530  1.0000
  H   H5        1.0  0.94801  0.76944  0.17928  1.0000
  H   H6        1.0  0.05198  0.23056  0.82072  1.0000
  H   H7        1.0  0.28685  0.83039  0.12436  1.0000
  H   H8        1.0  0.71315  0.16962  0.87565  1.0000
  H   H9        1.0  0.64973  0.91054  0.25974  1.0000
  H   H10       1.0  0.35027  0.08948  0.74027  1.0000
  H   H11       1.0  0.73325  0.82078  0.50600  1.0000
  H   H12       1.0  0.26675  0.17922  0.49400  1.0000
  H   H13       1.0  0.44879  0.65880  0.60523  1.0000
  H   H14       1.0  0.55121  0.34117  0.39476  1.0000
  Pd  Pd1       1.0  0.00001  0.00001  1.00000  1.0000
  C   C1        1.0  0.02894  0.83620  0.80061  1.0000
  C   C2        1.0  0.97108  0.16382  0.19939  1.0000
  C   C3        1.0  0.29057  0.18872  0.06841  1.0000
  C   C4        1.0  0.70944  0.81128  0.93159  1.0000
  C   C5        1.0  0.95549  0.64281  0.20595  1.0000
  C   C6        1.0  0.04451  0.35719  0.79405  1.0000
  C   C7        1.0  0.17602  0.69727  0.29031  1.0000
  C   C8        1.0  0.82398  0.30272  0.70969  1.0000
  C   C9        1.0  0.32828  0.79197  0.23007  1.0000
  C   C10       1.0  0.67171  0.20804  0.76994  1.0000
  C   C11       1.0  0.53051  0.83759  0.30628  1.0000
  C   C12       1.0  0.46948  0.16242  0.69373  1.0000
  C   C13       1.0  0.57756  0.78992  0.44344  1.0000
  C   C14       1.0  0.42244  0.21009  0.55656  1.0000
  C   C15       1.0  0.41970  0.69741  0.49794  1.0000
  C   C16       1.0  0.58030  0.30258  0.50205  1.0000
  N   N1        1.0  0.04125  0.73528  0.68208  1.0000
  N   N2        1.0  0.95875  0.26471  0.31790  1.0000
  N   N3        1.0  0.46116  0.30207  0.10976  1.0000
  N   N4        1.0  0.53885  0.69793  0.89024  1.0000
  N   N5        1.0  0.22375  0.65214  0.42257  1.0000
  N   N6        1.0  0.77625  0.34785  0.57743  1.0000
  O   O1        1.0  0.82939  0.58827  0.30197  1.0000
  O   O2        1.0  0.17062  0.41173  0.69804  1.0000
