data_image0
_chemical_formula_structural       Hg4H40C40N8Cl8O8
_chemical_formula_sum              "Hg4 H40 C40 N8 Cl8 O8"
_cell_length_a       8.12961
_cell_length_b       10.3115
_cell_length_c       14.8171
_cell_angle_alpha    89.9999
_cell_angle_beta     89.0458
_cell_angle_gamma    89.9998

_space_group_name_H-M_alt    "P 1"
_space_group_IT_number       1

loop_
  _space_group_symop_operation_xyz
  'x, y, z'

loop_
  _atom_site_type_symbol
  _atom_site_label
  _atom_site_symmetry_multiplicity
  _atom_site_fract_x
  _atom_site_fract_y
  _atom_site_fract_z
  _atom_site_occupancy
  Hg  Hg1       1.0  0.75000  0.94067  0.50000  1.0000
  Hg  Hg2       1.0  0.25000  0.05934  0.50000  1.0000
  Hg  Hg3       1.0  0.99999  0.50000  0.50000  1.0000
  Hg  Hg4       1.0  0.50000  0.50000  0.50000  1.0000
  H   H1        1.0  0.08637  0.54625  0.94549  1.0000
  H   H2        1.0  0.41363  0.54625  0.05451  1.0000
  H   H3        1.0  0.91364  0.45374  0.05451  1.0000
  H   H4        1.0  0.58636  0.45374  0.94549  1.0000
  H   H5        1.0  0.86611  0.03484  0.93379  1.0000
  H   H6        1.0  0.63390  0.03484  0.06621  1.0000
  H   H7        1.0  0.13390  0.96516  0.06621  1.0000
  H   H8        1.0  0.36610  0.96516  0.93379  1.0000
  H   H9        1.0  0.91650  0.79670  0.94873  1.0000
  H   H10       1.0  0.58351  0.79670  0.05127  1.0000
  H   H11       1.0  0.08351  0.20330  0.05127  1.0000
  H   H12       1.0  0.41649  0.20330  0.94873  1.0000
  H   H13       1.0  0.89459  0.65048  0.81719  1.0000
  H   H14       1.0  0.60542  0.65048  0.18281  1.0000
  H   H15       1.0  0.10542  0.34952  0.18281  1.0000
  H   H16       1.0  0.39458  0.34952  0.81719  1.0000
  H   H17       1.0  0.82088  0.73404  0.66567  1.0000
  H   H18       1.0  0.67912  0.73404  0.33433  1.0000
  H   H19       1.0  0.17913  0.26596  0.33433  1.0000
  H   H20       1.0  0.32087  0.26596  0.66566  1.0000
  H   H21       1.0  0.71098  0.21080  0.62752  1.0000
  H   H22       1.0  0.78901  0.21080  0.37248  1.0000
  H   H23       1.0  0.28901  0.78920  0.37248  1.0000
  H   H24       1.0  0.21099  0.78919  0.62752  1.0000
  H   H25       1.0  0.73772  0.23799  0.87868  1.0000
  H   H26       1.0  0.76228  0.23799  0.12132  1.0000
  H   H27       1.0  0.26228  0.76201  0.12132  1.0000
  H   H28       1.0  0.23772  0.76201  0.87868  1.0000
  H   H29       1.0  0.70343  0.32901  0.77916  1.0000
  H   H30       1.0  0.79657  0.32901  0.22084  1.0000
  H   H31       1.0  0.29656  0.67099  0.22084  1.0000
  H   H32       1.0  0.20343  0.67099  0.77916  1.0000
  H   H33       1.0  0.04848  0.22934  0.81940  1.0000
  H   H34       1.0  0.45152  0.22934  0.18060  1.0000
  H   H35       1.0  0.95152  0.77066  0.18059  1.0000
  H   H36       1.0  0.54848  0.77066  0.81941  1.0000
  H   H37       1.0  0.99675  0.36513  0.75342  1.0000
  H   H38       1.0  0.50325  0.36513  0.24658  1.0000
  H   H39       1.0  0.00325  0.63487  0.24658  1.0000
  H   H40       1.0  0.49675  0.63487  0.75342  1.0000
  C   C1        1.0  0.81510  0.01578  0.79040  1.0000
  C   C2        1.0  0.68490  0.01578  0.20960  1.0000
  C   C3        1.0  0.18490  0.98422  0.20960  1.0000
  C   C4        1.0  0.31510  0.98422  0.79040  1.0000
  C   C5        1.0  0.85609  0.97027  0.87588  1.0000
  C   C6        1.0  0.64392  0.97027  0.12412  1.0000
  C   C7        1.0  0.14392  0.02974  0.12412  1.0000
  C   C8        1.0  0.35609  0.02973  0.87588  1.0000
  C   C9        1.0  0.88376  0.83715  0.88351  1.0000
  C   C10       1.0  0.61625  0.83715  0.11649  1.0000
  C   C11       1.0  0.11625  0.16285  0.11649  1.0000
  C   C12       1.0  0.38375  0.16285  0.88351  1.0000
  C   C13       1.0  0.87193  0.75371  0.80847  1.0000
  C   C14       1.0  0.62808  0.75371  0.19153  1.0000
  C   C15       1.0  0.12808  0.24630  0.19153  1.0000
  C   C16       1.0  0.37192  0.24629  0.80847  1.0000
  C   C17       1.0  0.83133  0.79918  0.72317  1.0000
  C   C18       1.0  0.66867  0.79919  0.27683  1.0000
  C   C19       1.0  0.16867  0.20082  0.27683  1.0000
  C   C20       1.0  0.33132  0.20081  0.72317  1.0000
  C   C21       1.0  0.80207  0.93208  0.71505  1.0000
  C   C22       1.0  0.69793  0.93208  0.28495  1.0000
  C   C23       1.0  0.19793  0.06793  0.28495  1.0000
  C   C24       1.0  0.30207  0.06792  0.71505  1.0000
  C   C25       1.0  0.74454  0.12870  0.66935  1.0000
  C   C26       1.0  0.75546  0.12871  0.33065  1.0000
  C   C27       1.0  0.25545  0.87130  0.33065  1.0000
  C   C28       1.0  0.24455  0.87130  0.66935  1.0000
  C   C29       1.0  0.78518  0.25832  0.81044  1.0000
  C   C30       1.0  0.71482  0.25832  0.18956  1.0000
  C   C31       1.0  0.21482  0.74168  0.18956  1.0000
  C   C32       1.0  0.28518  0.74168  0.81043  1.0000
  C   C33       1.0  0.96130  0.31079  0.81443  1.0000
  C   C34       1.0  0.53870  0.31079  0.18557  1.0000
  C   C35       1.0  0.03871  0.68921  0.18557  1.0000
  C   C36       1.0  0.46129  0.68921  0.81443  1.0000
  C   C37       1.0  0.98666  0.39180  0.89721  1.0000
  C   C38       1.0  0.51334  0.39180  0.10280  1.0000
  C   C39       1.0  0.01334  0.60819  0.10280  1.0000
  C   C40       1.0  0.48666  0.60819  0.89720  1.0000
  N   N1        1.0  0.77745  0.13893  0.75857  1.0000
  N   N2        1.0  0.72255  0.13893  0.24143  1.0000
  N   N3        1.0  0.22254  0.86107  0.24143  1.0000
  N   N4        1.0  0.27746  0.86106  0.75857  1.0000
  N   N5        1.0  0.75729  0.00658  0.64130  1.0000
  N   N6        1.0  0.74271  0.00658  0.35870  1.0000
  N   N7        1.0  0.24271  0.99342  0.35870  1.0000
  N   N8        1.0  0.25729  0.99342  0.64130  1.0000
  Cl  Cl1       1.0  0.00109  0.78188  0.48955  1.0000
  Cl  Cl2       1.0  0.49891  0.78188  0.51045  1.0000
  Cl  Cl3       1.0  0.99891  0.21812  0.51045  1.0000
  Cl  Cl4       1.0  0.50109  0.21812  0.48955  1.0000
  Cl  Cl5       1.0  0.81660  0.48544  0.37416  1.0000
  Cl  Cl6       1.0  0.68340  0.48544  0.62584  1.0000
  Cl  Cl7       1.0  0.18339  0.51456  0.62584  1.0000
  Cl  Cl8       1.0  0.31660  0.51457  0.37416  1.0000
  O   O1        1.0  0.92007  0.36321  0.97093  1.0000
  O   O2        1.0  0.57993  0.36321  0.02907  1.0000
  O   O3        1.0  0.07995  0.63678  0.02907  1.0000
  O   O4        1.0  0.42005  0.63678  0.97093  1.0000
  O   O5        1.0  0.08512  0.49272  0.88648  1.0000
  O   O6        1.0  0.41488  0.49272  0.11352  1.0000
  O   O7        1.0  0.91488  0.50728  0.11352  1.0000
  O   O8        1.0  0.58512  0.50728  0.88649  1.0000
