data_image0
_chemical_formula_structural       CuH12C12S2N2O6
_chemical_formula_sum              "Cu1 H12 C12 S2 N2 O6"
_cell_length_a       4.96468
_cell_length_b       7.73288
_cell_length_c       9.5636
_cell_angle_alpha    93.1554
_cell_angle_beta     104.83
_cell_angle_gamma    99.1365

_space_group_name_H-M_alt    "P 1"
_space_group_IT_number       1

loop_
  _space_group_symop_operation_xyz
  'x, y, z'

loop_
  _atom_site_type_symbol
  _atom_site_label
  _atom_site_symmetry_multiplicity
  _atom_site_fract_x
  _atom_site_fract_y
  _atom_site_fract_z
  _atom_site_occupancy
  Cu  Cu1       1.0  0.00000  0.00000  0.00000  1.0000
  H   H1        1.0  0.18660  0.44883  0.61555  1.0000
  H   H2        1.0  0.81339  0.55117  0.38445  1.0000
  H   H3        1.0  0.88210  0.37097  0.78004  1.0000
  H   H4        1.0  0.11789  0.62903  0.21997  1.0000
  H   H5        1.0  0.79309  0.61601  0.93999  1.0000
  H   H6        1.0  0.20691  0.38400  0.06001  1.0000
  H   H7        1.0  0.61524  0.87653  0.61773  1.0000
  H   H8        1.0  0.38476  0.12346  0.38227  1.0000
  H   H9        1.0  0.29248  0.83505  0.47991  1.0000
  H   H10       1.0  0.70753  0.16495  0.52009  1.0000
  H   H11       1.0  0.48413  0.66166  0.52450  1.0000
  H   H12       1.0  0.51587  0.33834  0.47550  1.0000
  C   C1        1.0  0.20468  0.85254  0.77473  1.0000
  C   C2        1.0  0.79532  0.14746  0.22527  1.0000
  C   C3        1.0  0.25933  0.72892  0.67734  1.0000
  C   C4        1.0  0.74066  0.27108  0.32266  1.0000
  C   C5        1.0  0.14287  0.55298  0.68349  1.0000
  C   C6        1.0  0.85712  0.44702  0.31651  1.0000
  C   C7        1.0  0.97353  0.50786  0.77629  1.0000
  C   C8        1.0  0.02647  0.49214  0.22371  1.0000
  C   C9        1.0  0.92414  0.64074  0.86531  1.0000
  C   C10       1.0  0.07586  0.35926  0.13469  1.0000
  C   C11       1.0  0.42405  0.77820  0.57014  1.0000
  C   C12       1.0  0.57595  0.22180  0.42986  1.0000
  S   S1        1.0  0.34438  0.08410  0.78858  1.0000
  S   S2        1.0  0.65562  0.91590  0.21142  1.0000
  N   N1        1.0  0.04231  0.80964  0.86493  1.0000
  N   N2        1.0  0.95770  0.19036  0.13507  1.0000
  O   O1        1.0  0.29116  0.15207  0.92758  1.0000
  O   O2        1.0  0.70884  0.84793  0.07242  1.0000
  O   O3        1.0  0.64874  0.10344  0.80422  1.0000
  O   O4        1.0  0.35126  0.89656  0.19578  1.0000
  O   O5        1.0  0.18608  0.15116  0.66008  1.0000
  O   O6        1.0  0.81392  0.84884  0.33992  1.0000
