data_image0
_chemical_formula_structural       Cu2H24C24S4N4O12
_chemical_formula_sum              "Cu2 H24 C24 S4 N4 O12"
_cell_length_a       4.93571
_cell_length_b       7.81415
_cell_length_c       18.4593
_cell_angle_alpha    89.9995
_cell_angle_beta     90.2151
_cell_angle_gamma    90.0003

_space_group_name_H-M_alt    "P 1"
_space_group_IT_number       1

loop_
  _space_group_symop_operation_xyz
  'x, y, z'

loop_
  _atom_site_type_symbol
  _atom_site_label
  _atom_site_symmetry_multiplicity
  _atom_site_fract_x
  _atom_site_fract_y
  _atom_site_fract_z
  _atom_site_occupancy
  Cu  Cu1       1.0  1.00000  0.00000  1.00000  1.0000
  Cu  Cu2       1.0  0.50000  0.50000  0.50000  1.0000
  H   H1        1.0  0.42379  0.50296  0.79823  1.0000
  H   H2        1.0  0.92379  0.99704  0.29823  1.0000
  H   H3        1.0  0.57621  0.49704  0.20177  1.0000
  H   H4        1.0  0.07621  0.00296  0.70178  1.0000
  H   H5        1.0  0.06886  0.58714  0.88639  1.0000
  H   H6        1.0  0.56885  0.91286  0.38639  1.0000
  H   H7        1.0  0.93114  0.41287  0.11361  1.0000
  H   H8        1.0  0.43114  0.08714  0.61361  1.0000
  H   H9        1.0  0.88796  0.36276  0.97248  1.0000
  H   H10       1.0  0.38796  0.13724  0.47248  1.0000
  H   H11       1.0  0.11204  0.63725  0.02752  1.0000
  H   H12       1.0  0.61203  0.86277  0.52752  1.0000
  H   H13       1.0  0.72242  0.05663  0.78805  1.0000
  H   H14       1.0  0.22243  0.44337  0.28805  1.0000
  H   H15       1.0  0.27757  0.94337  0.21195  1.0000
  H   H16       1.0  0.77758  0.55663  0.71195  1.0000
  H   H17       1.0  0.83287  0.27265  0.78349  1.0000
  H   H18       1.0  0.33287  0.22735  0.28350  1.0000
  H   H19       1.0  0.16714  0.72735  0.21650  1.0000
  H   H20       1.0  0.66713  0.77264  0.71650  1.0000
  H   H21       1.0  0.56926  0.20461  0.72607  1.0000
  H   H22       1.0  0.06927  0.29539  0.22607  1.0000
  H   H23       1.0  0.43074  0.79539  0.27393  1.0000
  H   H24       1.0  0.93073  0.70460  0.77393  1.0000
  C   C1        1.0  0.33639  0.12841  0.88637  1.0000
  C   C2        1.0  0.83640  0.37158  0.38637  1.0000
  C   C3        1.0  0.66360  0.87159  0.11363  1.0000
  C   C4        1.0  0.16360  0.62842  0.61363  1.0000
  C   C5        1.0  0.44708  0.24074  0.83532  1.0000
  C   C6        1.0  0.94708  0.25926  0.33532  1.0000
  C   C7        1.0  0.55292  0.75926  0.16468  1.0000
  C   C8        1.0  0.05292  0.74074  0.66468  1.0000
  C   C9        1.0  0.34652  0.40894  0.83653  1.0000
  C   C10       1.0  0.84652  0.09106  0.33653  1.0000
  C   C11       1.0  0.65349  0.59107  0.16347  1.0000
  C   C12       1.0  0.15348  0.90893  0.66347  1.0000
  C   C13       1.0  0.14688  0.45688  0.88549  1.0000
  C   C14       1.0  0.64688  0.04312  0.38550  1.0000
  C   C15       1.0  0.85312  0.54312  0.11450  1.0000
  C   C16       1.0  0.35312  0.95689  0.61450  1.0000
  C   C17       1.0  0.04705  0.33543  0.93350  1.0000
  C   C18       1.0  0.54705  0.16456  0.43350  1.0000
  C   C19       1.0  0.95294  0.66457  0.06650  1.0000
  C   C20       1.0  0.45295  0.83544  0.56650  1.0000
  C   C21       1.0  0.65479  0.18871  0.78066  1.0000
  C   C22       1.0  0.15479  0.31129  0.28066  1.0000
  C   C23       1.0  0.34521  0.81129  0.21934  1.0000
  C   C24       1.0  0.84521  0.68871  0.71934  1.0000
  S   S1        1.0  0.43175  0.90587  0.89215  1.0000
  S   S2        1.0  0.93176  0.59413  0.39215  1.0000
  S   S3        1.0  0.56825  0.09413  0.10785  1.0000
  S   S4        1.0  0.06825  0.40587  0.60785  1.0000
  N   N1        1.0  0.14250  0.17458  0.93354  1.0000
  N   N2        1.0  0.64250  0.32542  0.43354  1.0000
  N   N3        1.0  0.85750  0.82542  0.06646  1.0000
  N   N4        1.0  0.35750  0.67458  0.56646  1.0000
  O   O1        1.0  0.29633  0.84910  0.96075  1.0000
  O   O2        1.0  0.79634  0.65090  0.46075  1.0000
  O   O3        1.0  0.70367  0.15090  0.03925  1.0000
  O   O4        1.0  0.20366  0.34911  0.53925  1.0000
  O   O5        1.0  0.32383  0.82502  0.82733  1.0000
  O   O6        1.0  0.82382  0.67498  0.32733  1.0000
  O   O7        1.0  0.67617  0.17498  0.17267  1.0000
  O   O8        1.0  0.17618  0.32502  0.67267  1.0000
  O   O9        1.0  0.72608  0.89536  0.89928  1.0000
  O   O10       1.0  0.22608  0.60464  0.39928  1.0000
  O   O11       1.0  0.27392  0.10464  0.10072  1.0000
  O   O12       1.0  0.77392  0.39535  0.60072  1.0000
