data_image0
_chemical_formula_structural       Cd2H24C28S4N8
_chemical_formula_sum              "Cd2 H24 C28 S4 N8"
_cell_length_a       8.04859
_cell_length_b       10.0493
_cell_length_c       10.6625
_cell_angle_alpha    84.8617
_cell_angle_beta     72.3025
_cell_angle_gamma    70.8569

_space_group_name_H-M_alt    "P 1"
_space_group_IT_number       1

loop_
  _space_group_symop_operation_xyz
  'x, y, z'

loop_
  _atom_site_type_symbol
  _atom_site_label
  _atom_site_symmetry_multiplicity
  _atom_site_fract_x
  _atom_site_fract_y
  _atom_site_fract_z
  _atom_site_occupancy
  Cd  Cd1       1.0  0.59951  0.38273  0.23717  1.0000
  Cd  Cd2       1.0  0.40049  0.61726  0.76284  1.0000
  H   H1        1.0  0.58299  0.15092  0.47193  1.0000
  H   H2        1.0  0.41702  0.84909  0.52807  1.0000
  H   H3        1.0  0.77232  0.91738  0.53622  1.0000
  H   H4        1.0  0.22769  0.08262  0.46378  1.0000
  H   H5        1.0  0.18595  0.91193  0.16763  1.0000
  H   H6        1.0  0.81405  0.08807  0.83237  1.0000
  H   H7        1.0  0.05498  0.67291  0.37433  1.0000
  H   H8        1.0  0.94502  0.32710  0.62566  1.0000
  H   H9        1.0  0.11133  0.74983  0.49062  1.0000
  H   H10       1.0  0.88867  0.25017  0.50937  1.0000
  H   H11       1.0  0.25366  0.72630  0.32316  1.0000
  H   H12       1.0  0.74634  0.27370  0.67684  1.0000
  H   H13       1.0  0.82634  0.47406  0.95293  1.0000
  H   H14       1.0  0.17366  0.52594  0.04706  1.0000
  H   H15       1.0  0.12295  0.38748  0.77578  1.0000
  H   H16       1.0  0.87705  0.61252  0.22422  1.0000
  H   H17       1.0  0.25865  0.01139  0.00023  1.0000
  H   H18       1.0  0.74135  0.98861  0.99976  1.0000
  H   H19       1.0  0.41249  0.02761  0.73845  1.0000
  H   H20       1.0  0.58751  0.97239  0.26155  1.0000
  H   H21       1.0  0.50817  0.12010  0.81541  1.0000
  H   H22       1.0  0.49184  0.87991  0.18458  1.0000
  H   H23       1.0  0.41075  0.20264  0.68799  1.0000
  H   H24       1.0  0.58925  0.79737  0.31201  1.0000
  C   C1        1.0  0.51415  0.66022  0.03834  1.0000
  C   C2        1.0  0.48583  0.33976  0.96169  1.0000
  C   C3        1.0  0.70016  0.54634  0.46433  1.0000
  C   C4        1.0  0.29983  0.45366  0.53568  1.0000
  C   C5        1.0  0.71896  0.09441  0.40801  1.0000
  C   C6        1.0  0.28105  0.90560  0.59199  1.0000
  C   C7        1.0  0.82398  0.96513  0.44286  1.0000
  C   C8        1.0  0.17602  0.03487  0.55714  1.0000
  C   C9        1.0  0.99634  0.89601  0.35569  1.0000
  C   C10       1.0  0.00366  0.10399  0.64430  1.0000
  C   C11       1.0  0.05343  0.96368  0.23765  1.0000
  C   C12       1.0  0.94657  0.03632  0.76235  1.0000
  C   C13       1.0  0.94108  0.09492  0.20886  1.0000
  C   C14       1.0  0.05892  0.90508  0.79114  1.0000
  C   C15       1.0  0.11172  0.75482  0.38732  1.0000
  C   C16       1.0  0.88828  0.24518  0.61268  1.0000
  C   C17       1.0  0.92593  0.37186  0.96054  1.0000
  C   C18       1.0  0.07407  0.62814  0.03945  1.0000
  C   C19       1.0  0.09065  0.32227  0.86109  1.0000
  C   C20       1.0  0.90936  0.67773  0.13890  1.0000
  C   C21       1.0  0.21431  0.19047  0.87428  1.0000
  C   C22       1.0  0.78569  0.80953  0.12571  1.0000
  C   C23       1.0  0.16434  0.11465  0.98851  1.0000
  C   C24       1.0  0.83567  0.88535  0.01149  1.0000
  C   C25       1.0  0.99742  0.17104  0.08507  1.0000
  C   C26       1.0  0.00258  0.82896  0.91493  1.0000
  C   C27       1.0  0.39602  0.13238  0.77245  1.0000
  C   C28       1.0  0.60398  0.86763  0.22755  1.0000
  S   S1        1.0  0.71453  0.62644  0.58581  1.0000
  S   S2        1.0  0.28546  0.37357  0.41420  1.0000
  S   S3        1.0  0.53015  0.76514  0.91318  1.0000
  S   S4        1.0  0.46985  0.23485  0.08683  1.0000
  N   N1        1.0  0.77514  0.15780  0.29423  1.0000
  N   N2        1.0  0.22487  0.84220  0.70576  1.0000
  N   N3        1.0  0.88042  0.29917  0.06996  1.0000
  N   N4        1.0  0.11959  0.70083  0.93004  1.0000
  N   N5        1.0  0.50181  0.58637  0.13154  1.0000
  N   N6        1.0  0.49816  0.41362  0.86847  1.0000
  N   N7        1.0  0.69358  0.48841  0.37513  1.0000
  N   N8        1.0  0.30642  0.51159  0.62487  1.0000
