data_image0
_chemical_formula_structural       Zn6H20C20N16O16
_chemical_formula_sum              "Zn6 H20 C20 N16 O16"
_cell_length_a       10.3874
_cell_length_b       10.3866
_cell_length_c       10.9853
_cell_angle_alpha    116.794
_cell_angle_beta     117.196
_cell_angle_gamma    92.2967

_space_group_name_H-M_alt    "P 1"
_space_group_IT_number       1

loop_
  _space_group_symop_operation_xyz
  'x, y, z'

loop_
  _atom_site_type_symbol
  _atom_site_label
  _atom_site_symmetry_multiplicity
  _atom_site_fract_x
  _atom_site_fract_y
  _atom_site_fract_z
  _atom_site_occupancy
  Zn  Zn1       1.0  0.65432  0.79756  0.28854  1.0000
  Zn  Zn2       1.0  0.00915  0.36588  0.21145  1.0000
  Zn  Zn3       1.0  0.34568  0.20244  0.71146  1.0000
  Zn  Zn4       1.0  0.99085  0.63412  0.78855  1.0000
  Zn  Zn5       1.0  0.95484  0.70493  0.25027  1.0000
  Zn  Zn6       1.0  0.04516  0.29507  0.74973  1.0000
  H   H1        1.0  0.11252  0.67935  0.57763  1.0000
  H   H2        1.0  0.60187  0.53523  0.92287  1.0000
  H   H3        1.0  0.88748  0.32065  0.42237  1.0000
  H   H4        1.0  0.39812  0.46477  0.07713  1.0000
  H   H5        1.0  0.89878  0.02442  0.09031  1.0000
  H   H6        1.0  0.43426  0.80852  0.40974  1.0000
  H   H7        1.0  0.10122  0.97558  0.90969  1.0000
  H   H8        1.0  0.56574  0.19148  0.59027  1.0000
  H   H9        1.0  0.02541  0.01502  0.26079  1.0000
  H   H10       1.0  0.25430  0.76466  0.23929  1.0000
  H   H11       1.0  0.97459  0.98497  0.73921  1.0000
  H   H12       1.0  0.74571  0.23535  0.76071  1.0000
  H   H13       1.0  0.55245  0.62754  0.44851  1.0000
  H   H14       1.0  0.67906  0.10402  0.05158  1.0000
  H   H15       1.0  0.44755  0.37246  0.55149  1.0000
  H   H16       1.0  0.32094  0.89598  0.94842  1.0000
  H   H17       1.0  0.67488  0.61007  0.60602  1.0000
  H   H18       1.0  0.50414  0.06892  0.89396  1.0000
  H   H19       1.0  0.32512  0.38993  0.39398  1.0000
  H   H20       1.0  0.49586  0.93108  0.10604  1.0000
  C   C1        1.0  0.77702  0.66950  0.51251  1.0000
  C   C2        1.0  0.65713  0.26466  0.98769  1.0000
  C   C3        1.0  0.22298  0.33050  0.48749  1.0000
  C   C4        1.0  0.34287  0.73534  0.01231  1.0000
  C   C5        1.0  0.99619  0.68101  0.53708  1.0000
  C   C6        1.0  0.64408  0.45941  0.96337  1.0000
  C   C7        1.0  0.00381  0.31899  0.46292  1.0000
  C   C8        1.0  0.35592  0.54059  0.03663  1.0000
  C   C9        1.0  0.94443  0.81286  0.03766  1.0000
  C   C10       1.0  0.27552  0.90698  0.46253  1.0000
  C   C11       1.0  0.05557  0.18714  0.96234  1.0000
  C   C12       1.0  0.72448  0.09303  0.53748  1.0000
  C   C13       1.0  0.91844  0.95314  0.14159  1.0000
  C   C14       1.0  0.31172  0.77697  0.35854  1.0000
  C   C15       1.0  0.08156  0.04686  0.85841  1.0000
  C   C16       1.0  0.68829  0.22303  0.64147  1.0000
  C   C17       1.0  0.79421  0.92753  0.17276  1.0000
  C   C18       1.0  0.25494  0.62165  0.32750  1.0000
  C   C19       1.0  0.20579  0.07247  0.82724  1.0000
  C   C20       1.0  0.74506  0.37835  0.67250  1.0000
  N   N1        1.0  0.91655  0.70883  0.42331  1.0000
  N   N2        1.0  0.78565  0.49354  0.07717  1.0000
  N   N3        1.0  0.08345  0.29117  0.57669  1.0000
  N   N4        1.0  0.21435  0.50646  0.92283  1.0000
  N   N5        1.0  0.77469  0.70207  0.40556  1.0000
  N   N6        1.0  0.79664  0.36932  0.09473  1.0000
  N   N7        1.0  0.22531  0.29793  0.59444  1.0000
  N   N8        1.0  0.20336  0.63068  0.90527  1.0000
  N   N9        1.0  0.91590  0.65540  0.59742  1.0000
  N   N10       1.0  0.55811  0.31869  0.90284  1.0000
  N   N11       1.0  0.08410  0.34460  0.40258  1.0000
  N   N12       1.0  0.44189  0.68131  0.09716  1.0000
  N   N13       1.0  0.66336  0.65621  0.53785  1.0000
  N   N14       1.0  0.61846  0.12561  0.96225  1.0000
  N   N15       1.0  0.33664  0.34378  0.46214  1.0000
  N   N16       1.0  0.38154  0.87439  0.03775  1.0000
  O   O1        1.0  0.97224  0.71221  0.07194  1.0000
  O   O2        1.0  0.14060  0.90071  0.42817  1.0000
  O   O3        1.0  0.02776  0.28778  0.92806  1.0000
  O   O4        1.0  0.85941  0.09929  0.57183  1.0000
  O   O5        1.0  0.94125  0.80633  0.91707  1.0000
  O   O6        1.0  0.38966  0.02433  0.58324  1.0000
  O   O7        1.0  0.05875  0.19367  0.08293  1.0000
  O   O8        1.0  0.61035  0.97567  0.41676  1.0000
  O   O9        1.0  0.78910  0.82615  0.21055  1.0000
  O   O10       1.0  0.11580  0.57884  0.28984  1.0000
  O   O11       1.0  0.21090  0.17385  0.78945  1.0000
  O   O12       1.0  0.88420  0.42116  0.71016  1.0000
  O   O13       1.0  0.70540  0.00525  0.16541  1.0000
  O   O14       1.0  0.33989  0.54008  0.33476  1.0000
  O   O15       1.0  0.29460  0.99475  0.83459  1.0000
  O   O16       1.0  0.66011  0.45992  0.66524  1.0000
