data_image0
_chemical_formula_structural       Ba2H48C68O24
_chemical_formula_sum              "Ba2 H48 C68 O24"
_cell_length_a       8.95623
_cell_length_b       12.533
_cell_length_c       17.3929
_cell_angle_alpha    111.115
_cell_angle_beta     97.6935
_cell_angle_gamma    89.998

_space_group_name_H-M_alt    "P 1"
_space_group_IT_number       1

loop_
  _space_group_symop_operation_xyz
  'x, y, z'

loop_
  _atom_site_type_symbol
  _atom_site_label
  _atom_site_symmetry_multiplicity
  _atom_site_fract_x
  _atom_site_fract_y
  _atom_site_fract_z
  _atom_site_occupancy
  Ba  Ba1       1.0  0.25001  0.57611  0.99998  1.0000
  Ba  Ba2       1.0  0.74999  0.42389  0.00002  1.0000
  H   H1        1.0  0.21834  0.54583  0.78537  1.0000
  H   H2        1.0  0.28168  0.76065  0.21462  1.0000
  H   H3        1.0  0.78166  0.45417  0.21464  1.0000
  H   H4        1.0  0.71833  0.23935  0.78538  1.0000
  H   H5        1.0  0.80215  0.59228  0.89894  1.0000
  H   H6        1.0  0.69790  0.69327  0.10108  1.0000
  H   H7        1.0  0.19785  0.40772  0.10106  1.0000
  H   H8        1.0  0.30210  0.30673  0.89892  1.0000
  H   H9        1.0  0.87343  0.53823  0.64783  1.0000
  H   H10       1.0  0.62662  0.89027  0.35220  1.0000
  H   H11       1.0  0.12657  0.46177  0.35218  1.0000
  H   H12       1.0  0.37338  0.10973  0.64780  1.0000
  H   H13       1.0  0.42400  0.50882  0.70294  1.0000
  H   H14       1.0  0.07608  0.80593  0.29705  1.0000
  H   H15       1.0  0.57599  0.49118  0.29707  1.0000
  H   H16       1.0  0.92392  0.19407  0.70295  1.0000
  H   H17       1.0  0.61876  0.72534  0.68868  1.0000
  H   H18       1.0  0.88129  0.03664  0.31130  1.0000
  H   H19       1.0  0.38125  0.27466  0.31132  1.0000
  H   H20       1.0  0.11871  0.96336  0.68870  1.0000
  H   H21       1.0  0.64470  0.30381  0.58961  1.0000
  H   H22       1.0  0.85542  0.71422  0.41038  1.0000
  H   H23       1.0  0.35530  0.69619  0.41039  1.0000
  H   H24       1.0  0.14458  0.28578  0.58962  1.0000
  H   H25       1.0  0.69227  0.00768  0.54710  1.0000
  H   H26       1.0  0.80804  0.46056  0.45283  1.0000
  H   H27       1.0  0.30773  0.99232  0.45290  1.0000
  H   H28       1.0  0.19196  0.53944  0.54717  1.0000
  H   H29       1.0  0.60087  0.13371  0.60225  1.0000
  H   H30       1.0  0.89950  0.53155  0.39778  1.0000
  H   H31       1.0  0.39913  0.86629  0.39774  1.0000
  H   H32       1.0  0.10050  0.46845  0.60222  1.0000
  H   H33       1.0  0.77846  0.14630  0.56769  1.0000
  H   H34       1.0  0.72176  0.57855  0.43221  1.0000
  H   H35       1.0  0.22154  0.85370  0.43231  1.0000
  H   H36       1.0  0.27824  0.42145  0.56779  1.0000
  H   H37       1.0  0.74745  0.89578  0.73776  1.0000
  H   H38       1.0  0.75259  0.15806  0.26223  1.0000
  H   H39       1.0  0.25255  0.10422  0.26224  1.0000
  H   H40       1.0  0.24741  0.84194  0.73777  1.0000
  H   H41       1.0  0.57871  0.89499  0.78315  1.0000
  H   H42       1.0  0.92131  0.11188  0.21681  1.0000
  H   H43       1.0  0.42129  0.10501  0.21685  1.0000
  H   H44       1.0  0.07870  0.88812  0.78319  1.0000
  H   H45       1.0  0.65776  0.02717  0.78418  1.0000
  H   H46       1.0  0.84227  0.24305  0.21582  1.0000
  H   H47       1.0  0.34224  0.97283  0.21582  1.0000
  H   H48       1.0  0.15773  0.75695  0.78418  1.0000
  C   C1        1.0  0.01741  0.58186  0.80940  1.0000
  C   C2        1.0  0.48266  0.77240  0.19059  1.0000
  C   C3        1.0  0.98259  0.41814  0.19060  1.0000
  C   C4        1.0  0.51734  0.22760  0.80940  1.0000
  C   C5        1.0  0.60149  0.54690  0.80717  1.0000
  C   C6        1.0  0.89858  0.73966  0.19285  1.0000
  C   C7        1.0  0.39850  0.45310  0.19283  1.0000
  C   C8        1.0  0.10142  0.26034  0.80715  1.0000
  C   C9        1.0  0.85430  0.56259  0.77599  1.0000
  C   C10       1.0  0.64577  0.78652  0.22402  1.0000
  C   C11       1.0  0.14570  0.43741  0.22401  1.0000
  C   C12       1.0  0.35424  0.21348  0.77598  1.0000
  C   C13       1.0  0.75623  0.56900  0.83344  1.0000
  C   C14       1.0  0.74384  0.73547  0.16658  1.0000
  C   C15       1.0  0.24376  0.43100  0.16656  1.0000
  C   C16       1.0  0.25616  0.26453  0.83342  1.0000
  C   C17       1.0  0.79756  0.53835  0.69190  1.0000
  C   C18       1.0  0.70250  0.84636  0.30811  1.0000
  C   C19       1.0  0.20244  0.46165  0.30810  1.0000
  C   C20       1.0  0.29750  0.15364  0.69189  1.0000
  C   C21       1.0  0.54522  0.52363  0.72340  1.0000
  C   C22       1.0  0.95485  0.80021  0.27660  1.0000
  C   C23       1.0  0.45478  0.47637  0.27660  1.0000
  C   C24       1.0  0.04515  0.19979  0.72340  1.0000
  C   C25       1.0  0.64154  0.52109  0.66555  1.0000
  C   C26       1.0  0.85853  0.85552  0.33445  1.0000
  C   C27       1.0  0.35846  0.47891  0.33445  1.0000
  C   C28       1.0  0.14147  0.14448  0.66555  1.0000
  C   C29       1.0  0.49920  0.54885  0.86903  1.0000
  C   C30       1.0  0.00087  0.67971  0.13100  1.0000
  C   C31       1.0  0.50079  0.45115  0.13097  1.0000
  C   C32       1.0  0.99913  0.32029  0.86900  1.0000
  C   C33       1.0  0.57347  0.50853  0.57960  1.0000
  C   C34       1.0  0.92657  0.92892  0.42039  1.0000
  C   C35       1.0  0.42652  0.49147  0.42040  1.0000
  C   C36       1.0  0.07343  0.07108  0.57961  1.0000
  C   C37       1.0  0.54577  0.39988  0.51575  1.0000
  C   C38       1.0  0.95428  0.88414  0.48426  1.0000
  C   C39       1.0  0.45422  0.60012  0.48425  1.0000
  C   C40       1.0  0.04572  0.11586  0.51574  1.0000
  C   C41       1.0  0.52936  0.60839  0.56497  1.0000
  C   C42       1.0  0.97062  0.04340  0.43502  1.0000
  C   C43       1.0  0.47064  0.39161  0.43503  1.0000
  C   C44       1.0  0.02938  0.95660  0.56498  1.0000
  C   C45       1.0  0.55789  0.19113  0.46615  1.0000
  C   C46       1.0  0.94217  0.72499  0.53386  1.0000
  C   C47       1.0  0.44212  0.80887  0.53385  1.0000
  C   C48       1.0  0.05783  0.27501  0.46614  1.0000
  C   C49       1.0  0.55972  0.71925  0.62836  1.0000
  C   C50       1.0  0.94027  0.09089  0.37163  1.0000
  C   C51       1.0  0.44028  0.28075  0.37164  1.0000
  C   C52       1.0  0.05973  0.90911  0.62837  1.0000
  C   C53       1.0  0.58804  0.29712  0.52859  1.0000
  C   C54       1.0  0.91206  0.76852  0.47140  1.0000
  C   C55       1.0  0.41195  0.70288  0.47141  1.0000
  C   C56       1.0  0.08794  0.23148  0.52860  1.0000
  C   C57       1.0  0.51965  0.81702  0.61412  1.0000
  C   C58       1.0  0.98036  0.20289  0.38586  1.0000
  C   C59       1.0  0.48035  0.18298  0.38588  1.0000
  C   C60       1.0  0.01964  0.79711  0.61414  1.0000
  C   C61       1.0  0.67098  0.09588  0.55299  1.0000
  C   C62       1.0  0.82927  0.54290  0.44698  1.0000
  C   C63       1.0  0.32902  0.90412  0.44701  1.0000
  C   C64       1.0  0.17073  0.45710  0.55302  1.0000
  C   C65       1.0  0.63853  0.93541  0.74842  1.0000
  C   C66       1.0  0.86151  0.18703  0.25156  1.0000
  C   C67       1.0  0.36147  0.06459  0.25158  1.0000
  C   C68       1.0  0.13849  0.81297  0.74843  1.0000
  O   O1        1.0  0.06144  0.63281  0.88494  1.0000
  O   O2        1.0  0.43870  0.74751  0.11501  1.0000
  O   O3        1.0  0.93855  0.36719  0.11506  1.0000
  O   O4        1.0  0.56130  0.25249  0.88498  1.0000
  O   O5        1.0  0.35623  0.54708  0.84890  1.0000
  O   O6        1.0  0.14385  0.69802  0.15112  1.0000
  O   O7        1.0  0.64377  0.45292  0.15110  1.0000
  O   O8        1.0  0.85616  0.30198  0.84888  1.0000
  O   O9        1.0  0.55714  0.55194  0.94076  1.0000
  O   O10       1.0  0.94294  0.61104  0.05929  1.0000
  O   O11       1.0  0.44286  0.44806  0.05924  1.0000
  O   O12       1.0  0.05707  0.38896  0.94071  1.0000
  O   O13       1.0  0.11075  0.53822  0.75387  1.0000
  O   O14       1.0  0.38923  0.78467  0.24614  1.0000
  O   O15       1.0  0.88924  0.46178  0.24613  1.0000
  O   O16       1.0  0.61078  0.21533  0.75386  1.0000
  O   O17       1.0  0.59409  0.08978  0.47356  1.0000
  O   O18       1.0  0.90598  0.61624  0.52645  1.0000
  O   O19       1.0  0.40591  0.91022  0.52644  1.0000
  O   O20       1.0  0.09402  0.38375  0.47355  1.0000
  O   O21       1.0  0.54970  0.92556  0.67127  1.0000
  O   O22       1.0  0.95035  0.25429  0.32871  1.0000
  O   O23       1.0  0.45030  0.07444  0.32873  1.0000
  O   O24       1.0  0.04965  0.74571  0.67129  1.0000
