data_image0
_chemical_formula_structural       MnH18C14N2O4
_chemical_formula_sum              "Mn1 H18 C14 N2 O4"
_cell_length_a       6.16529
_cell_length_b       6.28341
_cell_length_c       10.3762
_cell_angle_alpha    90.4499
_cell_angle_beta     104.922
_cell_angle_gamma    110.097

_space_group_name_H-M_alt    "P 1"
_space_group_IT_number       1

loop_
  _space_group_symop_operation_xyz
  'x, y, z'

loop_
  _atom_site_type_symbol
  _atom_site_label
  _atom_site_symmetry_multiplicity
  _atom_site_fract_x
  _atom_site_fract_y
  _atom_site_fract_z
  _atom_site_occupancy
  Mn  Mn1       1.0  0.97618  0.97644  0.00005  1.0000
  H   H1        1.0  0.61653  0.83105  0.27081  1.0000
  H   H2        1.0  0.38494  0.17986  0.72666  1.0000
  H   H3        1.0  0.36728  0.57607  0.24505  1.0000
  H   H4        1.0  0.64515  0.42622  0.75923  1.0000
  H   H5        1.0  0.47893  0.74605  0.40339  1.0000
  H   H6        1.0  0.53343  0.26479  0.59822  1.0000
  H   H7        1.0  0.28743  0.00914  0.43457  1.0000
  H   H8        1.0  0.72786  0.00574  0.56597  1.0000
  H   H9        1.0  0.09759  0.25371  0.48671  1.0000
  H   H10       1.0  0.91926  0.76340  0.51287  1.0000
  H   H11       1.0  0.81203  0.20788  0.37017  1.0000
  H   H12       1.0  0.19530  0.79901  0.63580  1.0000
  H   H13       1.0  0.06280  0.44492  0.36317  1.0000
  H   H14       1.0  0.93913  0.55788  0.62907  1.0000
  H   H15       1.0  0.56362  0.16588  0.08929  1.0000
  H   H16       1.0  0.43720  0.83949  0.91411  1.0000
  H   H17       1.0  0.09460  0.49024  0.90720  1.0000
  H   H18       1.0  0.90836  0.50832  0.08797  1.0000
  C   C1        1.0  0.44440  0.75115  0.29465  1.0000
  C   C2        1.0  0.56089  0.25350  0.70619  1.0000
  C   C3        1.0  0.27714  0.87706  0.24120  1.0000
  C   C4        1.0  0.71466  0.11463  0.75906  1.0000
  C   C5        1.0  0.21322  0.00484  0.32712  1.0000
  C   C6        1.0  0.78689  0.99517  0.67308  1.0000
  C   C7        1.0  0.05945  0.12707  0.28327  1.0000
  C   C8        1.0  0.93320  0.86565  0.71655  1.0000
  C   C9        1.0  0.00684  0.26519  0.38273  1.0000
  C   C10       1.0  0.99886  0.74071  0.61670  1.0000
  C   C11       1.0  0.53266  0.31546  0.04939  1.0000
  C   C12       1.0  0.46858  0.68907  0.95166  1.0000
  C   C13       1.0  0.27623  0.49258  0.94882  1.0000
  C   C14       1.0  0.72733  0.50835  0.04980  1.0000
  N   N1        1.0  0.30314  0.30224  0.99829  1.0000
  N   N2        1.0  0.70204  0.70327  0.00151  1.0000
  O   O1        1.0  0.19894  0.85793  0.11203  1.0000
  O   O2        1.0  0.77365  0.11535  0.88791  1.0000
  O   O3        1.0  0.95317  0.13256  0.15893  1.0000
  O   O4        1.0  0.02108  0.84214  0.84079  1.0000
