data_image0
_chemical_formula_structural       Zn4H36C52N4O20
_chemical_formula_sum              "Zn4 H36 C52 N4 O20"
_cell_length_a       10.0213
_cell_length_b       11.2658
_cell_length_c       11.3202
_cell_angle_alpha    104.953
_cell_angle_beta     96.4191
_cell_angle_gamma    108.24

_space_group_name_H-M_alt    "P 1"
_space_group_IT_number       1

loop_
  _space_group_symop_operation_xyz
  'x, y, z'

loop_
  _atom_site_type_symbol
  _atom_site_label
  _atom_site_symmetry_multiplicity
  _atom_site_fract_x
  _atom_site_fract_y
  _atom_site_fract_z
  _atom_site_occupancy
  Zn  Zn1       1.0  0.22023  0.35644  0.64502  1.0000
  Zn  Zn2       1.0  0.77977  0.64356  0.35498  1.0000
  Zn  Zn3       1.0  0.25155  0.64881  0.30073  1.0000
  Zn  Zn4       1.0  0.74845  0.35119  0.69927  1.0000
  H   H1        1.0  0.48765  0.47454  0.60460  1.0000
  H   H2        1.0  0.51235  0.52546  0.39540  1.0000
  H   H3        1.0  0.37428  0.40609  0.47246  1.0000
  H   H4        1.0  0.62572  0.59391  0.52754  1.0000
  H   H5        1.0  0.08577  0.43915  0.46090  1.0000
  H   H6        1.0  0.91423  0.56085  0.53910  1.0000
  H   H7        1.0  0.22111  0.54883  0.55191  1.0000
  H   H8        1.0  0.77889  0.45117  0.44809  1.0000
  H   H9        1.0  0.68635  0.84625  0.52537  1.0000
  H   H10       1.0  0.31365  0.15375  0.47463  1.0000
  H   H11       1.0  0.78940  0.03593  0.72036  1.0000
  H   H12       1.0  0.21060  0.96407  0.27964  1.0000
  H   H13       1.0  0.07753  0.41720  0.04714  1.0000
  H   H14       1.0  0.92247  0.58279  0.95286  1.0000
  H   H15       1.0  0.15116  0.99043  0.93007  1.0000
  H   H16       1.0  0.84884  0.00957  0.06993  1.0000
  H   H17       1.0  0.24906  0.14379  0.14735  1.0000
  H   H18       1.0  0.75094  0.85621  0.85265  1.0000
  H   H19       1.0  0.19232  0.97173  0.72014  1.0000
  H   H20       1.0  0.80767  0.02826  0.27986  1.0000
  H   H21       1.0  0.48922  0.50509  0.84418  1.0000
  H   H22       1.0  0.51078  0.49491  0.15582  1.0000
  H   H23       1.0  0.10704  0.56913  0.77026  1.0000
  H   H24       1.0  0.89296  0.43087  0.22974  1.0000
  H   H25       1.0  0.07593  0.79358  0.51721  1.0000
  H   H26       1.0  0.92407  0.20642  0.48278  1.0000
  H   H27       1.0  0.58534  0.70110  0.03274  1.0000
  H   H28       1.0  0.41466  0.29890  0.96726  1.0000
  H   H29       1.0  0.18733  0.76803  0.95673  1.0000
  H   H30       1.0  0.81267  0.23197  0.04328  1.0000
  H   H31       1.0  0.63259  0.97717  0.42863  1.0000
  H   H32       1.0  0.36741  0.02284  0.57137  1.0000
  H   H33       1.0  0.37135  0.98895  0.03622  1.0000
  H   H34       1.0  0.62865  0.01105  0.96378  1.0000
  H   H35       1.0  0.47504  0.19179  0.22216  1.0000
  H   H36       1.0  0.52496  0.80821  0.77784  1.0000
  C   C1        1.0  0.97148  0.28627  0.80344  1.0000
  C   C2        1.0  0.02852  0.71373  0.19656  1.0000
  C   C3        1.0  0.54475  0.74372  0.25179  1.0000
  C   C4        1.0  0.45525  0.25628  0.74821  1.0000
  C   C5        1.0  0.04540  0.24142  0.89711  1.0000
  C   C6        1.0  0.95460  0.75858  0.10289  1.0000
  C   C7        1.0  0.79962  0.88081  0.56945  1.0000
  C   C8        1.0  0.20038  0.11919  0.43055  1.0000
  C   C9        1.0  0.85783  0.98555  0.67939  1.0000
  C   C10       1.0  0.14217  0.01445  0.32061  1.0000
  C   C11       1.0  0.00120  0.01970  0.73871  1.0000
  C   C12       1.0  0.99880  0.98029  0.26129  1.0000
  C   C13       1.0  0.06494  0.11927  0.86310  1.0000
  C   C14       1.0  0.93505  0.88072  0.13690  1.0000
  C   C15       1.0  0.09543  0.32414  0.02085  1.0000
  C   C16       1.0  0.90457  0.67586  0.97915  1.0000
  C   C17       1.0  0.16949  0.28992  0.11135  1.0000
  C   C18       1.0  0.83051  0.71008  0.88865  1.0000
  C   C19       1.0  0.22413  0.38005  0.24384  1.0000
  C   C20       1.0  0.77587  0.61995  0.75616  1.0000
  C   C21       1.0  0.13984  0.08645  0.95475  1.0000
  C   C22       1.0  0.86016  0.91355  0.04525  1.0000
  C   C23       1.0  0.19273  0.17063  0.07660  1.0000
  C   C24       1.0  0.80727  0.82937  0.92340  1.0000
  C   C25       1.0  0.07998  0.94782  0.67975  1.0000
  C   C26       1.0  0.92002  0.05218  0.32024  1.0000
  C   C27       1.0  0.42500  0.56539  0.87306  1.0000
  C   C28       1.0  0.57500  0.43461  0.12694  1.0000
  C   C29       1.0  0.21266  0.60214  0.83081  1.0000
  C   C30       1.0  0.78734  0.39786  0.16919  1.0000
  C   C31       1.0  0.01575  0.84785  0.56737  1.0000
  C   C32       1.0  0.98425  0.15215  0.43263  1.0000
  C   C33       1.0  0.52038  0.86519  0.23843  1.0000
  C   C34       1.0  0.47962  0.13481  0.76157  1.0000
  C   C35       1.0  0.44552  0.86769  0.12630  1.0000
  C   C36       1.0  0.55448  0.13231  0.87370  1.0000
  C   C37       1.0  0.47787  0.67528  0.97866  1.0000
  C   C38       1.0  0.52213  0.32472  0.02133  1.0000
  C   C39       1.0  0.25903  0.71413  0.93435  1.0000
  C   C40       1.0  0.74098  0.28587  0.06565  1.0000
  C   C41       1.0  0.39356  0.75189  0.01287  1.0000
  C   C42       1.0  0.60644  0.24811  0.98713  1.0000
  C   C43       1.0  0.57462  0.97825  0.34197  1.0000
  C   C44       1.0  0.42538  0.02175  0.65803  1.0000
  C   C45       1.0  0.55980  0.09574  0.33597  1.0000
  C   C46       1.0  0.44020  0.90426  0.66403  1.0000
  C   C47       1.0  0.42679  0.98556  0.12307  1.0000
  C   C48       1.0  0.57321  0.01444  0.87693  1.0000
  C   C49       1.0  0.63084  0.21913  0.44393  1.0000
  C   C50       1.0  0.36916  0.78087  0.55607  1.0000
  C   C51       1.0  0.48483  0.09899  0.22551  1.0000
  C   C52       1.0  0.51517  0.90101  0.77449  1.0000
  N   N1        1.0  0.29374  0.52766  0.80074  1.0000
  N   N2        1.0  0.70626  0.47235  0.19926  1.0000
  N   N3        1.0  0.87661  0.81290  0.51343  1.0000
  N   N4        1.0  0.12339  0.18711  0.48657  1.0000
  O   O1        1.0  0.43557  0.64433  0.24690  1.0000
  O   O2        1.0  0.56443  0.35567  0.75310  1.0000
  O   O3        1.0  0.01684  0.29610  0.70584  1.0000
  O   O4        1.0  0.98317  0.70390  0.29416  1.0000
  O   O5        1.0  0.15738  0.46065  0.27973  1.0000
  O   O6        1.0  0.84262  0.53935  0.72027  1.0000
  O   O7        1.0  0.86084  0.31286  0.83116  1.0000
  O   O8        1.0  0.13916  0.68714  0.16884  1.0000
  O   O9        1.0  0.39797  0.40222  0.55864  1.0000
  O   O10       1.0  0.60203  0.59779  0.44136  1.0000
  O   O11       1.0  0.32788  0.37179  0.31048  1.0000
  O   O12       1.0  0.67212  0.62821  0.68952  1.0000
  O   O13       1.0  0.13274  0.47398  0.54933  1.0000
  O   O14       1.0  0.86726  0.52602  0.45067  1.0000
  O   O15       1.0  0.67320  0.74810  0.26647  1.0000
  O   O16       1.0  0.32680  0.25190  0.73353  1.0000
  O   O17       1.0  0.63399  0.32664  0.43013  1.0000
  O   O18       1.0  0.36601  0.67336  0.56987  1.0000
  O   O19       1.0  0.68723  0.20393  0.54539  1.0000
  O   O20       1.0  0.31277  0.79607  0.45461  1.0000
