data_image0
_chemical_formula_structural       Zn4H48C40N16O20
_chemical_formula_sum              "Zn4 H48 C40 N16 O20"
_cell_length_a       10.1407
_cell_length_b       11.0668
_cell_length_c       11.364
_cell_angle_alpha    90.0002
_cell_angle_beta     90.4796
_cell_angle_gamma    89.9999

_space_group_name_H-M_alt    "P 1"
_space_group_IT_number       1

loop_
  _space_group_symop_operation_xyz
  'x, y, z'

loop_
  _atom_site_type_symbol
  _atom_site_label
  _atom_site_symmetry_multiplicity
  _atom_site_fract_x
  _atom_site_fract_y
  _atom_site_fract_z
  _atom_site_occupancy
  Zn  Zn1       1.0  0.12027  0.89517  0.70069  1.0000
  Zn  Zn2       1.0  0.37973  0.39517  0.79931  1.0000
  Zn  Zn3       1.0  0.87973  0.10483  0.29931  1.0000
  Zn  Zn4       1.0  0.62027  0.60483  0.20069  1.0000
  H   H1        1.0  0.49568  0.12478  0.71977  1.0000
  H   H2        1.0  0.00432  0.62478  0.78023  1.0000
  H   H3        1.0  0.50432  0.87522  0.28023  1.0000
  H   H4        1.0  0.99569  0.37522  0.21977  1.0000
  H   H5        1.0  0.49572  0.07495  0.57132  1.0000
  H   H6        1.0  0.00428  0.57495  0.92868  1.0000
  H   H7        1.0  0.50428  0.92505  0.42867  1.0000
  H   H8        1.0  0.99573  0.42505  0.07132  1.0000
  H   H9        1.0  0.73425  0.07493  0.57278  1.0000
  H   H10       1.0  0.76575  0.57493  0.92722  1.0000
  H   H11       1.0  0.26575  0.92507  0.42722  1.0000
  H   H12       1.0  0.23425  0.42507  0.07278  1.0000
  H   H13       1.0  0.74632  0.11753  0.72360  1.0000
  H   H14       1.0  0.75368  0.61753  0.77640  1.0000
  H   H15       1.0  0.25368  0.88246  0.27640  1.0000
  H   H16       1.0  0.24632  0.38247  0.22360  1.0000
  H   H17       1.0  0.90978  0.89528  0.90913  1.0000
  H   H18       1.0  0.59022  0.39528  0.59087  1.0000
  H   H19       1.0  0.09022  0.10472  0.09087  1.0000
  H   H20       1.0  0.40978  0.60471  0.40913  1.0000
  H   H21       1.0  0.97243  0.79347  0.12689  1.0000
  H   H22       1.0  0.52757  0.29347  0.37311  1.0000
  H   H23       1.0  0.02757  0.20653  0.87311  1.0000
  H   H24       1.0  0.47244  0.70653  0.62689  1.0000
  H   H25       1.0  0.21274  0.72018  0.10680  1.0000
  H   H26       1.0  0.28726  0.22018  0.39320  1.0000
  H   H27       1.0  0.78726  0.27982  0.89320  1.0000
  H   H28       1.0  0.71274  0.77982  0.60680  1.0000
  H   H29       1.0  0.30136  0.76842  0.90183  1.0000
  H   H30       1.0  0.19864  0.26842  0.59817  1.0000
  H   H31       1.0  0.69864  0.23158  0.09817  1.0000
  H   H32       1.0  0.80136  0.73158  0.40183  1.0000
  H   H33       1.0  0.24227  0.62485  0.66555  1.0000
  H   H34       1.0  0.25773  0.12485  0.83446  1.0000
  H   H35       1.0  0.75773  0.37515  0.33445  1.0000
  H   H36       1.0  0.74227  0.87515  0.16554  1.0000
  H   H37       1.0  0.18382  0.49624  0.46054  1.0000
  H   H38       1.0  0.31617  0.99624  0.03947  1.0000
  H   H39       1.0  0.81618  0.50376  0.53946  1.0000
  H   H40       1.0  0.68382  0.00376  0.96054  1.0000
  H   H41       1.0  0.03650  0.64111  0.33782  1.0000
  H   H42       1.0  0.46350  0.14112  0.16219  1.0000
  H   H43       1.0  0.96351  0.35889  0.66218  1.0000
  H   H44       1.0  0.53649  0.85889  0.83782  1.0000
  H   H45       1.0  0.00803  0.84223  0.44063  1.0000
  H   H46       1.0  0.49198  0.34223  0.05937  1.0000
  H   H47       1.0  0.99198  0.15777  0.55937  1.0000
  H   H48       1.0  0.50803  0.65777  0.94063  1.0000
  C   C1        1.0  0.38066  0.96455  0.68904  1.0000
  C   C2        1.0  0.11935  0.46455  0.81096  1.0000
  C   C3        1.0  0.61934  0.03544  0.31096  1.0000
  C   C4        1.0  0.88066  0.53545  0.18904  1.0000
  C   C5        1.0  0.50006  0.04336  0.66347  1.0000
  C   C6        1.0  0.99993  0.54336  0.83653  1.0000
  C   C7        1.0  0.49993  0.95664  0.33653  1.0000
  C   C8        1.0  0.00007  0.45664  0.16347  1.0000
  C   C9        1.0  0.73425  0.03951  0.66385  1.0000
  C   C10       1.0  0.76575  0.53951  0.83615  1.0000
  C   C11       1.0  0.26575  0.96048  0.33615  1.0000
  C   C12       1.0  0.23425  0.46049  0.16385  1.0000
  C   C13       1.0  0.85161  0.95422  0.67778  1.0000
  C   C14       1.0  0.64840  0.45422  0.82221  1.0000
  C   C15       1.0  0.14839  0.04578  0.32221  1.0000
  C   C16       1.0  0.35161  0.54578  0.17779  1.0000
  C   C17       1.0  0.00079  0.85540  0.94035  1.0000
  C   C18       1.0  0.49921  0.35540  0.55964  1.0000
  C   C19       1.0  0.99922  0.14460  0.05965  1.0000
  C   C20       1.0  0.50079  0.64460  0.44036  1.0000
  C   C21       1.0  0.03017  0.80593  0.04821  1.0000
  C   C22       1.0  0.46983  0.30593  0.45179  1.0000
  C   C23       1.0  0.96984  0.19407  0.95180  1.0000
  C   C24       1.0  0.53017  0.69407  0.54821  1.0000
  C   C25       1.0  0.20414  0.79076  0.93330  1.0000
  C   C26       1.0  0.29586  0.29076  0.56670  1.0000
  C   C27       1.0  0.79586  0.20924  0.06670  1.0000
  C   C28       1.0  0.70414  0.70924  0.43330  1.0000
  C   C29       1.0  0.18477  0.65063  0.58879  1.0000
  C   C30       1.0  0.31522  0.15062  0.91122  1.0000
  C   C31       1.0  0.81522  0.34938  0.41121  1.0000
  C   C32       1.0  0.68478  0.84937  0.08878  1.0000
  C   C33       1.0  0.15673  0.58653  0.48792  1.0000
  C   C34       1.0  0.34327  0.08653  0.01208  1.0000
  C   C35       1.0  0.84327  0.41347  0.51208  1.0000
  C   C36       1.0  0.65673  0.91347  0.98792  1.0000
  C   C37       1.0  0.06097  0.76547  0.47715  1.0000
  C   C38       1.0  0.43903  0.26548  0.02284  1.0000
  C   C39       1.0  0.93904  0.23453  0.52284  1.0000
  C   C40       1.0  0.56096  0.73452  0.97716  1.0000
  N   N1        1.0  0.11047  0.84577  0.86916  1.0000
  N   N2        1.0  0.38953  0.34577  0.63084  1.0000
  N   N3        1.0  0.88953  0.15423  0.13083  1.0000
  N   N4        1.0  0.61047  0.65423  0.36916  1.0000
  N   N5        1.0  0.15874  0.76630  0.04174  1.0000
  N   N6        1.0  0.34126  0.26629  0.45826  1.0000
  N   N7        1.0  0.84127  0.23371  0.95826  1.0000
  N   N8        1.0  0.65874  0.73370  0.54174  1.0000
  N   N9        1.0  0.12412  0.76239  0.58096  1.0000
  N   N10       1.0  0.37588  0.26238  0.91903  1.0000
  N   N11       1.0  0.87588  0.23761  0.41904  1.0000
  N   N12       1.0  0.62412  0.73761  0.08096  1.0000
  N   N13       1.0  0.07971  0.66104  0.41891  1.0000
  N   N14       1.0  0.42028  0.16104  0.08110  1.0000
  N   N15       1.0  0.92029  0.33896  0.58109  1.0000
  N   N16       1.0  0.57971  0.83896  0.91891  1.0000
  O   O1        1.0  0.26836  0.00819  0.65629  1.0000
  O   O2        1.0  0.23164  0.50819  0.84371  1.0000
  O   O3        1.0  0.73164  0.99181  0.34371  1.0000
  O   O4        1.0  0.76836  0.49181  0.15629  1.0000
  O   O5        1.0  0.39545  0.86516  0.74086  1.0000
  O   O6        1.0  0.10455  0.36516  0.75914  1.0000
  O   O7        1.0  0.60454  0.13484  0.25914  1.0000
  O   O8        1.0  0.89546  0.63484  0.24086  1.0000
  O   O9        1.0  0.61606  0.97498  0.68672  1.0000
  O   O10       1.0  0.88394  0.47498  0.81328  1.0000
  O   O11       1.0  0.38394  0.02501  0.31328  1.0000
  O   O12       1.0  0.11606  0.52502  0.18673  1.0000
  O   O13       1.0  0.83499  0.84228  0.68664  1.0000
  O   O14       1.0  0.66502  0.34228  0.81335  1.0000
  O   O15       1.0  0.16501  0.15772  0.31336  1.0000
  O   O16       1.0  0.33498  0.65772  0.18665  1.0000
  O   O17       1.0  0.96532  0.00676  0.67870  1.0000
  O   O18       1.0  0.53468  0.50675  0.82130  1.0000
  O   O19       1.0  0.03468  0.99325  0.32130  1.0000
  O   O20       1.0  0.46532  0.49325  0.17870  1.0000
