data_image0
_chemical_formula_structural       Cd3H20C36O20
_chemical_formula_sum              "Cd3 H20 C36 O20"
_cell_length_a       9.94666
_cell_length_b       10.4728
_cell_length_c       14.7506
_cell_angle_alpha    106.325
_cell_angle_beta     108.892
_cell_angle_gamma    90.7874

_space_group_name_H-M_alt    "P 1"
_space_group_IT_number       1

loop_
  _space_group_symop_operation_xyz
  'x, y, z'

loop_
  _atom_site_type_symbol
  _atom_site_label
  _atom_site_symmetry_multiplicity
  _atom_site_fract_x
  _atom_site_fract_y
  _atom_site_fract_z
  _atom_site_occupancy
  Cd  Cd1       1.0  0.00001  1.00000  0.00000  1.0000
  Cd  Cd2       1.0  0.10010  0.30182  0.20838  1.0000
  Cd  Cd3       1.0  0.89991  0.69819  0.79161  1.0000
  H   H1        1.0  0.57035  0.26296  0.17715  1.0000
  H   H2        1.0  0.42967  0.73704  0.82286  1.0000
  H   H3        1.0  0.69468  0.11329  0.91643  1.0000
  H   H4        1.0  0.30532  0.88669  0.08357  1.0000
  H   H5        1.0  0.24471  0.10967  0.88507  1.0000
  H   H6        1.0  0.75530  0.89033  0.11494  1.0000
  H   H7        1.0  0.10556  0.75458  0.19004  1.0000
  H   H8        1.0  0.89442  0.24543  0.80995  1.0000
  H   H9        1.0  0.31536  0.70459  0.47992  1.0000
  H   H10       1.0  0.68460  0.29542  0.52008  1.0000
  H   H11       1.0  0.58743  0.93005  0.78737  1.0000
  H   H12       1.0  0.41255  0.06992  0.21262  1.0000
  H   H13       1.0  0.58584  0.07022  0.73967  1.0000
  H   H14       1.0  0.41416  0.92976  0.26034  1.0000
  H   H15       1.0  0.27247  0.10419  0.44945  1.0000
  H   H16       1.0  0.72753  0.89582  0.55055  1.0000
  H   H17       1.0  0.51339  0.83195  0.61260  1.0000
  H   H18       1.0  0.48659  0.16804  0.38739  1.0000
  H   H19       1.0  0.35177  0.83156  0.64182  1.0000
  H   H20       1.0  0.64821  0.16844  0.35818  1.0000
  C   C1        1.0  0.80081  0.22761  0.11774  1.0000
  C   C2        1.0  0.19921  0.77238  0.88226  1.0000
  C   C3        1.0  0.39493  0.18857  0.03568  1.0000
  C   C4        1.0  0.60508  0.81143  0.96433  1.0000
  C   C5        1.0  0.53992  0.21723  0.09623  1.0000
  C   C6        1.0  0.46009  0.78276  0.90377  1.0000
  C   C7        1.0  0.61008  0.13322  0.94874  1.0000
  C   C8        1.0  0.38993  0.86676  0.05125  1.0000
  C   C9        1.0  0.64670  0.18969  0.05232  1.0000
  C   C10       1.0  0.35332  0.81030  0.94768  1.0000
  C   C11       1.0  0.35699  0.13311  0.93230  1.0000
  C   C12       1.0  0.64302  0.86689  0.06770  1.0000
  C   C13       1.0  0.16859  0.56843  0.28968  1.0000
  C   C14       1.0  0.83140  0.43161  0.71032  1.0000
  C   C15       1.0  0.46425  0.10334  0.88875  1.0000
  C   C16       1.0  0.53575  0.89666  0.11126  1.0000
  C   C17       1.0  0.14156  0.02760  0.24633  1.0000
  C   C18       1.0  0.85846  0.97240  0.75366  1.0000
  C   C19       1.0  0.27859  0.21315  0.08076  1.0000
  C   C20       1.0  0.72143  0.78686  0.91925  1.0000
  C   C21       1.0  0.16024  0.79892  0.27053  1.0000
  C   C22       1.0  0.83975  0.20109  0.72947  1.0000
  C   C23       1.0  0.20471  0.71682  0.33249  1.0000
  C   C24       1.0  0.79528  0.28318  0.66751  1.0000
  C   C25       1.0  0.27964  0.77233  0.43517  1.0000
  C   C26       1.0  0.72033  0.22767  0.56484  1.0000
  C   C27       1.0  0.18499  0.93898  0.31316  1.0000
  C   C28       1.0  0.81500  0.06104  0.68684  1.0000
  C   C29       1.0  0.51888  0.98819  0.74297  1.0000
  C   C30       1.0  0.48112  0.01180  0.25703  1.0000
  C   C31       1.0  0.25495  0.99574  0.41599  1.0000
  C   C32       1.0  0.74504  0.00427  0.58401  1.0000
  C   C33       1.0  0.30599  0.91241  0.47670  1.0000
  C   C34       1.0  0.69400  0.08760  0.52330  1.0000
  C   C35       1.0  0.43879  0.89581  0.63979  1.0000
  C   C36       1.0  0.56119  0.10418  0.36021  1.0000
  O   O1        1.0  0.89660  0.17939  0.07954  1.0000
  O   O2        1.0  0.10340  0.82060  0.92045  1.0000
  O   O3        1.0  0.41603  0.04261  0.78861  1.0000
  O   O4        1.0  0.58395  0.95738  0.21139  1.0000
  O   O5        1.0  0.83279  0.30769  0.20453  1.0000
  O   O6        1.0  0.16722  0.69230  0.79545  1.0000
  O   O7        1.0  0.20898  0.49489  0.34698  1.0000
  O   O8        1.0  0.79100  0.50512  0.65301  1.0000
  O   O9        1.0  0.31393  0.26694  0.17513  1.0000
  O   O10       1.0  0.68610  0.73307  0.82488  1.0000
  O   O11       1.0  0.09632  0.51832  0.19616  1.0000
  O   O12       1.0  0.90370  0.48168  0.80384  1.0000
  O   O13       1.0  0.15020  0.17750  0.02066  1.0000
  O   O14       1.0  0.84982  0.82251  0.97936  1.0000
  O   O15       1.0  0.12362  0.97467  0.15386  1.0000
  O   O16       1.0  0.87639  0.02533  0.84615  1.0000
  O   O17       1.0  0.38140  0.97635  0.57481  1.0000
  O   O18       1.0  0.61859  0.02365  0.42519  1.0000
  O   O19       1.0  0.13116  0.14861  0.28992  1.0000
  O   O20       1.0  0.86885  0.85142  0.71009  1.0000
