data_image0
_chemical_formula_structural       Cr2H24C20S4N4O16
_chemical_formula_sum              "Cr2 H24 C20 S4 N4 O16"
_cell_length_a       7.1456
_cell_length_b       7.77895
_cell_length_c       12.8286
_cell_angle_alpha    89.9997
_cell_angle_beta     89.9991
_cell_angle_gamma    100.412

_space_group_name_H-M_alt    "P 1"
_space_group_IT_number       1

loop_
  _space_group_symop_operation_xyz
  'x, y, z'

loop_
  _atom_site_type_symbol
  _atom_site_label
  _atom_site_symmetry_multiplicity
  _atom_site_fract_x
  _atom_site_fract_y
  _atom_site_fract_z
  _atom_site_occupancy
  Cr  Cr1       1.0  0.50000  0.50000  0.50000  1.0000
  Cr  Cr2       1.0  1.00000  0.50000  1.00000  1.0000
  H   H1        1.0  0.84620  0.65217  0.57202  1.0000
  H   H2        1.0  0.65378  0.34782  0.07201  1.0000
  H   H3        1.0  0.15380  0.34783  0.42798  1.0000
  H   H4        1.0  0.34622  0.65218  0.92799  1.0000
  H   H5        1.0  0.69874  0.62760  0.66738  1.0000
  H   H6        1.0  0.80125  0.37240  0.16739  1.0000
  H   H7        1.0  0.30126  0.37240  0.33261  1.0000
  H   H8        1.0  0.19875  0.62760  0.83261  1.0000
  H   H9        1.0  0.33336  0.10609  0.50091  1.0000
  H   H10       1.0  0.16665  0.89391  0.00091  1.0000
  H   H11       1.0  0.66664  0.89391  0.49909  1.0000
  H   H12       1.0  0.83335  0.10609  0.99909  1.0000
  H   H13       1.0  0.21550  0.95499  0.82104  1.0000
  H   H14       1.0  0.28449  0.04500  0.32105  1.0000
  H   H15       1.0  0.78451  0.04501  0.17896  1.0000
  H   H16       1.0  0.71551  0.95500  0.67895  1.0000
  H   H17       1.0  0.31831  0.27342  0.87033  1.0000
  H   H18       1.0  0.18166  0.72656  0.37032  1.0000
  H   H19       1.0  0.68168  0.72658  0.12967  1.0000
  H   H20       1.0  0.81833  0.27344  0.62968  1.0000
  H   H21       1.0  0.41558  0.48977  0.72966  1.0000
  H   H22       1.0  0.08440  0.51023  0.22965  1.0000
  H   H23       1.0  0.58442  0.51023  0.27034  1.0000
  H   H24       1.0  0.91559  0.48977  0.77035  1.0000
  C   C1        1.0  0.32530  0.13811  0.58311  1.0000
  C   C2        1.0  0.17470  0.86189  0.08311  1.0000
  C   C3        1.0  0.67470  0.86189  0.41689  1.0000
  C   C4        1.0  0.82530  0.13811  0.91689  1.0000
  C   C5        1.0  0.26454  0.00974  0.65763  1.0000
  C   C6        1.0  0.23546  0.99026  0.15763  1.0000
  C   C7        1.0  0.73546  0.99026  0.34237  1.0000
  C   C8        1.0  0.76454  0.00974  0.84237  1.0000
  C   C9        1.0  0.26163  0.05540  0.76276  1.0000
  C   C10       1.0  0.23837  0.94459  0.26276  1.0000
  C   C11       1.0  0.73837  0.94460  0.23724  1.0000
  C   C12       1.0  0.76163  0.05541  0.73724  1.0000
  C   C13       1.0  0.31689  0.23043  0.78959  1.0000
  C   C14       1.0  0.18309  0.76956  0.28959  1.0000
  C   C15       1.0  0.68311  0.76957  0.21041  1.0000
  C   C16       1.0  0.81691  0.23044  0.71041  1.0000
  C   C17       1.0  0.37285  0.35206  0.71114  1.0000
  C   C18       1.0  0.12714  0.64794  0.21114  1.0000
  C   C19       1.0  0.62715  0.64794  0.28886  1.0000
  C   C20       1.0  0.87286  0.35206  0.78886  1.0000
  S   S1        1.0  0.19982  0.78671  0.61944  1.0000
  S   S2        1.0  0.30018  0.21329  0.11944  1.0000
  S   S3        1.0  0.80018  0.21328  0.38056  1.0000
  S   S4        1.0  0.69982  0.78671  0.88056  1.0000
  N   N1        1.0  0.38004  0.30753  0.60947  1.0000
  N   N2        1.0  0.11996  0.69247  0.10946  1.0000
  N   N3        1.0  0.61996  0.69247  0.39053  1.0000
  N   N4        1.0  0.88004  0.30753  0.89054  1.0000
  O   O1        1.0  0.37451  0.73922  0.57699  1.0000
  O   O2        1.0  0.12550  0.26077  0.07699  1.0000
  O   O3        1.0  0.62549  0.26077  0.42301  1.0000
  O   O4        1.0  0.87450  0.73923  0.92301  1.0000
  O   O5        1.0  0.13109  0.69195  0.71491  1.0000
  O   O6        1.0  0.36891  0.30805  0.21491  1.0000
  O   O7        1.0  0.86891  0.30805  0.28508  1.0000
  O   O8        1.0  0.63109  0.69195  0.78509  1.0000
  O   O9        1.0  0.04887  0.77961  0.54041  1.0000
  O   O10       1.0  0.45113  0.22039  0.04041  1.0000
  O   O11       1.0  0.95113  0.22039  0.45959  1.0000
  O   O12       1.0  0.54887  0.77961  0.95959  1.0000
  O   O13       1.0  0.72389  0.58075  0.59762  1.0000
  O   O14       1.0  0.77611  0.41925  0.09761  1.0000
  O   O15       1.0  0.27611  0.41924  0.40238  1.0000
  O   O16       1.0  0.22388  0.58075  0.90239  1.0000
