data_image0
_chemical_formula_structural       Cu2H8C10Br2N14
_chemical_formula_sum              "Cu2 H8 C10 Br2 N14"
_cell_length_a       5.71946
_cell_length_b       8.42097
_cell_length_c       10.2017
_cell_angle_alpha    81.1335
_cell_angle_beta     74.4634
_cell_angle_gamma    87.6048

_space_group_name_H-M_alt    "P 1"
_space_group_IT_number       1

loop_
  _space_group_symop_operation_xyz
  'x, y, z'

loop_
  _atom_site_type_symbol
  _atom_site_label
  _atom_site_symmetry_multiplicity
  _atom_site_fract_x
  _atom_site_fract_y
  _atom_site_fract_z
  _atom_site_occupancy
  Cu  Cu1       1.0  0.79132  0.47178  0.43117  1.0000
  Cu  Cu2       1.0  0.20869  0.52822  0.56883  1.0000
  H   H1        1.0  0.05571  0.21777  0.99844  1.0000
  H   H2        1.0  0.94429  0.78224  0.00156  1.0000
  H   H3        1.0  0.70535  0.02231  0.05895  1.0000
  H   H4        1.0  0.29465  0.97769  0.94104  1.0000
  H   H5        1.0  0.39976  0.01386  0.28854  1.0000
  H   H6        1.0  0.60024  0.98615  0.71146  1.0000
  H   H7        1.0  0.45613  0.20025  0.44793  1.0000
  H   H8        1.0  0.54386  0.79975  0.55207  1.0000
  C   C1        1.0  0.92778  0.30960  0.19039  1.0000
  C   C2        1.0  0.07222  0.69040  0.80961  1.0000
  C   C3        1.0  0.91690  0.20885  0.09600  1.0000
  C   C4        1.0  0.08310  0.79115  0.90400  1.0000
  C   C5        1.0  0.72388  0.10133  0.13070  1.0000
  C   C6        1.0  0.27612  0.89867  0.86930  1.0000
  C   C7        1.0  0.55393  0.09557  0.25826  1.0000
  C   C8        1.0  0.44607  0.90443  0.74174  1.0000
  C   C9        1.0  0.58102  0.19889  0.34682  1.0000
  C   C10       1.0  0.41898  0.80111  0.65318  1.0000
  Br  Br1       1.0  0.17665  0.46601  0.14746  1.0000
  Br  Br2       1.0  0.82334  0.53399  0.85254  1.0000
  N   N1        1.0  0.76430  0.30611  0.31257  1.0000
  N   N2        1.0  0.23570  0.69389  0.68743  1.0000
  N   N3        1.0  0.03603  0.34889  0.51766  1.0000
  N   N4        1.0  0.96397  0.65110  0.48233  1.0000
  N   N5        1.0  0.01403  0.21114  0.57660  1.0000
  N   N6        1.0  0.98596  0.78885  0.42340  1.0000
  N   N7        1.0  0.99800  0.07915  0.63144  1.0000
  N   N8        1.0  0.00198  0.92086  0.36857  1.0000
  N   N9        1.0  0.54479  0.62137  0.37831  1.0000
  N   N10       1.0  0.45521  0.37863  0.62169  1.0000
  N   N11       1.0  0.54361  0.67171  0.26110  1.0000
  N   N12       1.0  0.45640  0.32829  0.73889  1.0000
  N   N13       1.0  0.53335  0.72360  0.14975  1.0000
  N   N14       1.0  0.46666  0.27639  0.85025  1.0000
