data_image0
_chemical_formula_structural       In2H34C14S4
_chemical_formula_sum              "In2 H34 C14 S4"
_cell_length_a       7.77141
_cell_length_b       8.76692
_cell_length_c       9.13456
_cell_angle_alpha    70.4097
_cell_angle_beta     89.2616
_cell_angle_gamma    64.9987

_space_group_name_H-M_alt    "P 1"
_space_group_IT_number       1

loop_
  _space_group_symop_operation_xyz
  'x, y, z'

loop_
  _atom_site_type_symbol
  _atom_site_label
  _atom_site_symmetry_multiplicity
  _atom_site_fract_x
  _atom_site_fract_y
  _atom_site_fract_z
  _atom_site_occupancy
  In  In1       1.0  0.69572  0.66391  0.75419  1.0000
  In  In2       1.0  0.30429  0.33610  0.24581  1.0000
  H   H1        1.0  0.36493  0.44863  0.69802  1.0000
  H   H2        1.0  0.63507  0.55137  0.30197  1.0000
  H   H3        1.0  0.52471  0.32171  0.87919  1.0000
  H   H4        1.0  0.47529  0.67830  0.12080  1.0000
  H   H5        1.0  0.47421  0.16935  0.63120  1.0000
  H   H6        1.0  0.52579  0.83065  0.36880  1.0000
  H   H7        1.0  0.37989  0.13992  0.81222  1.0000
  H   H8        1.0  0.62010  0.86009  0.18778  1.0000
  H   H9        1.0  0.01423  0.19736  0.70473  1.0000
  H   H10       1.0  0.98577  0.80264  0.29528  1.0000
  H   H11       1.0  0.91424  0.17000  0.88324  1.0000
  H   H12       1.0  0.08575  0.83001  0.11676  1.0000
  H   H13       1.0  0.02936  0.88933  0.81151  1.0000
  H   H14       1.0  0.97064  0.11067  0.18850  1.0000
  H   H15       1.0  0.86860  0.02062  0.63165  1.0000
  H   H16       1.0  0.13141  0.97937  0.36835  1.0000
  H   H17       1.0  0.31694  0.77344  0.63702  1.0000
  H   H18       1.0  0.68306  0.22655  0.36298  1.0000
  H   H19       1.0  0.36571  0.96504  0.56704  1.0000
  H   H20       1.0  0.63428  0.03496  0.43295  1.0000
  H   H21       1.0  0.32211  0.88820  0.76408  1.0000
  H   H22       1.0  0.67788  0.11179  0.23592  1.0000
  H   H23       1.0  0.04491  0.52799  0.65258  1.0000
  H   H24       1.0  0.95510  0.47199  0.34744  1.0000
  H   H25       1.0  0.96636  0.76478  0.59609  1.0000
  H   H26       1.0  0.03366  0.23521  0.40393  1.0000
  H   H27       1.0  0.86694  0.68001  0.48550  1.0000
  H   H28       1.0  0.13308  0.31997  0.51451  1.0000
  H   H29       1.0  0.69585  0.40244  0.03421  1.0000
  H   H30       1.0  0.30414  0.59757  0.96578  1.0000
  H   H31       1.0  0.93588  0.35996  0.99755  1.0000
  H   H32       1.0  0.06412  0.64005  0.00244  1.0000
  H   H33       1.0  0.80785  0.52456  0.07948  1.0000
  H   H34       1.0  0.19215  0.47544  0.92052  1.0000
  C   C1        1.0  0.50165  0.33006  0.75779  1.0000
  C   C2        1.0  0.49835  0.66995  0.24221  1.0000
  C   C3        1.0  0.49687  0.16014  0.75292  1.0000
  C   C4        1.0  0.50313  0.83987  0.24707  1.0000
  C   C5        1.0  0.89561  0.17804  0.76142  1.0000
  C   C6        1.0  0.10438  0.82197  0.23858  1.0000
  C   C7        1.0  0.89241  0.00861  0.75417  1.0000
  C   C8        1.0  0.10759  0.99138  0.24583  1.0000
  C   C9        1.0  0.38861  0.84448  0.66934  1.0000
  C   C10       1.0  0.61138  0.15552  0.33066  1.0000
  C   C11       1.0  0.91971  0.66077  0.60421  1.0000
  C   C12       1.0  0.08031  0.33922  0.39580  1.0000
  C   C13       1.0  0.79289  0.46492  0.99531  1.0000
  C   C14       1.0  0.20711  0.53509  0.00468  1.0000
  S   S1        1.0  0.71274  0.95543  0.85853  1.0000
  S   S2        1.0  0.28726  0.04457  0.14147  1.0000
  S   S3        1.0  0.68096  0.38067  0.65135  1.0000
  S   S4        1.0  0.31904  0.61933  0.34864  1.0000
