data_image0
_chemical_formula_structural       Zn2H34C44N10O10
_chemical_formula_sum              "Zn2 H34 C44 N10 O10"
_cell_length_a       8.47751
_cell_length_b       10.2503
_cell_length_c       12.9525
_cell_angle_alpha    75.0999
_cell_angle_beta     87.4474
_cell_angle_gamma    77.4258

_space_group_name_H-M_alt    "P 1"
_space_group_IT_number       1

loop_
  _space_group_symop_operation_xyz
  'x, y, z'

loop_
  _atom_site_type_symbol
  _atom_site_label
  _atom_site_symmetry_multiplicity
  _atom_site_fract_x
  _atom_site_fract_y
  _atom_site_fract_z
  _atom_site_occupancy
  Zn  Zn1       1.0  0.13944  0.22290  0.15291  1.0000
  Zn  Zn2       1.0  0.86056  0.77711  0.84709  1.0000
  H   H1        1.0  0.09705  0.73885  0.13048  1.0000
  H   H2        1.0  0.90295  0.26116  0.86952  1.0000
  H   H3        1.0  0.36173  0.39600  0.36707  1.0000
  H   H4        1.0  0.63825  0.60400  0.63293  1.0000
  H   H5        1.0  0.32505  0.81239  0.39483  1.0000
  H   H6        1.0  0.67495  0.18761  0.60517  1.0000
  H   H7        1.0  0.85255  0.94106  0.03396  1.0000
  H   H8        1.0  0.14745  0.05895  0.96604  1.0000
  H   H9        1.0  0.93176  0.08207  0.33026  1.0000
  H   H10       1.0  0.06824  0.91792  0.66974  1.0000
  H   H11       1.0  0.47595  0.14100  0.31510  1.0000
  H   H12       1.0  0.52405  0.85899  0.68490  1.0000
  H   H13       1.0  0.57679  0.15808  0.42616  1.0000
  H   H14       1.0  0.42320  0.84192  0.57384  1.0000
  H   H15       1.0  0.48591  0.99729  0.19924  1.0000
  H   H16       1.0  0.51409  0.00270  0.80077  1.0000
  H   H17       1.0  0.66735  0.05356  0.15707  1.0000
  H   H18       1.0  0.33265  0.94644  0.84294  1.0000
  H   H19       1.0  0.58755  0.65448  0.98921  1.0000
  H   H20       1.0  0.41246  0.34553  0.01078  1.0000
  H   H21       1.0  0.78610  0.69346  0.27005  1.0000
  H   H22       1.0  0.21392  0.30654  0.72995  1.0000
  H   H23       1.0  0.45542  0.76222  0.15818  1.0000
  H   H24       1.0  0.54459  0.23777  0.84183  1.0000
  H   H25       1.0  0.73621  0.96425  0.54184  1.0000
  H   H26       1.0  0.26379  0.03574  0.45817  1.0000
  H   H27       1.0  0.79080  0.44060  0.08017  1.0000
  H   H28       1.0  0.20920  0.55940  0.91983  1.0000
  H   H29       1.0  0.51277  0.36430  0.18669  1.0000
  H   H30       1.0  0.48723  0.63569  0.81332  1.0000
  H   H31       1.0  0.88417  0.72026  0.58661  1.0000
  H   H32       1.0  0.11583  0.27974  0.41339  1.0000
  H   H33       1.0  0.90895  0.58431  0.44872  1.0000
  H   H34       1.0  0.09106  0.41568  0.55128  1.0000
  C   C1        1.0  0.16836  0.69984  0.20415  1.0000
  C   C2        1.0  0.83163  0.30017  0.79584  1.0000
  C   C3        1.0  0.22632  0.55769  0.24295  1.0000
  C   C4        1.0  0.77366  0.44233  0.75705  1.0000
  C   C5        1.0  0.20460  0.79211  0.25793  1.0000
  C   C6        1.0  0.79540  0.20789  0.74207  1.0000
  C   C7        1.0  0.31908  0.50654  0.33695  1.0000
  C   C8        1.0  0.68090  0.49347  0.66305  1.0000
  C   C9        1.0  0.29655  0.74155  0.35233  1.0000
  C   C10       1.0  0.70344  0.25845  0.64767  1.0000
  C   C11       1.0  0.76311  0.87769  0.04291  1.0000
  C   C12       1.0  0.23689  0.12232  0.95709  1.0000
  C   C13       1.0  0.14979  0.94475  0.21013  1.0000
  C   C14       1.0  0.85021  0.05525  0.78987  1.0000
  C   C15       1.0  0.35236  0.59921  0.39065  1.0000
  C   C16       1.0  0.64762  0.40079  0.60935  1.0000
  C   C17       1.0  0.18961  0.45947  0.18358  1.0000
  C   C18       1.0  0.81038  0.54054  0.81642  1.0000
  C   C19       1.0  0.85730  0.17114  0.27709  1.0000
  C   C20       1.0  0.14271  0.82886  0.72291  1.0000
  C   C21       1.0  0.69077  0.89153  0.30306  1.0000
  C   C22       1.0  0.30924  0.10847  0.69694  1.0000
  C   C23       1.0  0.67613  0.96845  0.38059  1.0000
  C   C24       1.0  0.32387  0.03155  0.61941  1.0000
  C   C25       1.0  0.59483  0.11996  0.35371  1.0000
  C   C26       1.0  0.40518  0.88004  0.64629  1.0000
  C   C27       1.0  0.61760  0.96193  0.19302  1.0000
  C   C28       1.0  0.38240  0.03806  0.80699  1.0000
  C   C29       1.0  0.62300  0.72952  0.02381  1.0000
  C   C30       1.0  0.37700  0.27048  0.97619  1.0000
  C   C31       1.0  0.77403  0.75366  0.32926  1.0000
  C   C32       1.0  0.22598  0.24633  0.67075  1.0000
  C   C33       1.0  0.55627  0.78212  0.10687  1.0000
  C   C34       1.0  0.44374  0.21788  0.89313  1.0000
  C   C35       1.0  0.74653  0.90504  0.48181  1.0000
  C   C36       1.0  0.25347  0.09495  0.51820  1.0000
  C   C37       1.0  0.77679  0.35666  0.14821  1.0000
  C   C38       1.0  0.22322  0.64333  0.85179  1.0000
  C   C39       1.0  0.64075  0.32028  0.19862  1.0000
  C   C40       1.0  0.35925  0.67971  0.80138  1.0000
  C   C41       1.0  0.83083  0.76741  0.50714  1.0000
  C   C42       1.0  0.16917  0.23259  0.49286  1.0000
  C   C43       1.0  0.84398  0.69194  0.43050  1.0000
  C   C44       1.0  0.15604  0.30805  0.56951  1.0000
  N   N1        1.0  0.75150  0.79005  0.98453  1.0000
  N   N2        1.0  0.24850  0.20996  0.01547  1.0000
  N   N3        1.0  0.91056  0.26204  0.19788  1.0000
  N   N4        1.0  0.08944  0.73795  0.80212  1.0000
  N   N5        1.0  0.69432  0.20228  0.27946  1.0000
  N   N6        1.0  0.30569  0.79772  0.72054  1.0000
  N   N7        1.0  0.64572  0.87599  0.11744  1.0000
  N   N8        1.0  0.35429  0.12401  0.88256  1.0000
  N   N9        1.0  0.43490  0.55248  0.49289  1.0000
  N   N10       1.0  0.56508  0.44752  0.50711  1.0000
  O   O1        1.0  0.25367  0.32923  0.22452  1.0000
  O   O2        1.0  0.74633  0.67078  0.77547  1.0000
  O   O3        1.0  0.21813  0.02496  0.24792  1.0000
  O   O4        1.0  0.78188  0.97504  0.75207  1.0000
  O   O5        1.0  0.04613  0.98656  0.13635  1.0000
  O   O6        1.0  0.95386  0.01345  0.86365  1.0000
  O   O7        1.0  0.10337  0.50362  0.10117  1.0000
  O   O8        1.0  0.89662  0.49638  0.89883  1.0000
  O   O9        1.0  0.38287  0.61285  0.56620  1.0000
  O   O10       1.0  0.61711  0.38715  0.43380  1.0000
