data_image0
_chemical_formula_structural       Cu4H12C24N16O8
_chemical_formula_sum              "Cu4 H12 C24 N16 O8"
_cell_length_a       7.51303
_cell_length_b       10.5318
_cell_length_c       10.9693
_cell_angle_alpha    75.4695
_cell_angle_beta     69.9645
_cell_angle_gamma    69.1142

_space_group_name_H-M_alt    "P 1"
_space_group_IT_number       1

loop_
  _space_group_symop_operation_xyz
  'x, y, z'

loop_
  _atom_site_type_symbol
  _atom_site_label
  _atom_site_symmetry_multiplicity
  _atom_site_fract_x
  _atom_site_fract_y
  _atom_site_fract_z
  _atom_site_occupancy
  Cu  Cu1       1.0  0.33316  0.58590  0.42650  1.0000
  Cu  Cu2       1.0  0.84552  0.91402  0.07350  1.0000
  Cu  Cu3       1.0  0.66685  0.41410  0.57349  1.0000
  Cu  Cu4       1.0  0.15447  0.08599  0.92650  1.0000
  H   H1        1.0  0.35098  0.51797  0.15122  1.0000
  H   H2        1.0  0.52004  0.98174  0.34882  1.0000
  H   H3        1.0  0.64901  0.48204  0.84878  1.0000
  H   H4        1.0  0.47996  0.01827  0.65117  1.0000
  H   H5        1.0  0.19202  0.59570  0.73645  1.0000
  H   H6        1.0  0.02423  0.90428  0.76356  1.0000
  H   H7        1.0  0.80799  0.40429  0.26354  1.0000
  H   H8        1.0  0.97578  0.09571  0.23643  1.0000
  H   H9        1.0  0.11816  0.43973  0.08581  1.0000
  H   H10       1.0  0.14359  0.05995  0.41424  1.0000
  H   H11       1.0  0.88185  0.56028  0.91419  1.0000
  H   H12       1.0  0.85640  0.94004  0.58576  1.0000
  C   C1        1.0  0.21710  0.49826  0.22103  1.0000
  C   C2        1.0  0.43632  0.00150  0.27901  1.0000
  C   C3        1.0  0.78290  0.50174  0.77896  1.0000
  C   C4        1.0  0.56367  0.99850  0.72099  1.0000
  C   C5        1.0  0.01791  0.49097  0.43262  1.0000
  C   C6        1.0  0.44149  0.00902  0.06737  1.0000
  C   C7        1.0  0.98210  0.50902  0.56738  1.0000
  C   C8        1.0  0.55850  0.99099  0.93263  1.0000
  C   C9        1.0  0.08114  0.56540  0.71687  1.0000
  C   C10       1.0  0.86346  0.93463  0.78314  1.0000
  C   C11       1.0  0.91887  0.43459  0.28313  1.0000
  C   C12       1.0  0.13654  0.06537  0.21686  1.0000
  C   C13       1.0  0.08707  0.45627  0.18609  1.0000
  C   C14       1.0  0.22931  0.04350  0.31392  1.0000
  C   C15       1.0  0.91294  0.54374  0.81390  1.0000
  C   C16       1.0  0.77068  0.95650  0.68608  1.0000
  C   C17       1.0  0.60237  0.67054  0.16584  1.0000
  C   C18       1.0  0.93852  0.82931  0.33427  1.0000
  C   C19       1.0  0.39764  0.32947  0.83417  1.0000
  C   C20       1.0  0.06147  0.17069  0.66574  1.0000
  C   C21       1.0  0.41458  0.75500  0.55737  1.0000
  C   C22       1.0  0.22674  0.74498  0.94251  1.0000
  C   C23       1.0  0.58543  0.24499  0.44263  1.0000
  C   C24       1.0  0.77325  0.25503  0.05749  1.0000
  N   N1        1.0  0.18094  0.51522  0.34541  1.0000
  N   N2        1.0  0.54153  0.98466  0.15460  1.0000
  N   N3        1.0  0.81907  0.48477  0.65458  1.0000
  N   N4        1.0  0.45847  0.01534  0.84540  1.0000
  N   N5        1.0  0.11465  0.54835  0.59280  1.0000
  N   N6        1.0  0.75579  0.95161  0.90723  1.0000
  N   N7        1.0  0.88536  0.45164  0.40721  1.0000
  N   N8        1.0  0.24420  0.04839  0.09277  1.0000
  N   N9        1.0  0.45454  0.64237  0.52919  1.0000
  N   N10       1.0  0.12604  0.85760  0.97076  1.0000
  N   N11       1.0  0.54548  0.35762  0.47081  1.0000
  N   N12       1.0  0.87396  0.14242  0.02923  1.0000
  N   N13       1.0  0.46007  0.66597  0.25725  1.0000
  N   N14       1.0  0.88329  0.83401  0.24275  1.0000
  N   N15       1.0  0.53992  0.33404  0.74276  1.0000
  N   N16       1.0  0.11671  0.16601  0.75725  1.0000
  O   O1        1.0  0.73980  0.68229  0.06960  1.0000
  O   O2        1.0  0.99117  0.81750  0.43062  1.0000
  O   O3        1.0  0.26021  0.31771  0.93042  1.0000
  O   O4        1.0  0.00882  0.18249  0.56939  1.0000
  O   O5        1.0  0.37696  0.86519  0.58926  1.0000
  O   O6        1.0  0.33112  0.63482  0.91049  1.0000
  O   O7        1.0  0.62305  0.13479  0.41075  1.0000
  O   O8        1.0  0.66886  0.36518  0.08952  1.0000
