data_image0
_chemical_formula_structural       Cu2H12C20S4N12
_chemical_formula_sum              "Cu2 H12 C20 S4 N12"
_cell_length_a       7.84436
_cell_length_b       8.91215
_cell_length_c       8.91203
_cell_angle_alpha    103.653
_cell_angle_beta     91.5081
_cell_angle_gamma    91.5103

_space_group_name_H-M_alt    "P 1"
_space_group_IT_number       1

loop_
  _space_group_symop_operation_xyz
  'x, y, z'

loop_
  _atom_site_type_symbol
  _atom_site_label
  _atom_site_symmetry_multiplicity
  _atom_site_fract_x
  _atom_site_fract_y
  _atom_site_fract_z
  _atom_site_occupancy
  Cu  Cu1       1.0  0.75000  0.36919  0.63079  1.0000
  Cu  Cu2       1.0  0.25001  0.63080  0.36920  1.0000
  H   H1        1.0  0.40462  0.45504  0.78263  1.0000
  H   H2        1.0  0.09538  0.21737  0.54496  1.0000
  H   H3        1.0  0.59538  0.54497  0.21737  1.0000
  H   H4        1.0  0.90462  0.78263  0.45505  1.0000
  H   H5        1.0  0.23918  0.35799  0.98463  1.0000
  H   H6        1.0  0.26082  0.01538  0.64201  1.0000
  H   H7        1.0  0.76081  0.64202  0.01537  1.0000
  H   H8        1.0  0.73919  0.98462  0.35799  1.0000
  H   H9        1.0  0.37478  0.15167  0.09666  1.0000
  H   H10       1.0  0.12520  0.90334  0.84833  1.0000
  H   H11       1.0  0.62521  0.84833  0.90333  1.0000
  H   H12       1.0  0.87480  0.09666  0.15167  1.0000
  C   C1        1.0  0.45208  0.36628  0.83720  1.0000
  C   C2        1.0  0.04792  0.16281  0.63372  1.0000
  C   C3        1.0  0.54793  0.63373  0.16281  1.0000
  C   C4        1.0  0.95208  0.83720  0.36628  1.0000
  C   C5        1.0  0.36261  0.31263  0.94758  1.0000
  C   C6        1.0  0.13738  0.05242  0.68738  1.0000
  C   C7        1.0  0.63739  0.68738  0.05242  1.0000
  C   C8        1.0  0.86262  0.94758  0.31263  1.0000
  C   C9        1.0  0.43815  0.20014  0.01053  1.0000
  C   C10       1.0  0.06183  0.98947  0.79986  1.0000
  C   C11       1.0  0.56184  0.79986  0.98946  1.0000
  C   C12       1.0  0.93816  0.01053  0.20014  1.0000
  C   C13       1.0  0.66698  0.19982  0.85893  1.0000
  C   C14       1.0  0.83301  0.14107  0.80018  1.0000
  C   C15       1.0  0.33302  0.80018  0.14107  1.0000
  C   C16       1.0  0.16699  0.85893  0.19982  1.0000
  C   C17       1.0  0.39334  0.32125  0.39078  1.0000
  C   C18       1.0  0.10666  0.60923  0.67875  1.0000
  C   C19       1.0  0.60666  0.67874  0.60924  1.0000
  C   C20       1.0  0.89334  0.39077  0.32124  1.0000
  S   S1        1.0  0.44674  0.16052  0.42975  1.0000
  S   S2        1.0  0.05327  0.57026  0.83947  1.0000
  S   S3        1.0  0.55326  0.83945  0.57027  1.0000
  S   S4        1.0  0.94674  0.42975  0.16051  1.0000
  N   N1        1.0  0.60436  0.30958  0.79321  1.0000
  N   N2        1.0  0.89563  0.20679  0.69041  1.0000
  N   N3        1.0  0.39563  0.69042  0.20679  1.0000
  N   N4        1.0  0.10437  0.79321  0.30958  1.0000
  N   N5        1.0  0.59068  0.14418  0.96687  1.0000
  N   N6        1.0  0.90931  0.03313  0.85581  1.0000
  N   N7        1.0  0.40931  0.85581  0.03312  1.0000
  N   N8        1.0  0.09069  0.96687  0.14419  1.0000
  N   N9        1.0  0.64303  0.56293  0.64464  1.0000
  N   N10       1.0  0.85698  0.35537  0.43706  1.0000
  N   N11       1.0  0.35698  0.43706  0.35538  1.0000
  N   N12       1.0  0.14303  0.64464  0.56294  1.0000
