data_image0
_chemical_formula_structural       Ag4H16C24N8O12
_chemical_formula_sum              "Ag4 H16 C24 N8 O12"
_cell_length_a       4.9201
_cell_length_b       7.40822
_cell_length_c       19.2886
_cell_angle_alpha    89.9999
_cell_angle_beta     90.0001
_cell_angle_gamma    103.27

_space_group_name_H-M_alt    "P 1"
_space_group_IT_number       1

loop_
  _space_group_symop_operation_xyz
  'x, y, z'

loop_
  _atom_site_type_symbol
  _atom_site_label
  _atom_site_symmetry_multiplicity
  _atom_site_fract_x
  _atom_site_fract_y
  _atom_site_fract_z
  _atom_site_occupancy
  Ag  Ag1       1.0  0.27020  0.21654  0.33797  1.0000
  Ag  Ag2       1.0  0.22980  0.28346  0.83797  1.0000
  Ag  Ag3       1.0  0.72980  0.78344  0.66203  1.0000
  Ag  Ag4       1.0  0.77020  0.71655  0.16203  1.0000
  H   H1        1.0  0.33576  0.73225  0.33193  1.0000
  H   H2        1.0  0.16424  0.76775  0.83193  1.0000
  H   H3        1.0  0.66423  0.26774  0.66807  1.0000
  H   H4        1.0  0.83577  0.23225  0.16807  1.0000
  H   H5        1.0  0.78175  0.97255  0.32865  1.0000
  H   H6        1.0  0.71826  0.52745  0.82866  1.0000
  H   H7        1.0  0.21825  0.02745  0.67135  1.0000
  H   H8        1.0  0.28175  0.47255  0.17134  1.0000
  H   H9        1.0  0.57911  0.33088  0.44698  1.0000
  H   H10       1.0  0.92089  0.16912  0.94698  1.0000
  H   H11       1.0  0.42088  0.66912  0.55302  1.0000
  H   H12       1.0  0.07912  0.83088  0.05303  1.0000
  H   H13       1.0  0.15752  0.58091  0.44240  1.0000
  H   H14       1.0  0.34250  0.91910  0.94240  1.0000
  H   H15       1.0  0.84248  0.41910  0.55760  1.0000
  H   H16       1.0  0.65752  0.08090  0.05760  1.0000
  C   C1        1.0  0.45462  0.77363  0.37929  1.0000
  C   C2        1.0  0.04538  0.72637  0.87929  1.0000
  C   C3        1.0  0.54537  0.22637  0.62071  1.0000
  C   C4        1.0  0.95463  0.27363  0.12071  1.0000
  C   C5        1.0  0.70129  0.90594  0.37730  1.0000
  C   C6        1.0  0.79871  0.59407  0.87730  1.0000
  C   C7        1.0  0.29870  0.09406  0.62270  1.0000
  C   C8        1.0  0.20130  0.40594  0.12270  1.0000
  C   C9        1.0  0.85813  0.95742  0.43890  1.0000
  C   C10       1.0  0.64188  0.54258  0.93890  1.0000
  C   C11       1.0  0.14187  0.04258  0.56110  1.0000
  C   C12       1.0  0.35813  0.45742  0.06110  1.0000
  C   C13       1.0  0.24568  0.13116  0.49643  1.0000
  C   C14       1.0  0.25432  0.36884  0.99643  1.0000
  C   C15       1.0  0.75430  0.86884  0.50357  1.0000
  C   C16       1.0  0.74570  0.63116  0.00357  1.0000
  C   C17       1.0  0.50274  0.26642  0.49633  1.0000
  C   C18       1.0  0.99725  0.23358  0.99633  1.0000
  C   C19       1.0  0.49724  0.73357  0.50367  1.0000
  C   C20       1.0  0.00276  0.76642  0.00367  1.0000
  C   C21       1.0  0.35248  0.68668  0.44294  1.0000
  C   C22       1.0  0.14752  0.81332  0.94294  1.0000
  C   C23       1.0  0.64750  0.31332  0.55706  1.0000
  C   C24       1.0  0.85249  0.18668  0.05706  1.0000
  N   N1        1.0  0.10139  0.08711  0.43680  1.0000
  N   N2        1.0  0.39862  0.41289  0.93680  1.0000
  N   N3        1.0  0.89861  0.91289  0.56320  1.0000
  N   N4        1.0  0.60140  0.58711  0.06320  1.0000
  N   N5        1.0  0.79659  0.48358  0.29351  1.0000
  N   N6        1.0  0.70341  0.01642  0.79351  1.0000
  N   N7        1.0  0.20339  0.51642  0.70649  1.0000
  N   N8        1.0  0.29660  0.98358  0.20649  1.0000
  O   O1        1.0  0.54162  0.47382  0.27748  1.0000
  O   O2        1.0  0.95839  0.02618  0.77748  1.0000
  O   O3        1.0  0.45838  0.52618  0.72252  1.0000
  O   O4        1.0  0.04162  0.97382  0.22252  1.0000
  O   O5        1.0  0.85613  0.39298  0.34475  1.0000
  O   O6        1.0  0.64386  0.10702  0.84475  1.0000
  O   O7        1.0  0.14386  0.60702  0.65524  1.0000
  O   O8        1.0  0.35613  0.89298  0.15524  1.0000
  O   O9        1.0  0.48737  0.08485  0.24246  1.0000
  O   O10       1.0  0.01262  0.41515  0.74246  1.0000
  O   O11       1.0  0.51264  0.91515  0.75754  1.0000
  O   O12       1.0  0.98736  0.58485  0.25754  1.0000
