data_image0
_chemical_formula_structural       Zn2H40C44N8O8
_chemical_formula_sum              "Zn2 H40 C44 N8 O8"
_cell_length_a       9.00983
_cell_length_b       11.7392
_cell_length_c       11.7393
_cell_angle_alpha    89.9186
_cell_angle_beta     111.532
_cell_angle_gamma    111.532

_space_group_name_H-M_alt    "P 1"
_space_group_IT_number       1

loop_
  _space_group_symop_operation_xyz
  'x, y, z'

loop_
  _atom_site_type_symbol
  _atom_site_label
  _atom_site_symmetry_multiplicity
  _atom_site_fract_x
  _atom_site_fract_y
  _atom_site_fract_z
  _atom_site_occupancy
  Zn  Zn1       1.0  0.25000  0.42250  0.57750  1.0000
  Zn  Zn2       1.0  0.75000  0.57750  0.42250  1.0000
  H   H1        1.0  0.61806  0.59796  0.75607  1.0000
  H   H2        1.0  0.88194  0.24392  0.40204  1.0000
  H   H3        1.0  0.38194  0.40203  0.24392  1.0000
  H   H4        1.0  0.11806  0.75608  0.59796  1.0000
  H   H5        1.0  0.24446  0.69077  0.47849  1.0000
  H   H6        1.0  0.25554  0.52151  0.30923  1.0000
  H   H7        1.0  0.75555  0.30923  0.52151  1.0000
  H   H8        1.0  0.74447  0.47849  0.69077  1.0000
  H   H9        1.0  0.55886  0.89939  0.57293  1.0000
  H   H10       1.0  0.94114  0.42707  0.10061  1.0000
  H   H11       1.0  0.44115  0.10061  0.42707  1.0000
  H   H12       1.0  0.05887  0.57293  0.89939  1.0000
  H   H13       1.0  0.81453  0.75755  0.91988  1.0000
  H   H14       1.0  0.68547  0.08011  0.24245  1.0000
  H   H15       1.0  0.18547  0.24245  0.08012  1.0000
  H   H16       1.0  0.31454  0.91989  0.75755  1.0000
  H   H17       1.0  0.11501  0.89239  0.05252  1.0000
  H   H18       1.0  0.38499  0.94748  0.10761  1.0000
  H   H19       1.0  0.88500  0.10761  0.94748  1.0000
  H   H20       1.0  0.61502  0.05252  0.89239  1.0000
  H   H21       1.0  0.15941  0.09033  0.74769  1.0000
  H   H22       1.0  0.34059  0.25232  0.90968  1.0000
  H   H23       1.0  0.84060  0.90967  0.25231  1.0000
  H   H24       1.0  0.65941  0.74769  0.09033  1.0000
  H   H25       1.0  0.86343  0.95066  0.61439  1.0000
  H   H26       1.0  0.63657  0.38562  0.04934  1.0000
  H   H27       1.0  0.13658  0.04934  0.38561  1.0000
  H   H28       1.0  0.36342  0.61439  0.95066  1.0000
  H   H29       1.0  0.45451  0.09394  0.69824  1.0000
  H   H30       1.0  0.04548  0.30176  0.90606  1.0000
  H   H31       1.0  0.54549  0.90606  0.30176  1.0000
  H   H32       1.0  0.95451  0.69824  0.09393  1.0000
  H   H33       1.0  0.57559  0.23502  0.80632  1.0000
  H   H34       1.0  0.92440  0.19368  0.76497  1.0000
  H   H35       1.0  0.42441  0.76497  0.19368  1.0000
  H   H36       1.0  0.07559  0.80632  0.23502  1.0000
  H   H37       1.0  0.61886  0.22043  0.67268  1.0000
  H   H38       1.0  0.88112  0.32732  0.77957  1.0000
  H   H39       1.0  0.38113  0.77957  0.32732  1.0000
  H   H40       1.0  0.11886  0.67268  0.22043  1.0000
  C   C1        1.0  0.55787  0.65126  0.69432  1.0000
  C   C2        1.0  0.94213  0.30568  0.34874  1.0000
  C   C3        1.0  0.44213  0.34874  0.30568  1.0000
  C   C4        1.0  0.05787  0.69432  0.65126  1.0000
  C   C5        1.0  0.36991  0.70347  0.54999  1.0000
  C   C6        1.0  0.13009  0.45001  0.29653  1.0000
  C   C7        1.0  0.63009  0.29653  0.45001  1.0000
  C   C8        1.0  0.86992  0.54999  0.70347  1.0000
  C   C9        1.0  0.52306  0.80625  0.59522  1.0000
  C   C10       1.0  0.97694  0.40478  0.19375  1.0000
  C   C11       1.0  0.47695  0.19375  0.40478  1.0000
  C   C12       1.0  0.02307  0.59522  0.80625  1.0000
  C   C13       1.0  0.81811  0.84797  0.76011  1.0000
  C   C14       1.0  0.68189  0.23989  0.15203  1.0000
  C   C15       1.0  0.18189  0.15203  0.23989  1.0000
  C   C16       1.0  0.31811  0.76011  0.84797  1.0000
  C   C17       1.0  0.89255  0.82840  0.88183  1.0000
  C   C18       1.0  0.60744  0.11817  0.17160  1.0000
  C   C19       1.0  0.10745  0.17160  0.11817  1.0000
  C   C20       1.0  0.39256  0.88184  0.82840  1.0000
  C   C21       1.0  0.06216  0.90530  0.95624  1.0000
  C   C22       1.0  0.43784  0.04376  0.09470  1.0000
  C   C23       1.0  0.93785  0.09470  0.04376  1.0000
  C   C24       1.0  0.56216  0.95624  0.90530  1.0000
  C   C25       1.0  0.16131  0.00396  0.91260  1.0000
  C   C26       1.0  0.33868  0.08740  0.99604  1.0000
  C   C27       1.0  0.83869  0.99604  0.08740  1.0000
  C   C28       1.0  0.66132  0.91260  0.00396  1.0000
  C   C29       1.0  0.08566  0.01945  0.78856  1.0000
  C   C30       1.0  0.41434  0.21144  0.98056  1.0000
  C   C31       1.0  0.91434  0.98055  0.21144  1.0000
  C   C32       1.0  0.58566  0.78856  0.01945  1.0000
  C   C33       1.0  0.91602  0.94168  0.71216  1.0000
  C   C34       1.0  0.58397  0.28784  0.05833  1.0000
  C   C35       1.0  0.08398  0.05832  0.28784  1.0000
  C   C36       1.0  0.41603  0.71216  0.94168  1.0000
  C   C37       1.0  0.38281  0.24717  0.63795  1.0000
  C   C38       1.0  0.11718  0.36205  0.75283  1.0000
  C   C39       1.0  0.61718  0.75283  0.36205  1.0000
  C   C40       1.0  0.88281  0.63795  0.24716  1.0000
  C   C41       1.0  0.51567  0.19493  0.70773  1.0000
  C   C42       1.0  0.98432  0.29226  0.80507  1.0000
  C   C43       1.0  0.48433  0.80507  0.29227  1.0000
  C   C44       1.0  0.01567  0.70773  0.19493  1.0000
  N   N1        1.0  0.39433  0.60769  0.61268  1.0000
  N   N2        1.0  0.10566  0.38731  0.39231  1.0000
  N   N3        1.0  0.60567  0.39231  0.38731  1.0000
  N   N4        1.0  0.89434  0.61269  0.60769  1.0000
  N   N5        1.0  0.64176  0.77195  0.68649  1.0000
  N   N6        1.0  0.85824  0.31351  0.22805  1.0000
  N   N7        1.0  0.35824  0.22805  0.31351  1.0000
  N   N8        1.0  0.14176  0.68649  0.77195  1.0000
  O   O1        1.0  0.22533  0.17827  0.58619  1.0000
  O   O2        1.0  0.27467  0.41382  0.82173  1.0000
  O   O3        1.0  0.77467  0.82173  0.41382  1.0000
  O   O4        1.0  0.72533  0.58618  0.17826  1.0000
  O   O5        1.0  0.44532  0.36646  0.63878  1.0000
  O   O6        1.0  0.05467  0.36122  0.63354  1.0000
  O   O7        1.0  0.55467  0.63354  0.36123  1.0000
  O   O8        1.0  0.94531  0.63878  0.36646  1.0000
