data_image0
_chemical_formula_structural       Bi6H18C24O30
_chemical_formula_sum              "Bi6 H18 C24 O30"
_cell_length_a       10.0259
_cell_length_b       10.0258
_cell_length_c       10.3628
_cell_angle_alpha    89.9571
_cell_angle_beta     90.042
_cell_angle_gamma    119.996

_space_group_name_H-M_alt    "P 1"
_space_group_IT_number       1

loop_
  _space_group_symop_operation_xyz
  'x, y, z'

loop_
  _atom_site_type_symbol
  _atom_site_label
  _atom_site_symmetry_multiplicity
  _atom_site_fract_x
  _atom_site_fract_y
  _atom_site_fract_z
  _atom_site_occupancy
  Bi  Bi1       1.0  0.54019  0.78442  0.86032  1.0000
  Bi  Bi2       1.0  0.21550  0.75538  0.19364  1.0000
  Bi  Bi3       1.0  0.24397  0.45966  0.52678  1.0000
  Bi  Bi4       1.0  0.78435  0.54017  0.13968  1.0000
  Bi  Bi5       1.0  0.75538  0.21552  0.80636  1.0000
  Bi  Bi6       1.0  0.45965  0.24395  0.47322  1.0000
  H   H1        1.0  0.57906  0.00623  0.53015  1.0000
  H   H2        1.0  0.99388  0.57330  0.86352  1.0000
  H   H3        1.0  0.42717  0.42077  0.19707  1.0000
  H   H4        1.0  0.00622  0.57906  0.46984  1.0000
  H   H5        1.0  0.57331  0.99390  0.13646  1.0000
  H   H6        1.0  0.42078  0.42718  0.80293  1.0000
  H   H7        1.0  0.84503  0.94492  0.58405  1.0000
  H   H8        1.0  0.05478  0.90028  0.91767  1.0000
  H   H9        1.0  0.10022  0.15438  0.25084  1.0000
  H   H10       1.0  0.94493  0.84503  0.41596  1.0000
  H   H11       1.0  0.90031  0.05480  0.08233  1.0000
  H   H12       1.0  0.15436  0.10021  0.74916  1.0000
  H   H13       1.0  0.78263  0.95720  0.42730  1.0000
  H   H14       1.0  0.04286  0.82630  0.76079  1.0000
  H   H15       1.0  0.17448  0.21671  0.09407  1.0000
  H   H16       1.0  0.95719  0.78262  0.57269  1.0000
  H   H17       1.0  0.82628  0.04285  0.23921  1.0000
  H   H18       1.0  0.21672  0.17450  0.90593  1.0000
  C   C1        1.0  0.52803  0.77490  0.55120  1.0000
  C   C2        1.0  0.22518  0.75366  0.88458  1.0000
  C   C3        1.0  0.24662  0.47140  0.21767  1.0000
  C   C4        1.0  0.77489  0.52802  0.44880  1.0000
  C   C5        1.0  0.75366  0.22518  0.11544  1.0000
  C   C6        1.0  0.47138  0.24661  0.78234  1.0000
  C   C7        1.0  0.63159  0.94679  0.58050  1.0000
  C   C8        1.0  0.05325  0.68519  0.91387  1.0000
  C   C9        1.0  0.31518  0.36807  0.24726  1.0000
  C   C10       1.0  0.94677  0.63156  0.41948  1.0000
  C   C11       1.0  0.68520  0.05326  0.08613  1.0000
  C   C12       1.0  0.36806  0.31518  0.75274  1.0000
  C   C13       1.0  0.79197  0.99856  0.52685  1.0000
  C   C14       1.0  0.00133  0.79382  0.86026  1.0000
  C   C15       1.0  0.20680  0.20759  0.19361  1.0000
  C   C16       1.0  0.99857  0.79196  0.47315  1.0000
  C   C17       1.0  0.79383  0.00134  0.13973  1.0000
  C   C18       1.0  0.20758  0.20680  0.80639  1.0000
  C   C19       1.0  0.90146  0.17123  0.52963  1.0000
  C   C20       1.0  0.82865  0.73065  0.86292  1.0000
  C   C21       1.0  0.27016  0.09829  0.19646  1.0000
  C   C22       1.0  0.17125  0.90143  0.47037  1.0000
  C   C23       1.0  0.73066  0.82866  0.13706  1.0000
  C   C24       1.0  0.09828  0.27016  0.80354  1.0000
  O   O1        1.0  0.63715  0.97596  0.71495  1.0000
  O   O2        1.0  0.02407  0.66138  0.04833  1.0000
  O   O3        1.0  0.33870  0.36261  0.38175  1.0000
  O   O4        1.0  0.97592  0.63714  0.28502  1.0000
  O   O5        1.0  0.66138  0.02409  0.95167  1.0000
  O   O6        1.0  0.36262  0.33870  0.61826  1.0000
  O   O7        1.0  0.48867  0.67972  0.64713  1.0000
  O   O8        1.0  0.32042  0.80935  0.98048  1.0000
  O   O9        1.0  0.19035  0.51048  0.31335  1.0000
  O   O10       1.0  0.67967  0.48867  0.35288  1.0000
  O   O11       1.0  0.80936  0.32041  0.01954  1.0000
  O   O12       1.0  0.51050  0.19036  0.68666  1.0000
  O   O13       1.0  0.48342  0.73062  0.43838  1.0000
  O   O14       1.0  0.26944  0.75350  0.77175  1.0000
  O   O15       1.0  0.24724  0.51621  0.10483  1.0000
  O   O16       1.0  0.73062  0.48342  0.56163  1.0000
  O   O17       1.0  0.75346  0.26944  0.22827  1.0000
  O   O18       1.0  0.51620  0.24725  0.89518  1.0000
  O   O19       1.0  0.03540  0.21480  0.48211  1.0000
  O   O20       1.0  0.78513  0.82106  0.81523  1.0000
  O   O21       1.0  0.18019  0.96459  0.14839  1.0000
  O   O22       1.0  0.21483  0.03537  0.51791  1.0000
  O   O23       1.0  0.82109  0.78516  0.18475  1.0000
  O   O24       1.0  0.96457  0.18016  0.85160  1.0000
  O   O25       1.0  0.86160  0.26162  0.57827  1.0000
  O   O26       1.0  0.73814  0.60042  0.91162  1.0000
  O   O27       1.0  0.40014  0.13803  0.24575  1.0000
  O   O28       1.0  0.26161  0.86158  0.42173  1.0000
  O   O29       1.0  0.60044  0.73816  0.08837  1.0000
  O   O30       1.0  0.13802  0.40014  0.75428  1.0000
