data_image0
_chemical_formula_structural       Cd2H36C52N8O8
_chemical_formula_sum              "Cd2 H36 C52 N8 O8"
_cell_length_a       8.60448
_cell_length_b       10.7925
_cell_length_c       12.9519
_cell_angle_alpha    114.11
_cell_angle_beta     90.0001
_cell_angle_gamma    90

_space_group_name_H-M_alt    "P 1"
_space_group_IT_number       1

loop_
  _space_group_symop_operation_xyz
  'x, y, z'

loop_
  _atom_site_type_symbol
  _atom_site_label
  _atom_site_symmetry_multiplicity
  _atom_site_fract_x
  _atom_site_fract_y
  _atom_site_fract_z
  _atom_site_occupancy
  Cd  Cd1       1.0  0.50000  1.00000  1.00000  1.0000
  Cd  Cd2       1.0  0.00000  1.00000  0.50000  1.0000
  H   H1        1.0  0.91198  0.66412  0.63370  1.0000
  H   H2        1.0  0.41198  0.33587  0.86630  1.0000
  H   H3        1.0  0.08802  0.33587  0.36630  1.0000
  H   H4        1.0  0.58802  0.66412  0.13370  1.0000
  H   H5        1.0  0.26325  0.97141  0.79665  1.0000
  H   H6        1.0  0.76325  0.02859  0.70335  1.0000
  H   H7        1.0  0.73675  0.02859  0.20335  1.0000
  H   H8        1.0  0.23675  0.97141  0.29665  1.0000
  H   H9        1.0  0.21018  0.86530  0.06793  1.0000
  H   H10       1.0  0.71018  0.13470  0.43208  1.0000
  H   H11       1.0  0.78982  0.13470  0.93207  1.0000
  H   H12       1.0  0.28982  0.86530  0.56793  1.0000
  H   H13       1.0  0.95186  0.76055  0.99888  1.0000
  H   H14       1.0  0.45186  0.23945  0.50112  1.0000
  H   H15       1.0  0.04814  0.23945  0.00112  1.0000
  H   H16       1.0  0.54814  0.76055  0.49888  1.0000
  H   H17       1.0  0.84629  0.76152  0.81849  1.0000
  H   H18       1.0  0.34629  0.23848  0.68151  1.0000
  H   H19       1.0  0.15371  0.23847  0.18151  1.0000
  H   H20       1.0  0.65371  0.76152  0.31849  1.0000
  H   H21       1.0  0.72971  0.53835  0.57072  1.0000
  H   H22       1.0  0.22971  0.46165  0.92928  1.0000
  H   H23       1.0  0.27029  0.46165  0.42928  1.0000
  H   H24       1.0  0.77029  0.53835  0.07072  1.0000
  H   H25       1.0  0.55125  0.26087  0.26908  1.0000
  H   H26       1.0  0.05126  0.73913  0.23092  1.0000
  H   H27       1.0  0.44874  0.73913  0.73092  1.0000
  H   H28       1.0  0.94875  0.26087  0.76908  1.0000
  H   H29       1.0  0.67939  0.37554  0.15896  1.0000
  H   H30       1.0  0.17939  0.62446  0.34104  1.0000
  H   H31       1.0  0.32061  0.62446  0.84104  1.0000
  H   H32       1.0  0.82061  0.37554  0.65896  1.0000
  H   H33       1.0  0.84335  0.58411  0.26469  1.0000
  H   H34       1.0  0.34336  0.41589  0.23531  1.0000
  H   H35       1.0  0.15664  0.41589  0.73531  1.0000
  H   H36       1.0  0.65664  0.58411  0.76469  1.0000
  C   C1        1.0  0.00628  0.86019  0.67800  1.0000
  C   C2        1.0  0.50628  0.13981  0.82200  1.0000
  C   C3        1.0  0.99372  0.13981  0.32200  1.0000
  C   C4        1.0  0.49372  0.86019  0.17800  1.0000
  C   C5        1.0  0.93137  0.74174  0.60188  1.0000
  C   C6        1.0  0.43138  0.25826  0.89812  1.0000
  C   C7        1.0  0.06862  0.25826  0.39812  1.0000
  C   C8        1.0  0.56862  0.74174  0.10188  1.0000
  C   C9        1.0  0.88638  0.70857  0.48858  1.0000
  C   C10       1.0  0.38638  0.29143  0.01142  1.0000
  C   C11       1.0  0.11362  0.29143  0.51142  1.0000
  C   C12       1.0  0.61362  0.70857  0.98858  1.0000
  C   C13       1.0  0.04995  0.86281  0.79075  1.0000
  C   C14       1.0  0.54995  0.13719  0.70925  1.0000
  C   C15       1.0  0.95005  0.13719  0.20925  1.0000
  C   C16       1.0  0.45005  0.86281  0.29075  1.0000
  C   C17       1.0  0.19093  0.92359  0.83899  1.0000
  C   C18       1.0  0.69094  0.07641  0.66101  1.0000
  C   C19       1.0  0.80907  0.07641  0.16101  1.0000
  C   C20       1.0  0.30907  0.92359  0.33899  1.0000
  C   C21       1.0  0.16020  0.86476  0.99051  1.0000
  C   C22       1.0  0.66020  0.13524  0.50949  1.0000
  C   C23       1.0  0.83980  0.13524  0.00949  1.0000
  C   C24       1.0  0.33980  0.86476  0.49051  1.0000
  C   C25       1.0  0.01611  0.80625  0.95098  1.0000
  C   C26       1.0  0.51611  0.19375  0.54902  1.0000
  C   C27       1.0  0.98389  0.19374  0.04902  1.0000
  C   C28       1.0  0.48389  0.80626  0.45098  1.0000
  C   C29       1.0  0.96012  0.80488  0.84968  1.0000
  C   C30       1.0  0.46012  0.19512  0.65032  1.0000
  C   C31       1.0  0.03988  0.19512  0.15032  1.0000
  C   C32       1.0  0.53988  0.80488  0.34968  1.0000
  C   C33       1.0  0.80061  0.57792  0.42608  1.0000
  C   C34       1.0  0.30061  0.42208  0.07392  1.0000
  C   C35       1.0  0.19939  0.42209  0.57392  1.0000
  C   C36       1.0  0.69939  0.57792  0.92608  1.0000
  C   C37       1.0  0.72452  0.50435  0.47899  1.0000
  C   C38       1.0  0.22452  0.49565  0.02101  1.0000
  C   C39       1.0  0.27548  0.49565  0.52101  1.0000
  C   C40       1.0  0.77548  0.50435  0.97899  1.0000
  C   C41       1.0  0.62358  0.35060  0.31185  1.0000
  C   C42       1.0  0.12358  0.64940  0.18815  1.0000
  C   C43       1.0  0.37642  0.64940  0.68815  1.0000
  C   C44       1.0  0.87642  0.35060  0.81185  1.0000
  C   C45       1.0  0.69476  0.41527  0.25030  1.0000
  C   C46       1.0  0.19476  0.58473  0.24970  1.0000
  C   C47       1.0  0.30523  0.58473  0.74970  1.0000
  C   C48       1.0  0.80524  0.41527  0.75030  1.0000
  C   C49       1.0  0.78478  0.52960  0.30819  1.0000
  C   C50       1.0  0.28478  0.47040  0.19181  1.0000
  C   C51       1.0  0.21522  0.47040  0.69181  1.0000
  C   C52       1.0  0.71522  0.52960  0.80820  1.0000
  N   N1        1.0  0.24596  0.92315  0.93567  1.0000
  N   N2        1.0  0.74596  0.07685  0.56433  1.0000
  N   N3        1.0  0.75404  0.07685  0.06433  1.0000
  N   N4        1.0  0.25404  0.92315  0.43567  1.0000
  N   N5        1.0  0.63853  0.39321  0.42428  1.0000
  N   N6        1.0  0.13853  0.60679  0.07572  1.0000
  N   N7        1.0  0.36147  0.60679  0.57572  1.0000
  N   N8        1.0  0.86147  0.39321  0.92428  1.0000
  O   O1        1.0  0.04651  0.96482  0.66139  1.0000
  O   O2        1.0  0.54651  0.03518  0.83861  1.0000
  O   O3        1.0  0.95349  0.03518  0.33861  1.0000
  O   O4        1.0  0.45349  0.96482  0.16139  1.0000
  O   O5        1.0  0.91089  0.77960  0.43184  1.0000
  O   O6        1.0  0.41089  0.22040  0.06816  1.0000
  O   O7        1.0  0.08911  0.22040  0.56816  1.0000
  O   O8        1.0  0.58911  0.77960  0.93184  1.0000
