data_image0
_chemical_formula_structural       Cu2H26C22N4O12
_chemical_formula_sum              "Cu2 H26 C22 N4 O12"
_cell_length_a       8.19509
_cell_length_b       8.52386
_cell_length_c       10.0061
_cell_angle_alpha    108.602
_cell_angle_beta     89.9989
_cell_angle_gamma    90.0005

_space_group_name_H-M_alt    "P 1"
_space_group_IT_number       1

loop_
  _space_group_symop_operation_xyz
  'x, y, z'

loop_
  _atom_site_type_symbol
  _atom_site_label
  _atom_site_symmetry_multiplicity
  _atom_site_fract_x
  _atom_site_fract_y
  _atom_site_fract_z
  _atom_site_occupancy
  Cu  Cu1       1.0  0.59470  0.06574  0.44482  1.0000
  Cu  Cu2       1.0  0.09469  0.93425  0.55517  1.0000
  H   H1        1.0  0.38734  0.58529  0.22068  1.0000
  H   H2        1.0  0.88734  0.41471  0.77932  1.0000
  H   H3        1.0  0.52752  0.57089  0.79918  1.0000
  H   H4        1.0  0.02750  0.42911  0.20082  1.0000
  H   H5        1.0  0.61202  0.85669  0.88960  1.0000
  H   H6        1.0  0.11201  0.14331  0.11040  1.0000
  H   H7        1.0  0.31987  0.36491  0.75293  1.0000
  H   H8        1.0  0.81988  0.63511  0.24706  1.0000
  H   H9        1.0  0.35570  0.18643  0.80525  1.0000
  H   H10       1.0  0.85572  0.81357  0.19474  1.0000
  H   H11       1.0  0.52512  0.30397  0.77563  1.0000
  H   H12       1.0  0.02512  0.69603  0.22436  1.0000
  H   H13       1.0  0.52859  0.26507  0.08545  1.0000
  H   H14       1.0  0.02859  0.73494  0.91456  1.0000
  H   H15       1.0  0.58389  0.08443  0.94811  1.0000
  H   H16       1.0  0.08392  0.91557  0.05189  1.0000
  H   H17       1.0  0.73726  0.20913  0.05698  1.0000
  H   H18       1.0  0.23726  0.79085  0.94300  1.0000
  H   H19       1.0  0.54457  0.39205  0.36979  1.0000
  H   H20       1.0  0.04456  0.60796  0.63022  1.0000
  H   H21       1.0  0.72778  0.36369  0.26687  1.0000
  H   H22       1.0  0.22779  0.63630  0.73312  1.0000
  H   H23       1.0  0.88263  0.29684  0.45317  1.0000
  H   H24       1.0  0.38263  0.70315  0.54682  1.0000
  H   H25       1.0  0.76750  0.47939  0.54212  1.0000
  H   H26       1.0  0.26749  0.52059  0.45787  1.0000
  C   C1        1.0  0.49113  0.81016  0.20402  1.0000
  C   C2        1.0  0.99112  0.18983  0.79599  1.0000
  C   C3        1.0  0.43854  0.64486  0.14881  1.0000
  C   C4        1.0  0.93853  0.35514  0.85119  1.0000
  C   C5        1.0  0.44613  0.56047  0.00453  1.0000
  C   C6        1.0  0.94613  0.43954  0.99547  1.0000
  C   C7        1.0  0.51197  0.63782  0.91081  1.0000
  C   C8        1.0  0.01195  0.36217  0.08920  1.0000
  C   C9        1.0  0.56032  0.80111  0.96390  1.0000
  C   C10       1.0  0.06031  0.19888  0.03610  1.0000
  C   C11       1.0  0.54969  0.89337  0.10863  1.0000
  C   C12       1.0  0.04969  0.10661  0.89137  1.0000
  C   C13       1.0  0.59744  0.06487  0.15862  1.0000
  C   C14       1.0  0.09742  0.93511  0.84138  1.0000
  C   C15       1.0  0.39935  0.31069  0.81486  1.0000
  C   C16       1.0  0.89936  0.68931  0.18513  1.0000
  C   C17       1.0  0.61329  0.15979  0.05577  1.0000
  C   C18       1.0  0.11330  0.84020  0.94423  1.0000
  C   C19       1.0  0.66109  0.32422  0.34585  1.0000
  C   C20       1.0  0.16108  0.67579  0.65417  1.0000
  C   C21       1.0  0.75780  0.34675  0.47962  1.0000
  C   C22       1.0  0.25779  0.65324  0.52038  1.0000
  N   N1        1.0  0.62475  0.14507  0.29244  1.0000
  N   N2        1.0  0.12476  0.85494  0.70756  1.0000
  N   N3        1.0  0.70446  0.86477  0.58455  1.0000
  N   N4        1.0  0.20446  0.13524  0.41544  1.0000
  O   O1        1.0  0.47827  0.88123  0.34089  1.0000
  O   O2        1.0  0.97825  0.11875  0.65911  1.0000
  O   O3        1.0  0.67358  0.26486  0.56085  1.0000
  O   O4        1.0  0.17357  0.73513  0.43915  1.0000
  O   O5        1.0  0.59215  0.98063  0.60240  1.0000
  O   O6        1.0  0.09216  0.01937  0.39761  1.0000
  O   O7        1.0  0.38902  0.40346  0.96255  1.0000
  O   O8        1.0  0.88902  0.59655  0.03745  1.0000
  O   O9        1.0  0.71334  0.79448  0.67565  1.0000
  O   O10       1.0  0.21335  0.20553  0.32434  1.0000
  O   O11       1.0  0.79503  0.83264  0.47898  1.0000
  O   O12       1.0  0.29502  0.16738  0.52102  1.0000
