data_image0
_chemical_formula_structural       H40Pt4C48S8
_chemical_formula_sum              "H40 Pt4 C48 S8"
_cell_length_a       7.12466
_cell_length_b       13.6545
_cell_length_c       13.6545
_cell_angle_alpha    86.0786
_cell_angle_beta     74.8802
_cell_angle_gamma    74.8791

_space_group_name_H-M_alt    "P 1"
_space_group_IT_number       1

loop_
  _space_group_symop_operation_xyz
  'x, y, z'

loop_
  _atom_site_type_symbol
  _atom_site_label
  _atom_site_symmetry_multiplicity
  _atom_site_fract_x
  _atom_site_fract_y
  _atom_site_fract_z
  _atom_site_occupancy
  H   H1        1.0  0.54214  0.22528  0.02483  1.0000
  H   H2        1.0  0.51959  0.52476  0.27434  1.0000
  H   H3        1.0  0.79350  0.77391  0.97534  1.0000
  H   H4        1.0  0.31826  0.47499  0.72557  1.0000
  H   H5        1.0  0.29348  0.97534  0.77391  1.0000
  H   H6        1.0  0.01960  0.27433  0.52476  1.0000
  H   H7        1.0  0.04213  0.02484  0.22527  1.0000
  H   H8        1.0  0.81826  0.72558  0.47499  1.0000
  H   H9        1.0  0.45925  0.41194  0.99790  1.0000
  H   H10       1.0  0.62261  0.49729  0.08778  1.0000
  H   H11       1.0  0.87031  0.58733  0.00286  1.0000
  H   H12       1.0  0.20712  0.50255  0.91214  1.0000
  H   H13       1.0  0.37031  0.00287  0.58734  1.0000
  H   H14       1.0  0.12262  0.08777  0.49728  1.0000
  H   H15       1.0  0.95925  0.99789  0.41194  1.0000
  H   H16       1.0  0.70713  0.91215  0.50255  1.0000
  H   H17       1.0  0.68143  0.48915  0.85926  1.0000
  H   H18       1.0  0.92097  0.35799  0.01090  1.0000
  H   H19       1.0  0.03013  0.51069  0.14202  1.0000
  H   H20       1.0  0.28945  0.64182  0.98904  1.0000
  H   H21       1.0  0.53012  0.14202  0.51069  1.0000
  H   H22       1.0  0.42098  0.01090  0.35798  1.0000
  H   H23       1.0  0.18145  0.85925  0.48914  1.0000
  H   H24       1.0  0.78946  0.98905  0.64182  1.0000
  H   H25       1.0  0.97950  0.37857  0.74408  1.0000
  H   H26       1.0  0.10848  0.24308  0.12168  1.0000
  H   H27       1.0  0.10146  0.62181  0.25707  1.0000
  H   H28       1.0  0.47318  0.75659  0.87824  1.0000
  H   H29       1.0  0.60146  0.25707  0.62181  1.0000
  H   H30       1.0  0.60846  0.12168  0.24307  1.0000
  H   H31       1.0  0.47952  0.74407  0.37856  1.0000
  H   H32       1.0  0.97318  0.87824  0.75659  1.0000
  H   H33       1.0  0.05262  0.19123  0.76588  1.0000
  H   H34       1.0  0.99493  0.26546  0.30899  1.0000
  H   H35       1.0  0.00908  0.80909  0.23465  1.0000
  H   H36       1.0  0.56965  0.73406  0.69097  1.0000
  H   H37       1.0  0.50908  0.23465  0.80910  1.0000
  H   H38       1.0  0.49491  0.30899  0.26546  1.0000
  H   H39       1.0  0.55263  0.76588  0.19122  1.0000
  H   H40       1.0  0.06964  0.69097  0.73407  1.0000
  Pt  Pt1       1.0  0.09546  0.99983  0.99979  1.0000
  Pt  Pt2       1.0  0.84642  0.49984  0.49991  1.0000
  Pt  Pt3       1.0  0.59546  0.99979  0.99983  1.0000
  Pt  Pt4       1.0  0.34642  0.49991  0.49984  1.0000
  C   C1        1.0  0.80421  0.19731  0.89800  1.0000
  C   C2        1.0  0.75301  0.39774  0.30257  1.0000
  C   C3        1.0  0.89989  0.80242  0.10229  1.0000
  C   C4        1.0  0.45324  0.60193  0.69736  1.0000
  C   C5        1.0  0.39988  0.10229  0.80242  1.0000
  C   C6        1.0  0.25300  0.30257  0.39775  1.0000
  C   C7        1.0  0.30422  0.89800  0.19730  1.0000
  C   C8        1.0  0.95324  0.69736  0.60193  1.0000
  C   C9        1.0  0.63674  0.25937  0.96351  1.0000
  C   C10       1.0  0.64791  0.46325  0.24036  1.0000
  C   C11       1.0  0.86046  0.74007  0.03688  1.0000
  C   C12       1.0  0.35113  0.53650  0.75955  1.0000
  C   C13       1.0  0.36044  0.03689  0.74008  1.0000
  C   C14       1.0  0.14793  0.24036  0.46325  1.0000
  C   C15       1.0  0.13675  0.96351  0.25937  1.0000
  C   C16       1.0  0.85113  0.75956  0.53650  1.0000
  C   C17       1.0  0.59149  0.36395  0.94783  1.0000
  C   C18       1.0  0.70683  0.44726  0.13584  1.0000
  C   C19       1.0  0.90409  0.63555  0.05286  1.0000
  C   C20       1.0  0.28940  0.55256  0.86407  1.0000
  C   C21       1.0  0.40409  0.05287  0.63555  1.0000
  C   C22       1.0  0.20683  0.13583  0.44726  1.0000
  C   C23       1.0  0.09150  0.94781  0.36394  1.0000
  C   C24       1.0  0.78941  0.86408  0.55256  1.0000
  C   C25       1.0  0.71591  0.40729  0.87023  1.0000
  C   C26       1.0  0.87394  0.36935  0.09269  1.0000
  C   C27       1.0  0.99372  0.59251  0.13074  1.0000
  C   C28       1.0  0.33555  0.63048  0.90724  1.0000
  C   C29       1.0  0.49372  0.13074  0.59251  1.0000
  C   C30       1.0  0.37394  0.09269  0.36934  1.0000
  C   C31       1.0  0.21591  0.87022  0.40729  1.0000
  C   C32       1.0  0.83555  0.90724  0.63048  1.0000
  C   C33       1.0  0.88388  0.34521  0.80574  1.0000
  C   C34       1.0  0.97988  0.30500  0.15491  1.0000
  C   C35       1.0  0.03457  0.65488  0.19516  1.0000
  C   C36       1.0  0.43960  0.69472  0.84504  1.0000
  C   C37       1.0  0.53457  0.19517  0.65489  1.0000
  C   C38       1.0  0.47988  0.15491  0.30499  1.0000
  C   C39       1.0  0.38389  0.80574  0.34521  1.0000
  C   C40       1.0  0.93961  0.84505  0.69473  1.0000
  C   C41       1.0  0.92641  0.24019  0.81831  1.0000
  C   C42       1.0  0.91779  0.31784  0.25990  1.0000
  C   C43       1.0  0.98464  0.75988  0.18230  1.0000
  C   C44       1.0  0.49552  0.68179  0.74006  1.0000
  C   C45       1.0  0.48463  0.18230  0.75988  1.0000
  C   C46       1.0  0.41779  0.25989  0.31784  1.0000
  C   C47       1.0  0.42641  0.81830  0.24019  1.0000
  C   C48       1.0  0.99552  0.74006  0.68180  1.0000
  S   S1        1.0  0.86101  0.06265  0.90479  1.0000
  S   S2        1.0  0.67481  0.40478  0.43724  1.0000
  S   S3        1.0  0.82887  0.93707  0.09493  1.0000
  S   S4        1.0  0.51704  0.59488  0.56270  1.0000
  S   S5        1.0  0.32886  0.09493  0.93707  1.0000
  S   S6        1.0  0.17482  0.43724  0.40478  1.0000
  S   S7        1.0  0.36103  0.90479  0.06264  1.0000
  S   S8        1.0  0.01704  0.56270  0.59488  1.0000
