data_image0
_chemical_formula_structural       Ni4H40C48S8
_chemical_formula_sum              "Ni4 H40 C48 S8"
_cell_length_a       6.28666
_cell_length_b       12.0665
_cell_length_c       15.1647
_cell_angle_alpha    95.0932
_cell_angle_beta     89.9995
_cell_angle_gamma    89.9998

_space_group_name_H-M_alt    "P 1"
_space_group_IT_number       1

loop_
  _space_group_symop_operation_xyz
  'x, y, z'

loop_
  _atom_site_type_symbol
  _atom_site_label
  _atom_site_symmetry_multiplicity
  _atom_site_fract_x
  _atom_site_fract_y
  _atom_site_fract_z
  _atom_site_occupancy
  Ni  Ni1       1.0  0.06816  0.49961  0.24974  1.0000
  Ni  Ni2       1.0  0.56816  0.50038  0.25025  1.0000
  Ni  Ni3       1.0  0.93186  0.50038  0.75026  1.0000
  Ni  Ni4       1.0  0.43187  0.49962  0.74975  1.0000
  H   H1        1.0  0.27575  0.48385  0.06732  1.0000
  H   H2        1.0  0.77571  0.51614  0.43268  1.0000
  H   H3        1.0  0.72427  0.51615  0.93269  1.0000
  H   H4        1.0  0.22425  0.48386  0.56733  1.0000
  H   H5        1.0  0.26334  0.40820  0.91021  1.0000
  H   H6        1.0  0.76331  0.59180  0.58978  1.0000
  H   H7        1.0  0.73665  0.59182  0.08979  1.0000
  H   H8        1.0  0.23661  0.40821  0.41022  1.0000
  H   H9        1.0  0.30050  0.20531  0.86954  1.0000
  H   H10       1.0  0.80050  0.79469  0.63045  1.0000
  H   H11       1.0  0.69945  0.79471  0.13045  1.0000
  H   H12       1.0  0.19944  0.20532  0.36955  1.0000
  H   H13       1.0  0.36481  0.07745  0.98812  1.0000
  H   H14       1.0  0.86483  0.92254  0.51187  1.0000
  H   H15       1.0  0.63516  0.92256  0.01187  1.0000
  H   H16       1.0  0.13518  0.07746  0.48812  1.0000
  H   H17       1.0  0.37403  0.15331  0.14606  1.0000
  H   H18       1.0  0.87405  0.84667  0.35393  1.0000
  H   H19       1.0  0.62597  0.84668  0.85392  1.0000
  H   H20       1.0  0.12600  0.15332  0.64607  1.0000
  H   H21       1.0  0.88040  0.20422  0.06668  1.0000
  H   H22       1.0  0.38043  0.79576  0.43332  1.0000
  H   H23       1.0  0.11959  0.79577  0.93332  1.0000
  H   H24       1.0  0.61961  0.20424  0.56668  1.0000
  H   H25       1.0  0.87455  0.00678  0.10359  1.0000
  H   H26       1.0  0.37458  0.99320  0.39642  1.0000
  H   H27       1.0  0.12543  0.99321  0.89642  1.0000
  H   H28       1.0  0.62545  0.00679  0.60357  1.0000
  H   H29       1.0  0.79514  0.96273  0.25692  1.0000
  H   H30       1.0  0.29514  0.03727  0.24310  1.0000
  H   H31       1.0  0.20485  0.03727  0.74310  1.0000
  H   H32       1.0  0.70486  0.96272  0.75690  1.0000
  H   H33       1.0  0.73682  0.11650  0.37578  1.0000
  H   H34       1.0  0.23681  0.88352  0.12423  1.0000
  H   H35       1.0  0.26318  0.88352  0.62423  1.0000
  H   H36       1.0  0.76319  0.11648  0.87577  1.0000
  H   H37       1.0  0.75250  0.31305  0.33979  1.0000
  H   H38       1.0  0.25250  0.68695  0.16021  1.0000
  H   H39       1.0  0.24752  0.68696  0.66021  1.0000
  H   H40       1.0  0.74752  0.31304  0.83979  1.0000
  C   C1        1.0  0.32128  0.32279  0.11665  1.0000
  C   C2        1.0  0.82127  0.67720  0.38334  1.0000
  C   C3        1.0  0.67874  0.67721  0.88334  1.0000
  C   C4        1.0  0.17875  0.32280  0.61666  1.0000
  C   C5        1.0  0.29280  0.39470  0.04978  1.0000
  C   C6        1.0  0.79278  0.60529  0.45021  1.0000
  C   C7        1.0  0.70721  0.60530  0.95022  1.0000
  C   C8        1.0  0.20720  0.39472  0.54979  1.0000
  C   C9        1.0  0.28522  0.35170  0.96164  1.0000
  C   C10       1.0  0.78519  0.64830  0.53836  1.0000
  C   C11       1.0  0.71478  0.64831  0.03836  1.0000
  C   C12       1.0  0.21476  0.35171  0.46165  1.0000
  C   C13       1.0  0.30766  0.23743  0.93893  1.0000
  C   C14       1.0  0.80766  0.76257  0.56106  1.0000
  C   C15       1.0  0.69232  0.76258  0.06106  1.0000
  C   C16       1.0  0.19230  0.23744  0.43894  1.0000
  C   C17       1.0  0.34252  0.16643  0.00528  1.0000
  C   C18       1.0  0.84253  0.83357  0.49471  1.0000
  C   C19       1.0  0.65746  0.83358  0.99471  1.0000
  C   C20       1.0  0.15748  0.16644  0.50529  1.0000
  C   C21       1.0  0.34858  0.20862  0.09409  1.0000
  C   C22       1.0  0.84859  0.79137  0.40590  1.0000
  C   C23       1.0  0.65142  0.79138  0.90590  1.0000
  C   C24       1.0  0.15145  0.20863  0.59410  1.0000
  C   C25       1.0  0.81608  0.27044  0.20094  1.0000
  C   C26       1.0  0.31609  0.72955  0.29906  1.0000
  C   C27       1.0  0.18393  0.72955  0.79906  1.0000
  C   C28       1.0  0.68393  0.27045  0.70094  1.0000
  C   C29       1.0  0.85060  0.18432  0.13431  1.0000
  C   C30       1.0  0.35062  0.81566  0.36569  1.0000
  C   C31       1.0  0.14939  0.81567  0.86569  1.0000
  C   C32       1.0  0.64940  0.18434  0.63431  1.0000
  C   C33       1.0  0.84522  0.07389  0.15515  1.0000
  C   C34       1.0  0.34525  0.92610  0.34486  1.0000
  C   C35       1.0  0.15475  0.92610  0.84486  1.0000
  C   C36       1.0  0.65477  0.07390  0.65514  1.0000
  C   C37       1.0  0.80218  0.04902  0.24145  1.0000
  C   C38       1.0  0.30219  0.95098  0.25857  1.0000
  C   C39       1.0  0.19780  0.95099  0.75856  1.0000
  C   C40       1.0  0.69780  0.04901  0.74144  1.0000
  C   C41       1.0  0.76832  0.13506  0.30790  1.0000
  C   C42       1.0  0.26832  0.86495  0.19211  1.0000
  C   C43       1.0  0.23168  0.86495  0.69211  1.0000
  C   C44       1.0  0.73168  0.13505  0.80789  1.0000
  C   C45       1.0  0.77665  0.24552  0.28810  1.0000
  C   C46       1.0  0.27666  0.75449  0.21190  1.0000
  C   C47       1.0  0.22336  0.75449  0.71190  1.0000
  C   C48       1.0  0.72335  0.24551  0.78810  1.0000
  S   S1        1.0  0.31870  0.37279  0.23049  1.0000
  S   S2        1.0  0.81870  0.62719  0.26950  1.0000
  S   S3        1.0  0.68132  0.62720  0.76950  1.0000
  S   S4        1.0  0.18132  0.37280  0.73050  1.0000
  S   S5        1.0  0.81736  0.41006  0.17166  1.0000
  S   S6        1.0  0.31736  0.58992  0.32833  1.0000
  S   S7        1.0  0.18266  0.58993  0.82834  1.0000
  S   S8        1.0  0.68266  0.41007  0.67167  1.0000
