data_image0
_chemical_formula_structural       H40Pd4C48S8
_chemical_formula_sum              "H40 Pd4 C48 S8"
_cell_length_a       6.69988
_cell_length_b       14.3529
_cell_length_c       12.9804
_cell_angle_alpha    90.0024
_cell_angle_beta     89.9996
_cell_angle_gamma    89.9983

_space_group_name_H-M_alt    "P 1"
_space_group_IT_number       1

loop_
  _space_group_symop_operation_xyz
  'x, y, z'

loop_
  _atom_site_type_symbol
  _atom_site_label
  _atom_site_symmetry_multiplicity
  _atom_site_fract_x
  _atom_site_fract_y
  _atom_site_fract_z
  _atom_site_occupancy
  H   H1        1.0  0.34617  0.88038  0.17677  1.0000
  H   H2        1.0  0.34622  0.11964  0.17678  1.0000
  H   H3        1.0  0.84617  0.88038  0.82323  1.0000
  H   H4        1.0  0.84617  0.11962  0.82322  1.0000
  H   H5        1.0  0.34920  0.74447  0.29590  1.0000
  H   H6        1.0  0.34925  0.25555  0.29591  1.0000
  H   H7        1.0  0.84918  0.74448  0.70409  1.0000
  H   H8        1.0  0.84915  0.25552  0.70408  1.0000
  H   H9        1.0  0.22995  0.59040  0.23634  1.0000
  H   H10       1.0  0.22990  0.40962  0.23639  1.0000
  H   H11       1.0  0.72986  0.59041  0.76363  1.0000
  H   H12       1.0  0.72987  0.40960  0.76364  1.0000
  H   H13       1.0  0.10305  0.57199  0.05569  1.0000
  H   H14       1.0  0.10299  0.42802  0.05574  1.0000
  H   H15       1.0  0.60298  0.57201  0.94429  1.0000
  H   H16       1.0  0.60301  0.42801  0.94429  1.0000
  H   H17       1.0  0.10784  0.70594  0.93591  1.0000
  H   H18       1.0  0.10777  0.29407  0.93596  1.0000
  H   H19       1.0  0.60781  0.70596  0.06407  1.0000
  H   H20       1.0  0.60783  0.29407  0.06408  1.0000
  H   H21       1.0  0.84589  0.38027  0.32326  1.0000
  H   H22       1.0  0.84587  0.61968  0.32322  1.0000
  H   H23       1.0  0.34585  0.38031  0.67676  1.0000
  H   H24       1.0  0.34586  0.61970  0.67676  1.0000
  H   H25       1.0  0.84906  0.24428  0.20422  1.0000
  H   H26       1.0  0.84909  0.75568  0.20420  1.0000
  H   H27       1.0  0.34907  0.24432  0.79579  1.0000
  H   H28       1.0  0.34908  0.75570  0.79578  1.0000
  H   H29       1.0  0.73032  0.09018  0.26392  1.0000
  H   H30       1.0  0.73035  0.90979  0.26389  1.0000
  H   H31       1.0  0.23035  0.09021  0.73609  1.0000
  H   H32       1.0  0.23030  0.90980  0.73608  1.0000
  H   H33       1.0  0.60378  0.07181  0.44466  1.0000
  H   H34       1.0  0.60381  0.92818  0.44462  1.0000
  H   H35       1.0  0.10382  0.07181  0.55536  1.0000
  H   H36       1.0  0.10379  0.92818  0.55534  1.0000
  H   H37       1.0  0.60826  0.20586  0.56430  1.0000
  H   H38       1.0  0.60828  0.79414  0.56426  1.0000
  H   H39       1.0  0.10829  0.20585  0.43572  1.0000
  H   H40       1.0  0.10825  0.79413  0.43573  1.0000
  Pd  Pd1       1.0  0.98589  0.00001  0.99846  1.0000
  Pd  Pd2       1.0  0.48589  0.00001  0.00154  1.0000
  Pd  Pd3       1.0  0.98601  0.49999  0.49837  1.0000
  Pd  Pd4       1.0  0.48601  0.49999  0.50162  1.0000
  C   C1        1.0  0.22793  0.80164  0.04878  1.0000
  C   C2        1.0  0.22792  0.19837  0.04881  1.0000
  C   C3        1.0  0.72793  0.80165  0.95121  1.0000
  C   C4        1.0  0.72794  0.19836  0.95121  1.0000
  C   C5        1.0  0.29357  0.81253  0.15075  1.0000
  C   C6        1.0  0.29362  0.18748  0.15077  1.0000
  C   C7        1.0  0.79358  0.81254  0.84924  1.0000
  C   C8        1.0  0.79358  0.18747  0.84924  1.0000
  C   C9        1.0  0.29565  0.73626  0.21714  1.0000
  C   C10       1.0  0.29569  0.26375  0.21715  1.0000
  C   C11       1.0  0.79563  0.73628  0.78286  1.0000
  C   C12       1.0  0.79563  0.26374  0.78285  1.0000
  C   C13       1.0  0.22904  0.64919  0.18317  1.0000
  C   C14       1.0  0.22904  0.35081  0.18320  1.0000
  C   C15       1.0  0.72900  0.64921  0.81681  1.0000
  C   C16       1.0  0.72902  0.35080  0.81681  1.0000
  C   C17       1.0  0.15898  0.63898  0.08259  1.0000
  C   C18       1.0  0.15895  0.36104  0.08262  1.0000
  C   C19       1.0  0.65895  0.63899  0.91740  1.0000
  C   C20       1.0  0.65897  0.36103  0.91740  1.0000
  C   C21       1.0  0.15959  0.71450  0.01492  1.0000
  C   C22       1.0  0.15956  0.28551  0.01495  1.0000
  C   C23       1.0  0.65958  0.71451  0.98507  1.0000
  C   C24       1.0  0.65960  0.28550  0.98507  1.0000
  C   C25       1.0  0.72800  0.30157  0.45132  1.0000
  C   C26       1.0  0.72801  0.69841  0.45127  1.0000
  C   C27       1.0  0.22799  0.30157  0.54870  1.0000
  C   C28       1.0  0.22799  0.69842  0.54870  1.0000
  C   C29       1.0  0.79343  0.31243  0.34931  1.0000
  C   C30       1.0  0.79343  0.68753  0.34927  1.0000
  C   C31       1.0  0.29340  0.31246  0.65071  1.0000
  C   C32       1.0  0.29342  0.68754  0.65071  1.0000
  C   C33       1.0  0.79556  0.23615  0.28298  1.0000
  C   C34       1.0  0.79557  0.76382  0.28295  1.0000
  C   C35       1.0  0.29553  0.23618  0.71704  1.0000
  C   C36       1.0  0.29555  0.76383  0.71702  1.0000
  C   C37       1.0  0.72933  0.14905  0.31701  1.0000
  C   C38       1.0  0.72936  0.85093  0.31698  1.0000
  C   C39       1.0  0.22932  0.14907  0.68301  1.0000
  C   C40       1.0  0.22933  0.85094  0.68300  1.0000
  C   C41       1.0  0.65950  0.13883  0.41766  1.0000
  C   C42       1.0  0.65953  0.86116  0.41762  1.0000
  C   C43       1.0  0.15949  0.13883  0.58238  1.0000
  C   C44       1.0  0.15949  0.86116  0.58236  1.0000
  C   C45       1.0  0.65998  0.21441  0.48527  1.0000
  C   C46       1.0  0.65999  0.78558  0.48523  1.0000
  C   C47       1.0  0.15997  0.21441  0.51476  1.0000
  C   C48       1.0  0.15996  0.78558  0.51475  1.0000
  S   S1        1.0  0.23673  0.89329  0.95705  1.0000
  S   S2        1.0  0.23672  0.10672  0.95706  1.0000
  S   S3        1.0  0.73673  0.89330  0.04296  1.0000
  S   S4        1.0  0.73671  0.10672  0.04296  1.0000
  S   S5        1.0  0.73688  0.39328  0.54297  1.0000
  S   S6        1.0  0.73687  0.60671  0.54294  1.0000
  S   S7        1.0  0.23688  0.39328  0.45704  1.0000
  S   S8        1.0  0.23688  0.60670  0.45703  1.0000
