data_image0
_chemical_formula_structural       La2H20C12N18O14
_chemical_formula_sum              "La2 H20 C12 N18 O14"
_cell_length_a       8.86779
_cell_length_b       8.76194
_cell_length_c       11.6895
_cell_angle_alpha    65.9364
_cell_angle_beta     84.9612
_cell_angle_gamma    72.4146

_space_group_name_H-M_alt    "P 1"
_space_group_IT_number       1

loop_
  _space_group_symop_operation_xyz
  'x, y, z'

loop_
  _atom_site_type_symbol
  _atom_site_label
  _atom_site_symmetry_multiplicity
  _atom_site_fract_x
  _atom_site_fract_y
  _atom_site_fract_z
  _atom_site_occupancy
  La  La1       1.0  0.62665  0.27550  0.66154  1.0000
  La  La2       1.0  0.37335  0.72450  0.33846  1.0000
  H   H1        1.0  0.81120  0.58903  0.60681  1.0000
  H   H2        1.0  0.18881  0.41097  0.39318  1.0000
  H   H3        1.0  0.73803  0.62528  0.47706  1.0000
  H   H4        1.0  0.26199  0.37472  0.52294  1.0000
  H   H5        1.0  0.54924  0.53972  0.78882  1.0000
  H   H6        1.0  0.45075  0.46028  0.21119  1.0000
  H   H7        1.0  0.70596  0.39099  0.85543  1.0000
  H   H8        1.0  0.29405  0.60901  0.14457  1.0000
  H   H9        1.0  0.75502  0.38892  0.20609  1.0000
  H   H10       1.0  0.24498  0.61109  0.79391  1.0000
  H   H11       1.0  0.83113  0.53599  0.23569  1.0000
  H   H12       1.0  0.16887  0.46401  0.76431  1.0000
  H   H13       1.0  0.67813  0.00484  0.99680  1.0000
  H   H14       1.0  0.32186  0.99517  0.00320  1.0000
  H   H15       1.0  0.67792  0.12843  0.08596  1.0000
  H   H16       1.0  0.32207  0.87158  0.91404  1.0000
  H   H17       1.0  0.60703  0.01008  0.55979  1.0000
  H   H18       1.0  0.39297  0.98991  0.44021  1.0000
  H   H19       1.0  0.49113  0.19288  0.46447  1.0000
  H   H20       1.0  0.50888  0.80711  0.53552  1.0000
  C   C1        1.0  0.75022  0.35955  0.40017  1.0000
  C   C2        1.0  0.24978  0.64045  0.59984  1.0000
  C   C3        1.0  0.60459  0.89640  0.18431  1.0000
  C   C4        1.0  0.39540  0.10360  0.81569  1.0000
  C   C5        1.0  0.82611  0.40059  0.27268  1.0000
  C   C6        1.0  0.17389  0.59941  0.72732  1.0000
  C   C7        1.0  0.70673  0.99562  0.08938  1.0000
  C   C8        1.0  0.29327  0.00438  0.91061  1.0000
  C   C9        1.0  0.02266  0.13062  0.26237  1.0000
  C   C10       1.0  0.97734  0.86938  0.73764  1.0000
  C   C11       1.0  0.96956  0.95120  0.18385  1.0000
  C   C12       1.0  0.03044  0.04880  0.81615  1.0000
  N   N1        1.0  0.98230  0.28201  0.28195  1.0000
  N   N2        1.0  0.01770  0.71799  0.71806  1.0000
  N   N3        1.0  0.95492  0.77342  0.09502  1.0000
  N   N4        1.0  0.04508  0.22659  0.90498  1.0000
  N   N5        1.0  0.09653  0.72591  0.14173  1.0000
  N   N6        1.0  0.90347  0.27410  0.85827  1.0000
  N   N7        1.0  0.22475  0.15446  0.33858  1.0000
  N   N8        1.0  0.77524  0.84553  0.66143  1.0000
  N   N9        1.0  0.11262  0.82941  0.19800  1.0000
  N   N10       1.0  0.88738  0.17059  0.80200  1.0000
  N   N11       1.0  0.87344  0.91396  0.11939  1.0000
  N   N12       1.0  0.12656  0.08604  0.88061  1.0000
  N   N13       1.0  0.10987  0.29174  0.33086  1.0000
  N   N14       1.0  0.89012  0.70826  0.66914  1.0000
  N   N15       1.0  0.91833  0.08704  0.21572  1.0000
  N   N16       1.0  0.08167  0.91296  0.78429  1.0000
  N   N17       1.0  0.17798  0.05203  0.29756  1.0000
  N   N18       1.0  0.82202  0.94797  0.70244  1.0000
  O   O1        1.0  0.66692  0.75838  0.27917  1.0000
  O   O2        1.0  0.33308  0.24163  0.72082  1.0000
  O   O3        1.0  0.73503  0.55952  0.56760  1.0000
  O   O4        1.0  0.26498  0.44048  0.43240  1.0000
  O   O5        1.0  0.60206  0.43712  0.40410  1.0000
  O   O6        1.0  0.39794  0.56288  0.59590  1.0000
  O   O7        1.0  0.45555  0.95865  0.16028  1.0000
  O   O8        1.0  0.54445  0.04135  0.83971  1.0000
  O   O9        1.0  0.59370  0.41348  0.82937  1.0000
  O   O10       1.0  0.40631  0.58651  0.17063  1.0000
  O   O11       1.0  0.83408  0.25342  0.49728  1.0000
  O   O12       1.0  0.16592  0.74657  0.50272  1.0000
  O   O13       1.0  0.52487  0.12003  0.55192  1.0000
  O   O14       1.0  0.47513  0.87996  0.44808  1.0000
