data_image0
_chemical_formula_structural       Cd2H26C40N6O14
_chemical_formula_sum              "Cd2 H26 C40 N6 O14"
_cell_length_a       7.28827
_cell_length_b       10.4355
_cell_length_c       12.2152
_cell_angle_alpha    85.1699
_cell_angle_beta     80.1924
_cell_angle_gamma    81.5299

_space_group_name_H-M_alt    "P 1"
_space_group_IT_number       1

loop_
  _space_group_symop_operation_xyz
  'x, y, z'

loop_
  _atom_site_type_symbol
  _atom_site_label
  _atom_site_symmetry_multiplicity
  _atom_site_fract_x
  _atom_site_fract_y
  _atom_site_fract_z
  _atom_site_occupancy
  Cd  Cd1       1.0  0.70049  0.16049  0.12010  1.0000
  Cd  Cd2       1.0  0.29951  0.83951  0.87990  1.0000
  H   H1        1.0  0.44024  0.71569  0.28038  1.0000
  H   H2        1.0  0.55976  0.28431  0.71962  1.0000
  H   H3        1.0  0.85187  0.88054  0.36469  1.0000
  H   H4        1.0  0.14813  0.11946  0.63530  1.0000
  H   H5        1.0  0.49155  0.87820  0.45555  1.0000
  H   H6        1.0  0.50845  0.12179  0.54445  1.0000
  H   H7        1.0  0.59841  0.80152  0.09572  1.0000
  H   H8        1.0  0.40159  0.19848  0.90428  1.0000
  H   H9        1.0  0.28410  0.72118  0.55690  1.0000
  H   H10       1.0  0.71590  0.27881  0.44310  1.0000
  H   H11       1.0  0.46014  0.30043  0.33898  1.0000
  H   H12       1.0  0.53986  0.69957  0.66102  1.0000
  H   H13       1.0  0.95560  0.60261  0.77412  1.0000
  H   H14       1.0  0.04440  0.39740  0.22588  1.0000
  H   H15       1.0  0.05583  0.37075  0.72549  1.0000
  H   H16       1.0  0.94417  0.62926  0.27451  1.0000
  H   H17       1.0  0.78505  0.75784  0.90989  1.0000
  H   H18       1.0  0.21495  0.24216  0.09011  1.0000
  H   H19       1.0  0.35654  0.52248  0.40759  1.0000
  H   H20       1.0  0.64346  0.47752  0.59241  1.0000
  H   H21       1.0  0.95384  0.19287  0.86259  1.0000
  H   H22       1.0  0.04616  0.80713  0.13741  1.0000
  H   H23       1.0  0.87235  0.00247  0.93439  1.0000
  H   H24       1.0  0.12765  0.99753  0.06561  1.0000
  H   H25       1.0  0.66399  0.00121  0.92431  1.0000
  H   H26       1.0  0.33601  0.99879  0.07569  1.0000
  C   C1        1.0  0.48354  0.61691  0.25435  1.0000
  C   C2        1.0  0.51646  0.38309  0.74565  1.0000
  C   C3        1.0  0.75142  0.44190  0.00824  1.0000
  C   C4        1.0  0.24858  0.55810  0.99176  1.0000
  C   C5        1.0  0.29164  0.96383  0.34973  1.0000
  C   C6        1.0  0.70836  0.03617  0.65027  1.0000
  C   C7        1.0  0.64128  0.46679  0.11635  1.0000
  C   C8        1.0  0.35872  0.53321  0.88365  1.0000
  C   C9        1.0  0.06216  0.78896  0.46188  1.0000
  C   C10       1.0  0.93784  0.21104  0.53812  1.0000
  C   C11       1.0  0.43239  0.04315  0.28213  1.0000
  C   C12       1.0  0.56762  0.95685  0.71787  1.0000
  C   C13       1.0  0.99336  0.87886  0.38272  1.0000
  C   C14       1.0  0.00664  0.12114  0.61728  1.0000
  C   C15       1.0  0.35264  0.87703  0.43450  1.0000
  C   C16       1.0  0.64736  0.12297  0.56550  1.0000
  C   C17       1.0  0.58679  0.59720  0.14699  1.0000
  C   C18       1.0  0.41321  0.40280  0.85301  1.0000
  C   C19       1.0  0.10759  0.96783  0.32676  1.0000
  C   C20       1.0  0.89241  0.03217  0.67324  1.0000
  C   C21       1.0  0.01905  0.07055  0.25026  1.0000
  C   C22       1.0  0.98095  0.92945  0.74974  1.0000
  C   C23       1.0  0.63911  0.70213  0.07045  1.0000
  C   C24       1.0  0.36089  0.29787  0.92955  1.0000
  C   C25       1.0  0.23887  0.78883  0.49110  1.0000
  C   C26       1.0  0.76113  0.21117  0.50890  1.0000
  C   C27       1.0  0.49535  0.38623  0.28706  1.0000
  C   C28       1.0  0.50465  0.61377  0.71294  1.0000
  C   C29       1.0  0.91383  0.52203  0.83111  1.0000
  C   C30       1.0  0.08617  0.47797  0.16889  1.0000
  C   C31       1.0  0.96862  0.39440  0.80475  1.0000
  C   C32       1.0  0.03138  0.60560  0.19525  1.0000
  C   C33       1.0  0.74286  0.67868  0.96825  1.0000
  C   C34       1.0  0.25714  0.32132  0.03175  1.0000
  C   C35       1.0  0.43818  0.51157  0.32474  1.0000
  C   C36       1.0  0.56182  0.48843  0.67527  1.0000
  C   C37       1.0  0.80214  0.54878  0.93514  1.0000
  C   C38       1.0  0.19786  0.45122  0.06486  1.0000
  C   C39       1.0  0.91135  0.29439  0.88157  1.0000
  C   C40       1.0  0.08865  0.70561  0.11843  1.0000
  N   N1        1.0  0.59431  0.36497  0.18651  1.0000
  N   N2        1.0  0.40569  0.63503  0.81349  1.0000
  N   N3        1.0  0.80599  0.31733  0.98026  1.0000
  N   N4        1.0  0.19401  0.68267  0.01974  1.0000
  N   N5        1.0  0.94622  0.69020  0.51431  1.0000
  N   N6        1.0  0.05378  0.30980  0.48569  1.0000
  O   O1        1.0  0.43360  0.05731  0.17567  1.0000
  O   O2        1.0  0.56640  0.94269  0.82433  1.0000
  O   O3        1.0  0.94167  0.02584  0.17522  1.0000
  O   O4        1.0  0.05833  0.97416  0.82478  1.0000
  O   O5        1.0  0.74501  0.01417  0.97932  1.0000
  O   O6        1.0  0.25499  0.98583  0.02068  1.0000
  O   O7        1.0  0.54852  0.08647  0.32912  1.0000
  O   O8        1.0  0.45148  0.91353  0.67088  1.0000
  O   O9        1.0  0.78221  0.69998  0.49480  1.0000
  O   O10       1.0  0.21779  0.30002  0.50520  1.0000
  O   O11       1.0  0.01855  0.60058  0.57290  1.0000
  O   O12       1.0  0.98145  0.39942  0.42710  1.0000
  O   O13       1.0  0.01741  0.18694  0.26547  1.0000
  O   O14       1.0  0.98259  0.81306  0.73453  1.0000
