data_image0
_chemical_formula_structural       Cd2H52C68N4O20
_chemical_formula_sum              "Cd2 H52 C68 N4 O20"
_cell_length_a       7.73104
_cell_length_b       10.0699
_cell_length_c       18.3486
_cell_angle_alpha    88.0296
_cell_angle_beta     80.9341
_cell_angle_gamma    88.9661

_space_group_name_H-M_alt    "P 1"
_space_group_IT_number       1

loop_
  _space_group_symop_operation_xyz
  'x, y, z'

loop_
  _atom_site_type_symbol
  _atom_site_label
  _atom_site_symmetry_multiplicity
  _atom_site_fract_x
  _atom_site_fract_y
  _atom_site_fract_z
  _atom_site_occupancy
  Cd  Cd1       1.0  0.70437  0.49291  0.61074  1.0000
  Cd  Cd2       1.0  0.29564  0.50709  0.38926  1.0000
  H   H1        1.0  0.72246  0.91147  0.98611  1.0000
  H   H2        1.0  0.27754  0.08852  0.01389  1.0000
  H   H3        1.0  0.18377  0.88702  0.98569  1.0000
  H   H4        1.0  0.81624  0.11298  0.01431  1.0000
  H   H5        1.0  0.32270  0.46692  0.64414  1.0000
  H   H6        1.0  0.67730  0.53308  0.35586  1.0000
  H   H7        1.0  0.38526  0.39200  0.56771  1.0000
  H   H8        1.0  0.61474  0.60799  0.43229  1.0000
  H   H9        1.0  0.05720  0.52568  0.64761  1.0000
  H   H10       1.0  0.94280  0.47432  0.35239  1.0000
  H   H11       1.0  0.05603  0.60104  0.56805  1.0000
  H   H12       1.0  0.94398  0.39896  0.43195  1.0000
  H   H13       1.0  0.93432  0.18648  0.41880  1.0000
  H   H14       1.0  0.06568  0.81351  0.58120  1.0000
  H   H15       1.0  0.63021  0.82248  0.41997  1.0000
  H   H16       1.0  0.36979  0.17753  0.58003  1.0000
  H   H17       1.0  0.74322  0.81921  0.80534  1.0000
  H   H18       1.0  0.25677  0.18078  0.19466  1.0000
  H   H19       1.0  0.79790  0.82911  0.66889  1.0000
  H   H20       1.0  0.20211  0.17088  0.33111  1.0000
  H   H21       1.0  0.08240  0.19270  0.67193  1.0000
  H   H22       1.0  0.91761  0.80730  0.32807  1.0000
  H   H23       1.0  0.02521  0.18184  0.80880  1.0000
  H   H24       1.0  0.97479  0.81816  0.19120  1.0000
  H   H25       1.0  0.21006  0.78936  0.80671  1.0000
  H   H26       1.0  0.78994  0.21064  0.19329  1.0000
  H   H27       1.0  0.27890  0.78706  0.67052  1.0000
  H   H28       1.0  0.72110  0.21293  0.32948  1.0000
  H   H29       1.0  0.56195  0.15212  0.67011  1.0000
  H   H30       1.0  0.43804  0.84788  0.32989  1.0000
  H   H31       1.0  0.48894  0.15427  0.80669  1.0000
  H   H32       1.0  0.51106  0.84573  0.19331  1.0000
  H   H33       1.0  0.75976  0.29706  0.74626  1.0000
  H   H34       1.0  0.24023  0.70294  0.25374  1.0000
  H   H35       1.0  0.70849  0.27702  0.88422  1.0000
  H   H36       1.0  0.29150  0.72298  0.11577  1.0000
  H   H37       1.0  0.47047  0.67008  0.88483  1.0000
  H   H38       1.0  0.52954  0.32992  0.11517  1.0000
  H   H39       1.0  0.53821  0.67359  0.74800  1.0000
  H   H40       1.0  0.46181  0.32641  0.25199  1.0000
  H   H41       1.0  0.60038  0.36622  0.00028  1.0000
  H   H42       1.0  0.39962  0.63378  0.99972  1.0000
  H   H43       1.0  0.29715  0.31918  0.74487  1.0000
  H   H44       1.0  0.70285  0.68082  0.25513  1.0000
  H   H45       1.0  0.24122  0.29418  0.88205  1.0000
  H   H46       1.0  0.75877  0.70582  0.11796  1.0000
  H   H47       1.0  0.92959  0.65662  0.88404  1.0000
  H   H48       1.0  0.07040  0.34338  0.11596  1.0000
  H   H49       1.0  0.99357  0.66197  0.74777  1.0000
  H   H50       1.0  0.00643  0.33803  0.25223  1.0000
  H   H51       1.0  0.10465  0.36803  0.99852  1.0000
  H   H52       1.0  0.89535  0.63197  0.00149  1.0000
  C   C1        1.0  0.84957  0.25124  0.55683  1.0000
  C   C2        1.0  0.15044  0.74875  0.44317  1.0000
  C   C3        1.0  0.60021  0.74151  0.55833  1.0000
  C   C4        1.0  0.39980  0.25849  0.44167  1.0000
  C   C5        1.0  0.93214  0.12123  0.53076  1.0000
  C   C6        1.0  0.06786  0.87877  0.46924  1.0000
  C   C7        1.0  0.96537  0.10388  0.45450  1.0000
  C   C8        1.0  0.03464  0.89611  0.54550  1.0000
  C   C9        1.0  0.46732  0.97687  0.57843  1.0000
  C   C10       1.0  0.53266  0.02313  0.42157  1.0000
  C   C11       1.0  0.54096  0.87491  0.53134  1.0000
  C   C12       1.0  0.45903  0.12509  0.46867  1.0000
  C   C13       1.0  0.57057  0.90114  0.45508  1.0000
  C   C14       1.0  0.42941  0.09886  0.54492  1.0000
  C   C15       1.0  0.96832  0.01393  0.57839  1.0000
  C   C16       1.0  0.03168  0.98607  0.42161  1.0000
  C   C17       1.0  0.83767  0.00287  0.89699  1.0000
  C   C18       1.0  0.16233  0.99713  0.10301  1.0000
  C   C19       1.0  0.87899  0.00098  0.81593  1.0000
  C   C20       1.0  0.12101  0.99902  0.18407  1.0000
  C   C21       1.0  0.81954  0.89986  0.77601  1.0000
  C   C22       1.0  0.18045  0.10014  0.22399  1.0000
  C   C23       1.0  0.85140  0.90549  0.69926  1.0000
  C   C24       1.0  0.14859  0.09450  0.30074  1.0000
  C   C25       1.0  0.94131  0.01283  0.66039  1.0000
  C   C26       1.0  0.05869  0.98716  0.33961  1.0000
  C   C27       1.0  0.00722  0.11107  0.70085  1.0000
  C   C28       1.0  0.99279  0.88893  0.29915  1.0000
  C   C29       1.0  0.97580  0.10535  0.77739  1.0000
  C   C30       1.0  0.02420  0.89464  0.22261  1.0000
  C   C31       1.0  0.30139  0.97724  0.89643  1.0000
  C   C32       1.0  0.69862  0.02276  0.10357  1.0000
  C   C33       1.0  0.34611  0.97170  0.81554  1.0000
  C   C34       1.0  0.65389  0.02830  0.18447  1.0000
  C   C35       1.0  0.28837  0.86792  0.77645  1.0000
  C   C36       1.0  0.71163  0.13208  0.22355  1.0000
  C   C37       1.0  0.32699  0.86712  0.70001  1.0000
  C   C38       1.0  0.67301  0.13288  0.29999  1.0000
  C   C39       1.0  0.42635  0.96922  0.66034  1.0000
  C   C40       1.0  0.57364  0.03078  0.33966  1.0000
  C   C41       1.0  0.48174  0.07364  0.69980  1.0000
  C   C42       1.0  0.51825  0.92636  0.30020  1.0000
  C   C43       1.0  0.44264  0.07469  0.77629  1.0000
  C   C44       1.0  0.55736  0.92531  0.22371  1.0000
  C   C45       1.0  0.69668  0.37703  0.77961  1.0000
  C   C46       1.0  0.30332  0.62297  0.22039  1.0000
  C   C47       1.0  0.66619  0.36626  0.85623  1.0000
  C   C48       1.0  0.33381  0.63374  0.14377  1.0000
  C   C49       1.0  0.58206  0.47098  0.89717  1.0000
  C   C50       1.0  0.41794  0.52903  0.10283  1.0000
  C   C51       1.0  0.53562  0.58449  0.85721  1.0000
  C   C52       1.0  0.46439  0.41551  0.14279  1.0000
  C   C53       1.0  0.57249  0.58760  0.78073  1.0000
  C   C54       1.0  0.42753  0.41241  0.21927  1.0000
  C   C55       1.0  0.54655  0.45647  0.97720  1.0000
  C   C56       1.0  0.45345  0.54353  0.02280  1.0000
  C   C57       1.0  0.21506  0.39129  0.77795  1.0000
  C   C58       1.0  0.78493  0.60872  0.22205  1.0000
  C   C59       1.0  0.18433  0.37828  0.85462  1.0000
  C   C60       1.0  0.81567  0.62173  0.14538  1.0000
  C   C61       1.0  0.08006  0.47347  0.89623  1.0000
  C   C62       1.0  0.91994  0.52653  0.10377  1.0000
  C   C63       1.0  0.01210  0.57877  0.85631  1.0000
  C   C64       1.0  0.98790  0.42124  0.14369  1.0000
  C   C65       1.0  0.04816  0.58285  0.77973  1.0000
  C   C66       1.0  0.95183  0.41716  0.22027  1.0000
  C   C67       1.0  0.04698  0.45767  0.97649  1.0000
  C   C68       1.0  0.95302  0.54233  0.02352  1.0000
  N   N1        1.0  0.65083  0.48558  0.74209  1.0000
  N   N2        1.0  0.34917  0.51442  0.25791  1.0000
  N   N3        1.0  0.14808  0.49122  0.74004  1.0000
  N   N4        1.0  0.85191  0.50878  0.25996  1.0000
  O   O1        1.0  0.83431  0.34640  0.50994  1.0000
  O   O2        1.0  0.16569  0.65359  0.49006  1.0000
  O   O3        1.0  0.79226  0.26431  0.62497  1.0000
  O   O4        1.0  0.20774  0.73568  0.37503  1.0000
  O   O5        1.0  0.65491  0.65198  0.51172  1.0000
  O   O6        1.0  0.34508  0.34802  0.48828  1.0000
  O   O7        1.0  0.59938  0.71979  0.62685  1.0000
  O   O8        1.0  0.40062  0.28022  0.37315  1.0000
  O   O9        1.0  0.87540  0.10055  0.93196  1.0000
  O   O10       1.0  0.12459  0.89945  0.06804  1.0000
  O   O11       1.0  0.75628  0.89699  0.92989  1.0000
  O   O12       1.0  0.24373  0.10301  0.07011  1.0000
  O   O13       1.0  0.22119  0.87107  0.92977  1.0000
  O   O14       1.0  0.77882  0.12894  0.07023  1.0000
  O   O15       1.0  0.33552  0.07662  0.93077  1.0000
  O   O16       1.0  0.66448  0.92338  0.06923  1.0000
  O   O17       1.0  0.41787  0.41423  0.61675  1.0000
  O   O18       1.0  0.58214  0.58577  0.38325  1.0000
  O   O19       1.0  0.98298  0.57405  0.61632  1.0000
  O   O20       1.0  0.01702  0.42595  0.38368  1.0000
