data_image0
_chemical_formula_structural       Ni2H30C38N4O8
_chemical_formula_sum              "Ni2 H30 C38 N4 O8"
_cell_length_a       8.99409
_cell_length_b       9.71137
_cell_length_c       10.622
_cell_angle_alpha    93.7671
_cell_angle_beta     101.508
_cell_angle_gamma    112.068

_space_group_name_H-M_alt    "P 1"
_space_group_IT_number       1

loop_
  _space_group_symop_operation_xyz
  'x, y, z'

loop_
  _atom_site_type_symbol
  _atom_site_label
  _atom_site_symmetry_multiplicity
  _atom_site_fract_x
  _atom_site_fract_y
  _atom_site_fract_z
  _atom_site_occupancy
  Ni  Ni1       1.0  0.92637  0.34731  0.47929  1.0000
  Ni  Ni2       1.0  0.07363  0.65269  0.52071  1.0000
  H   H1        1.0  0.46674  0.55194  0.60199  1.0000
  H   H2        1.0  0.53326  0.44805  0.39801  1.0000
  H   H3        1.0  0.74922  0.60935  0.73360  1.0000
  H   H4        1.0  0.25078  0.39064  0.26639  1.0000
  H   H5        1.0  0.56233  0.20632  0.90320  1.0000
  H   H6        1.0  0.43767  0.79370  0.09681  1.0000
  H   H7        1.0  0.28226  0.13981  0.75589  1.0000
  H   H8        1.0  0.71773  0.86019  0.24412  1.0000
  H   H9        1.0  0.75075  0.41128  0.08849  1.0000
  H   H10       1.0  0.24925  0.58872  0.91151  1.0000
  H   H11       1.0  0.62895  0.26288  0.58510  1.0000
  H   H12       1.0  0.37105  0.73711  0.41490  1.0000
  H   H13       1.0  0.32656  0.11273  0.49741  1.0000
  H   H14       1.0  0.67344  0.88726  0.50259  1.0000
  H   H15       1.0  0.42348  0.04181  0.12367  1.0000
  H   H16       1.0  0.57652  0.95819  0.87633  1.0000
  H   H17       1.0  0.72422  0.18997  0.22615  1.0000
  H   H18       1.0  0.27578  0.81004  0.77384  1.0000
  H   H19       1.0  0.14231  0.85577  0.25718  1.0000
  H   H20       1.0  0.85769  0.14423  0.74282  1.0000
  H   H21       1.0  0.09588  0.00754  0.30753  1.0000
  H   H22       1.0  0.90412  0.99246  0.69247  1.0000
  H   H23       1.0  0.23751  0.21422  0.12704  1.0000
  H   H24       1.0  0.76249  0.78578  0.87296  1.0000
  H   H25       1.0  0.03061  0.15620  0.14567  1.0000
  H   H26       1.0  0.96939  0.84381  0.85433  1.0000
  H   H27       1.0  0.85583  0.87699  0.10475  1.0000
  H   H28       1.0  0.14417  0.12300  0.89525  1.0000
  H   H29       1.0  0.95020  0.75408  0.06408  1.0000
  H   H30       1.0  0.04980  0.24592  0.93592  1.0000
  C   C1        1.0  0.18582  0.30231  0.59135  1.0000
  C   C2        1.0  0.81418  0.69769  0.40865  1.0000
  C   C3        1.0  0.35682  0.34343  0.67308  1.0000
  C   C4        1.0  0.64318  0.65658  0.32692  1.0000
  C   C5        1.0  0.48868  0.47587  0.66708  1.0000
  C   C6        1.0  0.51133  0.52413  0.33291  1.0000
  C   C7        1.0  0.64667  0.50835  0.74207  1.0000
  C   C8        1.0  0.35333  0.49165  0.25792  1.0000
  C   C9        1.0  0.67449  0.41349  0.83006  1.0000
  C   C10       1.0  0.32551  0.58651  0.16994  1.0000
  C   C11       1.0  0.54120  0.28179  0.83682  1.0000
  C   C12       1.0  0.45880  0.71822  0.16318  1.0000
  C   C13       1.0  0.38509  0.24512  0.75641  1.0000
  C   C14       1.0  0.61491  0.75488  0.24360  1.0000
  C   C15       1.0  0.97459  0.50378  0.72487  1.0000
  C   C16       1.0  0.02541  0.49621  0.27513  1.0000
  C   C17       1.0  0.98378  0.50647  0.86746  1.0000
  C   C18       1.0  0.01622  0.49353  0.13254  1.0000
  C   C19       1.0  0.84030  0.45341  0.91522  1.0000
  C   C20       1.0  0.15970  0.54659  0.08477  1.0000
  C   C21       1.0  0.85968  0.44675  0.04852  1.0000
  C   C22       1.0  0.14032  0.55325  0.95148  1.0000
  C   C23       1.0  0.57933  0.21156  0.48353  1.0000
  C   C24       1.0  0.42067  0.78844  0.51647  1.0000
  C   C25       1.0  0.41083  0.12783  0.43365  1.0000
  C   C26       1.0  0.58918  0.87217  0.56634  1.0000
  C   C27       1.0  0.34914  0.06530  0.30204  1.0000
  C   C28       1.0  0.65086  0.93469  0.69796  1.0000
  C   C29       1.0  0.46520  0.08843  0.22679  1.0000
  C   C30       1.0  0.53480  0.91157  0.77321  1.0000
  C   C31       1.0  0.63193  0.17140  0.28270  1.0000
  C   C32       1.0  0.36807  0.82860  0.71730  1.0000
  C   C33       1.0  0.16729  0.97418  0.24661  1.0000
  C   C34       1.0  0.83271  0.02582  0.75339  1.0000
  C   C35       1.0  0.11113  0.12864  0.09007  1.0000
  C   C36       1.0  0.88887  0.87136  0.90993  1.0000
  C   C37       1.0  0.94690  0.86464  0.05294  1.0000
  C   C38       1.0  0.05310  0.13536  0.94706  1.0000
  N   N1        1.0  0.69021  0.23532  0.40945  1.0000
  N   N2        1.0  0.30979  0.76469  0.59055  1.0000
  N   N3        1.0  0.11202  0.98105  0.10901  1.0000
  N   N4        1.0  0.88798  0.01895  0.89099  1.0000
  O   O1        1.0  0.15824  0.41574  0.54697  1.0000
  O   O2        1.0  0.84176  0.58426  0.45304  1.0000
  O   O3        1.0  0.08068  0.17085  0.57107  1.0000
  O   O4        1.0  0.91931  0.82915  0.42894  1.0000
  O   O5        1.0  0.04166  0.63212  0.69053  1.0000
  O   O6        1.0  0.95835  0.36788  0.30947  1.0000
  O   O7        1.0  0.90660  0.37404  0.65475  1.0000
  O   O8        1.0  0.09339  0.62595  0.34525  1.0000
