data_image0
_chemical_formula_structural       NiH26C34N2O10
_chemical_formula_sum              "Ni1 H26 C34 N2 O10"
_cell_length_a       9.16695
_cell_length_b       9.54812
_cell_length_c       10.0204
_cell_angle_alpha    70.9807
_cell_angle_beta     66.1821
_cell_angle_gamma    89.4278

_space_group_name_H-M_alt    "P 1"
_space_group_IT_number       1

loop_
  _space_group_symop_operation_xyz
  'x, y, z'

loop_
  _atom_site_type_symbol
  _atom_site_label
  _atom_site_symmetry_multiplicity
  _atom_site_fract_x
  _atom_site_fract_y
  _atom_site_fract_z
  _atom_site_occupancy
  Ni  Ni1       1.0  0.50000  0.50000  0.50000  1.0000
  H   H1        1.0  0.33444  0.61996  0.12316  1.0000
  H   H2        1.0  0.66555  0.38003  0.87685  1.0000
  H   H3        1.0  0.24440  0.96338  0.23101  1.0000
  H   H4        1.0  0.75560  0.03662  0.76899  1.0000
  H   H5        1.0  0.28196  0.66020  0.58928  1.0000
  H   H6        1.0  0.71805  0.33981  0.41072  1.0000
  H   H7        1.0  0.27863  0.57307  0.75621  1.0000
  H   H8        1.0  0.72137  0.42694  0.24379  1.0000
  H   H9        1.0  0.05119  0.65601  0.83564  1.0000
  H   H10       1.0  0.94881  0.34399  0.16436  1.0000
  H   H11       1.0  0.80163  0.76092  0.83874  1.0000
  H   H12       1.0  0.19838  0.23908  0.16125  1.0000
  H   H13       1.0  0.77139  0.91694  0.20503  1.0000
  H   H14       1.0  0.22861  0.08305  0.79496  1.0000
  H   H15       1.0  0.01662  0.80828  0.20648  1.0000
  H   H16       1.0  0.98337  0.19171  0.79352  1.0000
  H   H17       1.0  0.20891  0.52976  0.45281  1.0000
  H   H18       1.0  0.79108  0.47024  0.54720  1.0000
  H   H19       1.0  0.00099  0.36682  0.44913  1.0000
  H   H20       1.0  0.99901  0.63318  0.55087  1.0000
  H   H21       1.0  0.30376  0.01771  0.47355  1.0000
  H   H22       1.0  0.69624  0.98230  0.52645  1.0000
  H   H23       1.0  0.49857  0.19575  0.47303  1.0000
  H   H24       1.0  0.50144  0.80426  0.52697  1.0000
  H   H25       1.0  0.89885  0.12724  0.47140  1.0000
  H   H26       1.0  0.10116  0.87276  0.52859  1.0000
  C   C1        1.0  0.43803  0.78307  0.30507  1.0000
  C   C2        1.0  0.56198  0.21694  0.69493  1.0000
  C   C3        1.0  0.62631  0.91718  0.01571  1.0000
  C   C4        1.0  0.37369  0.08282  0.98428  1.0000
  C   C5        1.0  0.47925  0.89895  0.14679  1.0000
  C   C6        1.0  0.52075  0.10105  0.85321  1.0000
  C   C7        1.0  0.35799  0.98258  0.12865  1.0000
  C   C8        1.0  0.64202  0.01742  0.87134  1.0000
  C   C9        1.0  0.19988  0.66238  0.01676  1.0000
  C   C10       1.0  0.80010  0.33760  0.98325  1.0000
  C   C11       1.0  0.05063  0.72487  0.02118  1.0000
  C   C12       1.0  0.94937  0.27512  0.97883  1.0000
  C   C13       1.0  0.98970  0.71341  0.91654  1.0000
  C   C14       1.0  0.01030  0.28658  0.08347  1.0000
  C   C15       1.0  0.85007  0.77257  0.91813  1.0000
  C   C16       1.0  0.14993  0.22743  0.08187  1.0000
  C   C17       1.0  0.76822  0.84509  0.02290  1.0000
  C   C18       1.0  0.23178  0.15491  0.97710  1.0000
  C   C19       1.0  0.83074  0.85714  0.12617  1.0000
  C   C20       1.0  0.16927  0.14286  0.87383  1.0000
  C   C21       1.0  0.96921  0.79717  0.12641  1.0000
  C   C22       1.0  0.03079  0.20282  0.87359  1.0000
  C   C23       1.0  0.22402  0.41530  0.45861  1.0000
  C   C24       1.0  0.77597  0.58471  0.54139  1.0000
  C   C25       1.0  0.10833  0.32330  0.45804  1.0000
  C   C26       1.0  0.89167  0.67670  0.54196  1.0000
  C   C27       1.0  0.12860  0.17378  0.47155  1.0000
  C   C28       1.0  0.87140  0.82622  0.52845  1.0000
  C   C29       1.0  0.27502  0.12904  0.47275  1.0000
  C   C30       1.0  0.72498  0.87096  0.52725  1.0000
  C   C31       1.0  0.38558  0.22852  0.47041  1.0000
  C   C32       1.0  0.61442  0.77148  0.52959  1.0000
  C   C33       1.0  0.00094  0.07462  0.48407  1.0000
  C   C34       1.0  0.99906  0.92538  0.51592  1.0000
  N   N1        1.0  0.35968  0.36864  0.46868  1.0000
  N   N2        1.0  0.64032  0.63137  0.53132  1.0000
  O   O1        1.0  0.50659  0.66539  0.30828  1.0000
  O   O2        1.0  0.49341  0.33461  0.69171  1.0000
  O   O3        1.0  0.33498  0.80704  0.42310  1.0000
  O   O4        1.0  0.66504  0.19297  0.57690  1.0000
  O   O5        1.0  0.23119  0.65816  0.13936  1.0000
  O   O6        1.0  0.76879  0.34183  0.86066  1.0000
  O   O7        1.0  0.29175  0.61703  0.91509  1.0000
  O   O8        1.0  0.70824  0.38294  0.08493  1.0000
  O   O9        1.0  0.26255  0.55869  0.66970  1.0000
  O   O10       1.0  0.73746  0.44132  0.33030  1.0000
