data_image0
_chemical_formula_structural       Co2P4H24C28S2N4O12
_chemical_formula_sum              "Co2 P4 H24 C28 S2 N4 O12"
_cell_length_a       9.23484
_cell_length_b       9.57614
_cell_length_c       10.0256
_cell_angle_alpha    110.055
_cell_angle_beta     90.0001
_cell_angle_gamma    90

_space_group_name_H-M_alt    "P 1"
_space_group_IT_number       1

loop_
  _space_group_symop_operation_xyz
  'x, y, z'

loop_
  _atom_site_type_symbol
  _atom_site_label
  _atom_site_symmetry_multiplicity
  _atom_site_fract_x
  _atom_site_fract_y
  _atom_site_fract_z
  _atom_site_occupancy
  Co  Co1       1.0  0.35674  0.47987  0.10684  1.0000
  Co  Co2       1.0  0.85674  0.52013  0.89316  1.0000
  P   P1        1.0  0.40129  0.22902  0.25832  1.0000
  P   P2        1.0  0.90129  0.77098  0.74168  1.0000
  P   P3        1.0  0.50306  0.58881  0.86308  1.0000
  P   P4        1.0  0.00306  0.41119  0.13692  1.0000
  H   H1        1.0  0.62674  0.78225  0.83631  1.0000
  H   H2        1.0  0.12675  0.21775  0.16368  1.0000
  H   H3        1.0  0.55713  0.05261  0.15173  1.0000
  H   H4        1.0  0.05713  0.94739  0.84826  1.0000
  H   H5        1.0  0.16151  0.39048  0.44671  1.0000
  H   H6        1.0  0.66151  0.60952  0.55329  1.0000
  H   H7        1.0  0.19844  0.56431  0.71326  1.0000
  H   H8        1.0  0.69844  0.43569  0.28674  1.0000
  H   H9        1.0  0.45822  0.55258  0.40847  1.0000
  H   H10       1.0  0.95822  0.44742  0.59153  1.0000
  H   H11       1.0  0.44462  0.76645  0.63762  1.0000
  H   H12       1.0  0.94462  0.23355  0.36238  1.0000
  H   H13       1.0  0.27851  0.03049  0.39832  1.0000
  H   H14       1.0  0.77851  0.96951  0.60168  1.0000
  H   H15       1.0  0.30378  0.80662  0.17963  1.0000
  H   H16       1.0  0.80378  0.19338  0.82037  1.0000
  H   H17       1.0  0.14852  0.34129  0.85969  1.0000
  H   H18       1.0  0.64853  0.65871  0.14031  1.0000
  H   H19       1.0  0.14460  0.12698  0.63208  1.0000
  H   H20       1.0  0.64460  0.87301  0.36792  1.0000
  H   H21       1.0  0.56412  0.00099  0.74621  1.0000
  H   H22       1.0  0.06412  0.99901  0.25380  1.0000
  H   H23       1.0  0.55313  0.22467  0.96482  1.0000
  H   H24       1.0  0.05313  0.77534  0.03518  1.0000
  C   C1        1.0  0.38282  0.31497  0.44665  1.0000
  C   C2        1.0  0.88282  0.68503  0.55335  1.0000
  C   C3        1.0  0.26055  0.39639  0.50681  1.0000
  C   C4        1.0  0.76055  0.60361  0.49319  1.0000
  C   C5        1.0  0.28161  0.49141  0.64857  1.0000
  C   C6        1.0  0.78161  0.50858  0.35144  1.0000
  C   C7        1.0  0.42068  0.48205  0.69662  1.0000
  C   C8        1.0  0.92068  0.51794  0.30338  1.0000
  C   C9        1.0  0.42030  0.66105  0.41174  1.0000
  C   C10       1.0  0.92030  0.33895  0.58826  1.0000
  C   C11       1.0  0.41318  0.78035  0.53813  1.0000
  C   C12       1.0  0.91318  0.21965  0.46187  1.0000
  C   C13       1.0  0.36019  0.91690  0.53699  1.0000
  C   C14       1.0  0.86019  0.08310  0.46301  1.0000
  C   C15       1.0  0.31740  0.92621  0.40613  1.0000
  C   C16       1.0  0.81740  0.07379  0.59387  1.0000
  C   C17       1.0  0.33088  0.80226  0.28387  1.0000
  C   C18       1.0  0.83088  0.19774  0.71613  1.0000
  C   C19       1.0  0.23902  0.26381  0.82985  1.0000
  C   C20       1.0  0.73902  0.73619  0.17015  1.0000
  C   C21       1.0  0.23761  0.14451  0.70273  1.0000
  C   C22       1.0  0.73761  0.85548  0.29728  1.0000
  C   C23       1.0  0.35470  0.04563  0.66932  1.0000
  C   C24       1.0  0.85470  0.95437  0.33069  1.0000
  C   C25       1.0  0.46953  0.07331  0.76654  1.0000
  C   C26       1.0  0.96953  0.92669  0.23347  1.0000
  C   C27       1.0  0.46375  0.19695  0.88931  1.0000
  C   C28       1.0  0.96375  0.80305  0.11069  1.0000
  S   S1        1.0  0.52272  0.35412  0.56716  1.0000
  S   S2        1.0  0.02272  0.64588  0.43284  1.0000
  N   N1        1.0  0.38062  0.67038  0.28582  1.0000
  N   N2        1.0  0.88062  0.32963  0.71418  1.0000
  N   N3        1.0  0.34968  0.29041  0.92266  1.0000
  N   N4        1.0  0.84968  0.70959  0.07734  1.0000
  O   O1        1.0  0.64633  0.51125  0.86458  1.0000
  O   O2        1.0  0.14633  0.48875  0.13543  1.0000
  O   O3        1.0  0.39923  0.60129  0.98408  1.0000
  O   O4        1.0  0.89924  0.39871  0.01592  1.0000
  O   O5        1.0  0.52418  0.75112  0.85934  1.0000
  O   O6        1.0  0.02418  0.24888  0.14066  1.0000
  O   O7        1.0  0.45659  0.34799  0.20089  1.0000
  O   O8        1.0  0.95659  0.65201  0.79912  1.0000
  O   O9        1.0  0.26171  0.15135  0.19610  1.0000
  O   O10       1.0  0.76171  0.84865  0.80390  1.0000
  O   O11       1.0  0.52974  0.11193  0.24870  1.0000
  O   O12       1.0  0.02974  0.88807  0.75130  1.0000
