data_image0
_chemical_formula_structural       Cu2H26C28N4O10
_chemical_formula_sum              "Cu2 H26 C28 N4 O10"
_cell_length_a       7.56037
_cell_length_b       9.12431
_cell_length_c       10.3124
_cell_angle_alpha    76.3533
_cell_angle_beta     77.5571
_cell_angle_gamma    85.7492

_space_group_name_H-M_alt    "P 1"
_space_group_IT_number       1

loop_
  _space_group_symop_operation_xyz
  'x, y, z'

loop_
  _atom_site_type_symbol
  _atom_site_label
  _atom_site_symmetry_multiplicity
  _atom_site_fract_x
  _atom_site_fract_y
  _atom_site_fract_z
  _atom_site_occupancy
  Cu  Cu1       1.0  0.25177  0.24151  0.73008  1.0000
  Cu  Cu2       1.0  0.74821  0.75848  0.26992  1.0000
  H   H1        1.0  0.75774  0.16818  0.46439  1.0000
  H   H2        1.0  0.24228  0.83184  0.53560  1.0000
  H   H3        1.0  0.69113  0.98222  0.49378  1.0000
  H   H4        1.0  0.30889  0.01781  0.50621  1.0000
  H   H5        1.0  0.93014  0.90284  0.64287  1.0000
  H   H6        1.0  0.06987  0.09714  0.35713  1.0000
  H   H7        1.0  0.64139  0.36001  0.60440  1.0000
  H   H8        1.0  0.35863  0.63999  0.39560  1.0000
  H   H9        1.0  0.79364  0.60049  0.58224  1.0000
  H   H10       1.0  0.20635  0.39951  0.41778  1.0000
  H   H11       1.0  0.61202  0.80548  0.67963  1.0000
  H   H12       1.0  0.38797  0.19451  0.32037  1.0000
  H   H13       1.0  0.28386  0.77154  0.77794  1.0000
  H   H14       1.0  0.71613  0.22847  0.22206  1.0000
  H   H15       1.0  0.00221  0.72803  0.84338  1.0000
  H   H16       1.0  0.99780  0.27196  0.15665  1.0000
  H   H17       1.0  0.69218  0.64276  0.95185  1.0000
  H   H18       1.0  0.30782  0.35723  0.04819  1.0000
  H   H19       1.0  0.61382  0.37186  0.96339  1.0000
  H   H20       1.0  0.38619  0.62814  0.03663  1.0000
  H   H21       1.0  0.85729  0.20366  0.86708  1.0000
  H   H22       1.0  0.14268  0.79633  0.13291  1.0000
  H   H23       1.0  0.47022  0.11721  0.89941  1.0000
  H   H24       1.0  0.52977  0.88281  0.10060  1.0000
  H   H25       1.0  0.33931  0.08607  0.04459  1.0000
  H   H26       1.0  0.66068  0.91395  0.95542  1.0000
  C   C1        1.0  0.60484  0.08686  0.66223  1.0000
  C   C2        1.0  0.39516  0.91315  0.33779  1.0000
  C   C3        1.0  0.74655  0.06051  0.54029  1.0000
  C   C4        1.0  0.25345  0.93951  0.45968  1.0000
  C   C5        1.0  0.93445  0.01046  0.56700  1.0000
  C   C6        1.0  0.06556  0.98953  0.43301  1.0000
  C   C7        1.0  0.01233  0.13061  0.61926  1.0000
  C   C8        1.0  0.98768  0.86937  0.38073  1.0000
  C   C9        1.0  0.56595  0.45294  0.64200  1.0000
  C   C10       1.0  0.43403  0.54706  0.35798  1.0000
  C   C11       1.0  0.65081  0.58676  0.63067  1.0000
  C   C12       1.0  0.34919  0.41323  0.36931  1.0000
  C   C13       1.0  0.54886  0.70138  0.68232  1.0000
  C   C14       1.0  0.45115  0.29861  0.31767  1.0000
  C   C15       1.0  0.36542  0.68156  0.73921  1.0000
  C   C16       1.0  0.63458  0.31844  0.26078  1.0000
  C   C17       1.0  0.28836  0.54480  0.74551  1.0000
  C   C18       1.0  0.71163  0.45521  0.25448  1.0000
  C   C19       1.0  0.09674  0.50988  0.80340  1.0000
  C   C20       1.0  0.90327  0.49012  0.19660  1.0000
  C   C21       1.0  0.96662  0.61240  0.85082  1.0000
  C   C22       1.0  0.03339  0.38758  0.14918  1.0000
  C   C23       1.0  0.79167  0.56368  0.91092  1.0000
  C   C24       1.0  0.20832  0.43631  0.08911  1.0000
  C   C25       1.0  0.74929  0.41497  0.91923  1.0000
  C   C26       1.0  0.25070  0.58503  0.08079  1.0000
  C   C27       1.0  0.88352  0.31959  0.86684  1.0000
  C   C28       1.0  0.11647  0.68041  0.13316  1.0000
  N   N1        1.0  0.39018  0.43169  0.69945  1.0000
  N   N2        1.0  0.60980  0.56831  0.30054  1.0000
  N   N3        1.0  0.05285  0.36633  0.81149  1.0000
  N   N4        1.0  0.94715  0.63367  0.18850  1.0000
  O   O1        1.0  0.45461  0.14210  0.62936  1.0000
  O   O2        1.0  0.54540  0.85788  0.37062  1.0000
  O   O3        1.0  0.63773  0.05842  0.78081  1.0000
  O   O4        1.0  0.36225  0.94160  0.21921  1.0000
  O   O5        1.0  0.99753  0.26654  0.56118  1.0000
  O   O6        1.0  0.00251  0.73345  0.43881  1.0000
  O   O7        1.0  0.09676  0.08036  0.71894  1.0000
  O   O8        1.0  0.90325  0.91964  0.28106  1.0000
  O   O9        1.0  0.36875  0.16194  0.95878  1.0000
  O   O10       1.0  0.63125  0.83807  0.04123  1.0000
