data_image0
_chemical_formula_structural       Cd2H28C36N4O14
_chemical_formula_sum              "Cd2 H28 C36 N4 O14"
_cell_length_a       8.24897
_cell_length_b       9.46237
_cell_length_c       13.0214
_cell_angle_alpha    93.4934
_cell_angle_beta     104.622
_cell_angle_gamma    110.215

_space_group_name_H-M_alt    "P 1"
_space_group_IT_number       1

loop_
  _space_group_symop_operation_xyz
  'x, y, z'

loop_
  _atom_site_type_symbol
  _atom_site_label
  _atom_site_symmetry_multiplicity
  _atom_site_fract_x
  _atom_site_fract_y
  _atom_site_fract_z
  _atom_site_occupancy
  Cd  Cd1       1.0  0.38456  0.61581  0.18727  1.0000
  Cd  Cd2       1.0  0.61543  0.38419  0.81273  1.0000
  H   H1        1.0  0.69999  0.97103  0.20466  1.0000
  H   H2        1.0  0.30003  0.02897  0.79535  1.0000
  H   H3        1.0  0.90610  0.19966  0.34129  1.0000
  H   H4        1.0  0.09391  0.80034  0.65871  1.0000
  H   H5        1.0  0.90904  0.19457  0.53640  1.0000
  H   H6        1.0  0.09095  0.80543  0.46359  1.0000
  H   H7        1.0  0.78528  0.05582  0.67302  1.0000
  H   H8        1.0  0.21471  0.94418  0.32698  1.0000
  H   H9        1.0  0.56759  0.82634  0.71433  1.0000
  H   H10       1.0  0.43241  0.17366  0.28566  1.0000
  H   H11       1.0  0.32711  0.56936  0.65438  1.0000
  H   H12       1.0  0.67290  0.43064  0.34562  1.0000
  H   H13       1.0  0.12125  0.35734  0.50171  1.0000
  H   H14       1.0  0.87876  0.64265  0.49830  1.0000
  H   H15       1.0  0.15155  0.38212  0.31459  1.0000
  H   H16       1.0  0.84845  0.61788  0.68541  1.0000
  H   H17       1.0  0.12837  0.15363  0.91799  1.0000
  H   H18       1.0  0.87162  0.84636  0.08201  1.0000
  H   H19       1.0  0.87959  0.12987  0.05996  1.0000
  H   H20       1.0  0.12041  0.87012  0.94004  1.0000
  H   H21       1.0  0.18493  0.08116  0.14724  1.0000
  H   H22       1.0  0.81506  0.91884  0.85276  1.0000
  H   H23       1.0  0.54598  0.16271  0.97311  1.0000
  H   H24       1.0  0.45402  0.83728  0.02689  1.0000
  H   H25       1.0  0.67253  0.58401  0.10775  1.0000
  H   H26       1.0  0.32746  0.41598  0.89225  1.0000
  H   H27       1.0  0.76888  0.68499  0.22169  1.0000
  H   H28       1.0  0.23111  0.31501  0.77831  1.0000
  C   C1        1.0  0.70529  0.97186  0.28927  1.0000
  C   C2        1.0  0.29472  0.02814  0.71073  1.0000
  C   C3        1.0  0.82196  0.10031  0.36716  1.0000
  C   C4        1.0  0.17805  0.89969  0.63284  1.0000
  C   C5        1.0  0.82302  0.09727  0.47316  1.0000
  C   C6        1.0  0.17697  0.90274  0.52684  1.0000
  C   C7        1.0  0.70654  0.96719  0.50159  1.0000
  C   C8        1.0  0.29346  0.03281  0.49841  1.0000
  C   C9        1.0  0.69847  0.95839  0.60960  1.0000
  C   C10       1.0  0.30152  0.04162  0.39039  1.0000
  C   C11       1.0  0.57951  0.83218  0.63295  1.0000
  C   C12       1.0  0.42049  0.16782  0.36705  1.0000
  C   C13       1.0  0.45996  0.70669  0.55025  1.0000
  C   C14       1.0  0.54004  0.29331  0.44975  1.0000
  C   C15       1.0  0.33281  0.57624  0.57180  1.0000
  C   C16       1.0  0.66721  0.42377  0.42820  1.0000
  C   C17       1.0  0.21965  0.45967  0.48783  1.0000
  C   C18       1.0  0.78036  0.54033  0.51218  1.0000
  C   C19       1.0  0.23492  0.47222  0.38325  1.0000
  C   C20       1.0  0.76508  0.52778  0.61675  1.0000
  C   C21       1.0  0.46490  0.71072  0.44209  1.0000
  C   C22       1.0  0.53510  0.28928  0.55792  1.0000
  C   C23       1.0  0.59154  0.84366  0.41718  1.0000
  C   C24       1.0  0.40845  0.15634  0.58282  1.0000
  C   C25       1.0  0.20456  0.32828  0.05370  1.0000
  C   C26       1.0  0.79543  0.67172  0.94630  1.0000
  C   C27       1.0  0.10704  0.16159  0.99758  1.0000
  C   C28       1.0  0.89296  0.83841  0.00242  1.0000
  C   C29       1.0  0.90348  0.10867  0.98221  1.0000
  C   C30       1.0  0.09652  0.89133  0.01779  1.0000
  C   C31       1.0  0.82548  0.20123  0.90528  1.0000
  C   C32       1.0  0.17452  0.79877  0.09472  1.0000
  C   C33       1.0  0.19316  0.06311  0.06483  1.0000
  C   C34       1.0  0.80684  0.93689  0.93518  1.0000
  C   C35       1.0  0.39225  0.11890  0.06967  1.0000
  C   C36       1.0  0.60774  0.88110  0.93033  1.0000
  N   N1        1.0  0.59476  0.84741  0.31379  1.0000
  N   N2        1.0  0.40524  0.15259  0.68621  1.0000
  N   N3        1.0  0.35401  0.59378  0.36145  1.0000
  N   N4        1.0  0.64599  0.40622  0.63855  1.0000
  O   O1        1.0  0.18960  0.36030  0.14684  1.0000
  O   O2        1.0  0.81040  0.63970  0.85316  1.0000
  O   O3        1.0  0.30090  0.42773  0.01033  1.0000
  O   O4        1.0  0.69910  0.57227  0.98966  1.0000
  O   O5        1.0  0.87530  0.23091  0.82353  1.0000
  O   O6        1.0  0.12470  0.76910  0.17648  1.0000
  O   O7        1.0  0.70676  0.24553  0.93164  1.0000
  O   O8        1.0  0.29324  0.75447  0.06837  1.0000
  O   O9        1.0  0.51834  0.16405  0.15311  1.0000
  O   O10       1.0  0.48166  0.83595  0.84689  1.0000
  O   O11       1.0  0.41303  0.11478  0.97158  1.0000
  O   O12       1.0  0.58697  0.88521  0.02841  1.0000
  O   O13       1.0  0.66077  0.59727  0.18340  1.0000
  O   O14       1.0  0.33922  0.40272  0.81660  1.0000
