data_image0
_chemical_formula_structural       Zn2H24C20S4N16O8
_chemical_formula_sum              "Zn2 H24 C20 S4 N16 O8"
_cell_length_a       7.68853
_cell_length_b       9.69898
_cell_length_c       11.0212
_cell_angle_alpha    84.3063
_cell_angle_beta     87.9752
_cell_angle_gamma    74.0964

_space_group_name_H-M_alt    "P 1"
_space_group_IT_number       1

loop_
  _space_group_symop_operation_xyz
  'x, y, z'

loop_
  _atom_site_type_symbol
  _atom_site_label
  _atom_site_symmetry_multiplicity
  _atom_site_fract_x
  _atom_site_fract_y
  _atom_site_fract_z
  _atom_site_occupancy
  Zn  Zn1       1.0  0.38165  0.26730  0.25545  1.0000
  Zn  Zn2       1.0  0.61835  0.73270  0.74455  1.0000
  H   H1        1.0  0.74777  0.09306  0.37941  1.0000
  H   H2        1.0  0.25223  0.90694  0.62059  1.0000
  H   H3        1.0  0.80930  0.95979  0.28582  1.0000
  H   H4        1.0  0.19070  0.04021  0.71418  1.0000
  H   H5        1.0  0.76934  0.72098  0.29749  1.0000
  H   H6        1.0  0.23066  0.27902  0.70251  1.0000
  H   H7        1.0  0.72763  0.75302  0.14194  1.0000
  H   H8        1.0  0.27237  0.24698  0.85805  1.0000
  H   H9        1.0  0.81301  0.49925  0.34529  1.0000
  H   H10       1.0  0.18699  0.50075  0.65471  1.0000
  H   H11       1.0  0.01674  0.38848  0.40831  1.0000
  H   H12       1.0  0.98326  0.61151  0.59169  1.0000
  H   H13       1.0  0.77898  0.28518  0.29115  1.0000
  H   H14       1.0  0.22102  0.71482  0.70885  1.0000
  H   H15       1.0  0.90534  0.31940  0.16228  1.0000
  H   H16       1.0  0.09466  0.68060  0.83772  1.0000
  H   H17       1.0  0.43363  0.56157  0.40172  1.0000
  H   H18       1.0  0.56637  0.43843  0.59828  1.0000
  H   H19       1.0  0.46535  0.70935  0.30627  1.0000
  H   H20       1.0  0.53465  0.29065  0.69373  1.0000
  H   H21       1.0  0.28678  0.99436  0.03390  1.0000
  H   H22       1.0  0.71322  0.00564  0.96610  1.0000
  H   H23       1.0  0.36260  0.84815  0.14538  1.0000
  H   H24       1.0  0.63740  0.15186  0.85462  1.0000
  C   C1        1.0  0.17201  0.93204  0.35827  1.0000
  C   C2        1.0  0.82799  0.06796  0.64173  1.0000
  C   C3        1.0  0.04853  0.15893  0.29452  1.0000
  C   C4        1.0  0.95147  0.84107  0.70548  1.0000
  C   C5        1.0  0.04703  0.51032  0.24421  1.0000
  C   C6        1.0  0.95298  0.48968  0.75579  1.0000
  C   C7        1.0  0.94358  0.42651  0.32209  1.0000
  C   C8        1.0  0.05642  0.57349  0.67791  1.0000
  C   C9        1.0  0.12408  0.68015  0.12536  1.0000
  C   C10       1.0  0.87592  0.31985  0.87464  1.0000
  C   C11       1.0  0.91169  0.29797  0.26219  1.0000
  C   C12       1.0  0.08831  0.70203  0.73781  1.0000
  C   C13       1.0  0.41902  0.67805  0.39732  1.0000
  C   C14       1.0  0.58098  0.32195  0.60268  1.0000
  C   C15       1.0  0.31393  0.87644  0.05176  1.0000
  C   C16       1.0  0.68606  0.12357  0.94824  1.0000
  C   C17       1.0  0.46092  0.81088  0.96185  1.0000
  C   C18       1.0  0.53908  0.18912  0.03815  1.0000
  C   C19       1.0  0.54129  0.70310  0.49476  1.0000
  C   C20       1.0  0.45871  0.29690  0.50524  1.0000
  S   S1        1.0  0.17874  0.75666  0.41156  1.0000
  S   S2        1.0  0.82126  0.24334  0.58844  1.0000
  S   S3        1.0  0.09336  0.84572  0.04193  1.0000
  S   S4        1.0  0.90664  0.15428  0.95807  1.0000
  N   N1        1.0  0.22764  0.13216  0.29226  1.0000
  N   N2        1.0  0.77236  0.86784  0.70774  1.0000
  N   N3        1.0  0.22047  0.46486  0.21246  1.0000
  N   N4        1.0  0.77953  0.53514  0.78754  1.0000
  N   N5        1.0  0.30768  0.98911  0.33078  1.0000
  N   N6        1.0  0.69232  0.01089  0.66922  1.0000
  N   N7        1.0  0.84483  0.00114  0.36075  1.0000
  N   N8        1.0  0.15517  0.99886  0.63925  1.0000
  N   N9        1.0  0.00925  0.03304  0.33669  1.0000
  N   N10       1.0  0.99075  0.96696  0.66331  1.0000
  N   N11       1.0  0.98133  0.64732  0.19088  1.0000
  N   N12       1.0  0.01867  0.35268  0.80912  1.0000
  N   N13       1.0  0.81701  0.74719  0.21199  1.0000
  N   N14       1.0  0.18299  0.25281  0.78801  1.0000
  N   N15       1.0  0.26984  0.56906  0.13533  1.0000
  N   N16       1.0  0.73016  0.43094  0.86466  1.0000
  O   O1        1.0  0.41033  0.79880  0.85423  1.0000
  O   O2        1.0  0.58967  0.20120  0.14577  1.0000
  O   O3        1.0  0.46718  0.73351  0.59928  1.0000
  O   O4        1.0  0.53282  0.26649  0.40072  1.0000
  O   O5        1.0  0.62266  0.78230  0.99447  1.0000
  O   O6        1.0  0.37734  0.21770  0.00553  1.0000
  O   O7        1.0  0.70530  0.68277  0.46889  1.0000
  O   O8        1.0  0.29470  0.31723  0.53111  1.0000
