data_image0
_chemical_formula_structural       Cu2H18C18S2N2Cl4O10
_chemical_formula_sum              "Cu2 H18 C18 S2 N2 Cl4 O10"
_cell_length_a       5.02896
_cell_length_b       7.70785
_cell_length_c       16.8356
_cell_angle_alpha    92.5087
_cell_angle_beta     96.8328
_cell_angle_gamma    102.982

_space_group_name_H-M_alt    "P 1"
_space_group_IT_number       1

loop_
  _space_group_symop_operation_xyz
  'x, y, z'

loop_
  _atom_site_type_symbol
  _atom_site_label
  _atom_site_symmetry_multiplicity
  _atom_site_fract_x
  _atom_site_fract_y
  _atom_site_fract_z
  _atom_site_occupancy
  Cu  Cu1       1.0  0.51857  0.58801  0.65155  1.0000
  Cu  Cu2       1.0  0.48143  0.41199  0.34845  1.0000
  H   H1        1.0  0.14114  0.86357  0.71601  1.0000
  H   H2        1.0  0.85886  0.13643  0.28399  1.0000
  H   H3        1.0  0.43078  0.04809  0.73312  1.0000
  H   H4        1.0  0.56922  0.95191  0.26688  1.0000
  H   H5        1.0  0.51959  0.97800  0.58741  1.0000
  H   H6        1.0  0.48040  0.02200  0.41259  1.0000
  H   H7        1.0  0.22636  0.06556  0.60001  1.0000
  H   H8        1.0  0.77364  0.93444  0.39999  1.0000
  H   H9        1.0  0.66397  0.95391  0.82688  1.0000
  H   H10       1.0  0.33603  0.04609  0.17312  1.0000
  H   H11       1.0  0.96365  0.92116  0.93390  1.0000
  H   H12       1.0  0.03635  0.07884  0.06610  1.0000
  H   H13       1.0  0.36658  0.48145  0.94127  1.0000
  H   H14       1.0  0.63343  0.51855  0.05873  1.0000
  H   H15       1.0  0.37759  0.34297  0.53442  1.0000
  H   H16       1.0  0.62240  0.65703  0.46558  1.0000
  H   H17       1.0  0.66257  0.32494  0.57897  1.0000
  H   H18       1.0  0.33743  0.67506  0.42103  1.0000
  C   C1        1.0  0.34619  0.91832  0.69889  1.0000
  C   C2        1.0  0.65381  0.08168  0.30111  1.0000
  C   C3        1.0  0.32002  0.95155  0.61032  1.0000
  C   C4        1.0  0.67998  0.04845  0.38968  1.0000
  C   C5        1.0  0.67471  0.83249  0.79177  1.0000
  C   C6        1.0  0.32530  0.16751  0.20823  1.0000
  C   C7        1.0  0.90330  0.57394  0.79103  1.0000
  C   C8        1.0  0.09671  0.42606  0.20897  1.0000
  C   C9        1.0  0.85859  0.73310  0.82936  1.0000
  C   C10       1.0  0.14142  0.26690  0.17064  1.0000
  C   C11       1.0  0.17956  0.71011  0.94588  1.0000
  C   C12       1.0  0.82044  0.28990  0.05412  1.0000
  C   C13       1.0  0.99942  0.79914  0.90651  1.0000
  C   C14       1.0  0.00058  0.20086  0.09349  1.0000
  C   C15       1.0  0.09085  0.48716  0.83522  1.0000
  C   C16       1.0  0.90916  0.51284  0.16478  1.0000
  C   C17       1.0  0.22598  0.55271  0.91042  1.0000
  C   C18       1.0  0.77402  0.44729  0.08958  1.0000
  S   S1        1.0  0.10379  0.76884  0.54832  1.0000
  S   S2        1.0  0.89620  0.23116  0.45168  1.0000
  N   N1        1.0  0.52381  0.79593  0.72211  1.0000
  N   N2        1.0  0.47619  0.20407  0.27789  1.0000
  Cl  Cl1       1.0  0.14510  0.29396  0.79079  1.0000
  Cl  Cl2       1.0  0.85490  0.70604  0.20921  1.0000
  Cl  Cl3       1.0  0.35517  0.78937  0.04040  1.0000
  Cl  Cl4       1.0  0.64483  0.21063  0.95960  1.0000
  O   O1        1.0  0.81604  0.75748  0.56185  1.0000
  O   O2        1.0  0.18396  0.24251  0.43816  1.0000
  O   O3        1.0  0.14447  0.80240  0.46507  1.0000
  O   O4        1.0  0.85552  0.19760  0.53493  1.0000
  O   O5        1.0  0.19449  0.60674  0.57513  1.0000
  O   O6        1.0  0.80551  0.39326  0.42487  1.0000
  O   O7        1.0  0.49106  0.36262  0.58757  1.0000
  O   O8        1.0  0.50893  0.63738  0.41243  1.0000
  O   O9        1.0  0.78980  0.50676  0.72011  1.0000
  O   O10       1.0  0.21020  0.49324  0.27988  1.0000
