data_image0
_chemical_formula_structural       Zn2H32C52S2N4O8
_chemical_formula_sum              "Zn2 H32 C52 S2 N4 O8"
_cell_length_a       8.21141
_cell_length_b       10.294
_cell_length_c       14.2516
_cell_angle_alpha    70.8564
_cell_angle_beta     89.2422
_cell_angle_gamma    74.13

_space_group_name_H-M_alt    "P 1"
_space_group_IT_number       1

loop_
  _space_group_symop_operation_xyz
  'x, y, z'

loop_
  _atom_site_type_symbol
  _atom_site_label
  _atom_site_symmetry_multiplicity
  _atom_site_fract_x
  _atom_site_fract_y
  _atom_site_fract_z
  _atom_site_occupancy
  Zn  Zn1       1.0  0.16325  0.56343  0.23073  1.0000
  Zn  Zn2       1.0  0.83676  0.43657  0.76927  1.0000
  H   H1        1.0  0.31909  0.23906  0.29044  1.0000
  H   H2        1.0  0.68090  0.76095  0.70956  1.0000
  H   H3        1.0  0.32548  0.02490  0.43726  1.0000
  H   H4        1.0  0.67451  0.97510  0.56273  1.0000
  H   H5        1.0  0.95651  0.30625  0.55733  1.0000
  H   H6        1.0  0.04348  0.69375  0.44266  1.0000
  H   H7        1.0  0.96092  0.50480  0.40448  1.0000
  H   H8        1.0  0.03909  0.49520  0.59553  1.0000
  H   H9        1.0  0.37529  0.87596  0.58935  1.0000
  H   H10       1.0  0.62470  0.12404  0.41066  1.0000
  H   H11       1.0  0.35710  0.67578  0.73515  1.0000
  H   H12       1.0  0.64289  0.32421  0.26485  1.0000
  H   H13       1.0  0.89228  0.13809  0.63801  1.0000
  H   H14       1.0  0.10772  0.86191  0.36198  1.0000
  H   H15       1.0  0.77369  0.64460  0.00344  1.0000
  H   H16       1.0  0.22632  0.35540  0.99657  1.0000
  H   H17       1.0  0.50060  0.82963  0.98675  1.0000
  H   H18       1.0  0.49941  0.17037  0.01325  1.0000
  H   H19       1.0  0.66424  0.12613  0.73822  1.0000
  H   H20       1.0  0.33576  0.87386  0.26178  1.0000
  H   H21       1.0  0.25211  0.94123  0.90884  1.0000
  H   H22       1.0  0.74789  0.05877  0.09116  1.0000
  H   H23       1.0  0.97268  0.12862  0.87364  1.0000
  H   H24       1.0  0.02732  0.87138  0.12638  1.0000
  H   H25       1.0  0.19923  0.45536  0.75652  1.0000
  H   H26       1.0  0.80077  0.54464  0.24348  1.0000
  H   H27       1.0  0.48618  0.28458  0.78820  1.0000
  H   H28       1.0  0.51383  0.71542  0.21180  1.0000
  H   H29       1.0  0.37043  0.64305  0.49371  1.0000
  H   H30       1.0  0.62959  0.35697  0.50627  1.0000
  H   H31       1.0  0.45702  0.65481  0.92673  1.0000
  H   H32       1.0  0.54298  0.34519  0.07328  1.0000
  C   C1        1.0  0.24037  0.24817  0.35148  1.0000
  C   C2        1.0  0.75962  0.75183  0.64852  1.0000
  C   C3        1.0  0.24435  0.12944  0.43483  1.0000
  C   C4        1.0  0.75563  0.87056  0.56517  1.0000
  C   C5        1.0  0.14127  0.14433  0.51254  1.0000
  C   C6        1.0  0.85872  0.85567  0.48745  1.0000
  C   C7        1.0  0.03834  0.28405  0.50025  1.0000
  C   C8        1.0  0.96165  0.71595  0.49975  1.0000
  C   C9        1.0  0.04018  0.39641  0.41465  1.0000
  C   C10       1.0  0.95982  0.60359  0.58535  1.0000
  C   C11       1.0  0.13484  0.02292  0.60171  1.0000
  C   C12       1.0  0.86515  0.97708  0.39828  1.0000
  C   C13       1.0  0.26415  0.89060  0.63161  1.0000
  C   C14       1.0  0.73584  0.10940  0.36839  1.0000
  C   C15       1.0  0.25538  0.77606  0.71520  1.0000
  C   C16       1.0  0.74462  0.22394  0.28480  1.0000
  C   C17       1.0  0.11242  0.79279  0.76951  1.0000
  C   C18       1.0  0.88759  0.20721  0.23049  1.0000
  C   C19       1.0  0.98106  0.92410  0.74136  1.0000
  C   C20       1.0  0.01894  0.07590  0.25865  1.0000
  C   C21       1.0  0.99432  0.03791  0.65835  1.0000
  C   C22       1.0  0.00567  0.96209  0.34165  1.0000
  C   C23       1.0  0.84214  0.91725  0.80454  1.0000
  C   C24       1.0  0.15787  0.08275  0.19547  1.0000
  C   C25       1.0  0.87216  0.78065  0.87943  1.0000
  C   C26       1.0  0.12784  0.21935  0.12058  1.0000
  C   C27       1.0  0.75077  0.74948  0.94614  1.0000
  C   C28       1.0  0.24923  0.25052  0.05387  1.0000
  C   C29       1.0  0.59691  0.85374  0.93571  1.0000
  C   C30       1.0  0.40309  0.14626  0.06430  1.0000
  C   C31       1.0  0.56249  0.98978  0.86044  1.0000
  C   C32       1.0  0.43751  0.01022  0.13957  1.0000
  C   C33       1.0  0.68760  0.02152  0.79631  1.0000
  C   C34       1.0  0.31240  0.97847  0.20369  1.0000
  C   C35       1.0  0.39497  0.09574  0.84680  1.0000
  C   C36       1.0  0.60503  0.90426  0.15320  1.0000
  C   C37       1.0  0.24680  0.05381  0.87355  1.0000
  C   C38       1.0  0.75320  0.94618  0.12646  1.0000
  C   C39       1.0  0.09050  0.15697  0.85471  1.0000
  C   C40       1.0  0.90951  0.84302  0.14530  1.0000
  C   C41       1.0  0.21600  0.34029  0.78875  1.0000
  C   C42       1.0  0.78400  0.65971  0.21125  1.0000
  C   C43       1.0  0.37630  0.24378  0.80509  1.0000
  C   C44       1.0  0.62370  0.75621  0.19491  1.0000
  C   C45       1.0  0.38742  0.55360  0.36998  1.0000
  C   C46       1.0  0.61259  0.44641  0.63001  1.0000
  C   C47       1.0  0.43915  0.55460  0.46913  1.0000
  C   C48       1.0  0.56086  0.44543  0.53086  1.0000
  C   C49       1.0  0.33473  0.60284  0.06774  1.0000
  C   C50       1.0  0.66528  0.39716  0.93226  1.0000
  C   C51       1.0  0.44984  0.56648  0.99302  1.0000
  C   C52       1.0  0.55016  0.43352  0.00698  1.0000
  S   S1        1.0  0.06673  0.66329  0.87244  1.0000
  S   S2        1.0  0.93327  0.33670  0.12756  1.0000
  N   N1        1.0  0.13874  0.38046  0.34041  1.0000
  N   N2        1.0  0.86126  0.61954  0.65959  1.0000
  N   N3        1.0  0.07396  0.29847  0.81168  1.0000
  N   N4        1.0  0.92604  0.70153  0.18833  1.0000
  O   O1        1.0  0.47758  0.46827  0.33185  1.0000
  O   O2        1.0  0.52241  0.53174  0.66814  1.0000
  O   O3        1.0  0.23989  0.64307  0.32943  1.0000
  O   O4        1.0  0.76011  0.35694  0.67056  1.0000
  O   O5        1.0  0.29124  0.72917  0.06914  1.0000
  O   O6        1.0  0.70877  0.27083  0.93086  1.0000
  O   O7        1.0  0.28824  0.49783  0.12994  1.0000
  O   O8        1.0  0.71177  0.50217  0.87006  1.0000
