data_image0
_chemical_formula_structural       Mn3H8C12N14O4
_chemical_formula_sum              "Mn3 H8 C12 N14 O4"
_cell_length_a       6.70069
_cell_length_b       7.65241
_cell_length_c       9.63178
_cell_angle_alpha    104.266
_cell_angle_beta     97.2753
_cell_angle_gamma    97.4244

_space_group_name_H-M_alt    "P 1"
_space_group_IT_number       1

loop_
  _space_group_symop_operation_xyz
  'x, y, z'

loop_
  _atom_site_type_symbol
  _atom_site_label
  _atom_site_symmetry_multiplicity
  _atom_site_fract_x
  _atom_site_fract_y
  _atom_site_fract_z
  _atom_site_occupancy
  Mn  Mn1       1.0  0.00000  0.00000  0.50000  1.0000
  Mn  Mn2       1.0  0.63803  0.51687  0.36694  1.0000
  Mn  Mn3       1.0  0.36197  0.48314  0.63306  1.0000
  H   H1        1.0  0.58127  0.89451  0.66526  1.0000
  H   H2        1.0  0.41874  0.10549  0.33474  1.0000
  H   H3        1.0  0.55671  0.56819  0.94875  1.0000
  H   H4        1.0  0.44330  0.43181  0.05124  1.0000
  H   H5        1.0  0.85629  0.12907  0.11339  1.0000
  H   H6        1.0  0.14372  0.87092  0.88661  1.0000
  H   H7        1.0  0.77586  0.16008  0.85864  1.0000
  H   H8        1.0  0.22415  0.83991  0.14136  1.0000
  C   C1        1.0  0.74877  0.81591  0.20000  1.0000
  C   C2        1.0  0.25123  0.18409  0.80000  1.0000
  C   C3        1.0  0.61905  0.88360  0.77554  1.0000
  C   C4        1.0  0.38095  0.11639  0.22445  1.0000
  C   C5        1.0  0.71150  0.84548  0.05191  1.0000
  C   C6        1.0  0.28850  0.15451  0.94809  1.0000
  C   C7        1.0  0.60612  0.70272  0.93503  1.0000
  C   C8        1.0  0.39388  0.29728  0.06497  1.0000
  C   C9        1.0  0.77495  0.01413  0.02503  1.0000
  C   C10       1.0  0.22504  0.98586  0.97497  1.0000
  C   C11       1.0  0.72859  0.03213  0.88490  1.0000
  C   C12       1.0  0.27142  0.96787  0.11509  1.0000
  N   N1        1.0  0.87387  0.73988  0.53221  1.0000
  N   N2        1.0  0.12613  0.26012  0.46780  1.0000
  N   N3        1.0  0.08665  0.61505  0.68563  1.0000
  N   N4        1.0  0.91335  0.38496  0.31437  1.0000
  N   N5        1.0  0.69076  0.24611  0.55028  1.0000
  N   N6        1.0  0.30924  0.75390  0.44973  1.0000
  N   N7        1.0  0.60986  0.37516  0.53977  1.0000
  N   N8        1.0  0.39014  0.62483  0.46024  1.0000
  N   N9        1.0  0.76635  0.11802  0.55855  1.0000
  N   N10       1.0  0.23364  0.88200  0.44146  1.0000
  N   N11       1.0  0.55843  0.72033  0.79992  1.0000
  N   N12       1.0  0.44157  0.27967  0.20008  1.0000
  N   N13       1.0  0.98360  0.67831  0.60963  1.0000
  N   N14       1.0  0.01640  0.32169  0.39037  1.0000
  O   O1        1.0  0.65524  0.66972  0.21899  1.0000
  O   O2        1.0  0.34476  0.33028  0.78101  1.0000
  O   O3        1.0  0.87151  0.94215  0.29619  1.0000
  O   O4        1.0  0.12849  0.05785  0.70381  1.0000
