data_image0
_chemical_formula_structural       Na4H72C28S8N4O12
_chemical_formula_sum              "Na4 H72 C28 S8 N4 O12"
_cell_length_a       5.66126
_cell_length_b       14.623
_cell_length_c       15.71
_cell_angle_alpha    102.409
_cell_angle_beta     89.9981
_cell_angle_gamma    90

_space_group_name_H-M_alt    "P 1"
_space_group_IT_number       1

loop_
  _space_group_symop_operation_xyz
  'x, y, z'

loop_
  _atom_site_type_symbol
  _atom_site_label
  _atom_site_symmetry_multiplicity
  _atom_site_fract_x
  _atom_site_fract_y
  _atom_site_fract_z
  _atom_site_occupancy
  Na  Na1       1.0  0.26783  0.45749  0.44801  1.0000
  Na  Na2       1.0  0.76781  0.04250  0.55199  1.0000
  Na  Na3       1.0  0.73220  0.54250  0.55199  1.0000
  Na  Na4       1.0  0.23221  0.95749  0.44802  1.0000
  H   H1        1.0  0.12304  0.53392  0.64284  1.0000
  H   H2        1.0  0.62306  0.96606  0.35716  1.0000
  H   H3        1.0  0.87700  0.46607  0.35715  1.0000
  H   H4        1.0  0.37698  0.03393  0.64284  1.0000
  H   H5        1.0  0.54819  0.34241  0.54056  1.0000
  H   H6        1.0  0.04818  0.15758  0.45944  1.0000
  H   H7        1.0  0.45184  0.65758  0.45944  1.0000
  H   H8        1.0  0.95182  0.84241  0.54056  1.0000
  H   H9        1.0  0.71402  0.34985  0.46290  1.0000
  H   H10       1.0  0.21401  0.15014  0.53711  1.0000
  H   H11       1.0  0.28600  0.65014  0.53710  1.0000
  H   H12       1.0  0.78600  0.84985  0.46289  1.0000
  H   H13       1.0  0.21458  0.40865  0.27415  1.0000
  H   H14       1.0  0.71455  0.09133  0.72584  1.0000
  H   H15       1.0  0.78544  0.59133  0.72585  1.0000
  H   H16       1.0  0.28546  0.90866  0.27416  1.0000
  H   H17       1.0  0.49428  0.41107  0.27487  1.0000
  H   H18       1.0  0.99426  0.08893  0.72513  1.0000
  H   H19       1.0  0.50573  0.58892  0.72512  1.0000
  H   H20       1.0  0.00575  0.91107  0.27487  1.0000
  H   H21       1.0  0.42999  0.40133  0.67536  1.0000
  H   H22       1.0  0.93001  0.09865  0.32463  1.0000
  H   H23       1.0  0.57006  0.59865  0.32462  1.0000
  H   H24       1.0  0.06997  0.90134  0.67536  1.0000
  H   H25       1.0  0.22962  0.45784  0.75561  1.0000
  H   H26       1.0  0.72965  0.04214  0.24438  1.0000
  H   H27       1.0  0.77044  0.54215  0.24438  1.0000
  H   H28       1.0  0.27031  0.95785  0.75561  1.0000
  H   H29       1.0  0.08182  0.33578  0.57926  1.0000
  H   H30       1.0  0.58184  0.16420  0.42075  1.0000
  H   H31       1.0  0.91820  0.66421  0.42074  1.0000
  H   H32       1.0  0.41818  0.83579  0.57927  1.0000
  H   H33       1.0  0.88710  0.39961  0.65962  1.0000
  H   H34       1.0  0.38714  0.10037  0.34038  1.0000
  H   H35       1.0  0.11292  0.60038  0.34038  1.0000
  H   H36       1.0  0.61287  0.89962  0.65964  1.0000
  H   H37       1.0  0.03851  0.25700  0.82757  1.0000
  H   H38       1.0  0.53851  0.24299  0.17245  1.0000
  H   H39       1.0  0.96153  0.74301  0.17244  1.0000
  H   H40       1.0  0.46139  0.75700  0.82757  1.0000
  H   H41       1.0  0.94676  0.36953  0.81461  1.0000
  H   H42       1.0  0.44676  0.13045  0.18540  1.0000
  H   H43       1.0  0.05327  0.63046  0.18538  1.0000
  H   H44       1.0  0.55316  0.86954  0.81460  1.0000
  H   H45       1.0  0.42818  0.33633  0.89144  1.0000
  H   H46       1.0  0.92818  0.16365  0.10856  1.0000
  H   H47       1.0  0.57186  0.66368  0.10855  1.0000
  H   H48       1.0  0.07177  0.83635  0.89146  1.0000
  H   H49       1.0  0.28365  0.44507  0.89917  1.0000
  H   H50       1.0  0.78358  0.05492  0.10081  1.0000
  H   H51       1.0  0.71639  0.55493  0.10081  1.0000
  H   H52       1.0  0.21628  0.94509  0.89918  1.0000
  H   H53       1.0  0.12687  0.28599  0.98581  1.0000
  H   H54       1.0  0.62685  0.21404  0.01421  1.0000
  H   H55       1.0  0.87317  0.71402  0.01418  1.0000
  H   H56       1.0  0.37308  0.78600  0.98581  1.0000
  H   H57       1.0  0.96776  0.39100  0.99341  1.0000
  H   H58       1.0  0.46775  0.10903  0.00659  1.0000
  H   H59       1.0  0.03229  0.60901  0.00657  1.0000
  H   H60       1.0  0.53223  0.89101  0.99340  1.0000
  H   H61       1.0  0.22735  0.39617  0.12498  1.0000
  H   H62       1.0  0.72739  0.10389  0.87503  1.0000
  H   H63       1.0  0.77262  0.60384  0.87501  1.0000
  H   H64       1.0  0.27268  0.89619  0.12499  1.0000
  H   H65       1.0  0.31106  0.48381  0.06815  1.0000
  H   H66       1.0  0.81105  0.01624  0.93184  1.0000
  H   H67       1.0  0.68895  0.51621  0.93185  1.0000
  H   H68       1.0  0.18893  0.98382  0.06816  1.0000
  H   H69       1.0  0.48127  0.38011  0.05707  1.0000
  H   H70       1.0  0.98128  0.11993  0.94294  1.0000
  H   H71       1.0  0.51875  0.61990  0.94294  1.0000
  H   H72       1.0  0.01874  0.88012  0.05710  1.0000
  C   C1        1.0  0.35689  0.23464  0.70567  1.0000
  C   C2        1.0  0.85692  0.26534  0.29433  1.0000
  C   C3        1.0  0.64313  0.76535  0.29432  1.0000
  C   C4        1.0  0.14304  0.73465  0.70567  1.0000
  C   C5        1.0  0.25246  0.39667  0.70183  1.0000
  C   C6        1.0  0.75247  0.10331  0.29817  1.0000
  C   C7        1.0  0.74757  0.60332  0.29816  1.0000
  C   C8        1.0  0.24749  0.89668  0.70183  1.0000
  C   C9        1.0  0.06620  0.39837  0.63195  1.0000
  C   C10       1.0  0.56623  0.10161  0.36806  1.0000
  C   C11       1.0  0.93380  0.60162  0.36806  1.0000
  C   C12       1.0  0.43377  0.89838  0.63195  1.0000
  C   C13       1.0  0.10162  0.32587  0.82062  1.0000
  C   C14       1.0  0.60161  0.17412  0.17939  1.0000
  C   C15       1.0  0.89841  0.67413  0.17938  1.0000
  C   C16       1.0  0.39829  0.82588  0.82062  1.0000
  C   C17       1.0  0.25373  0.37059  0.89912  1.0000
  C   C18       1.0  0.75371  0.12941  0.10088  1.0000
  C   C19       1.0  0.74629  0.62941  0.10086  1.0000
  C   C20       1.0  0.24620  0.87061  0.89913  1.0000
  C   C21       1.0  0.14734  0.36100  0.98604  1.0000
  C   C22       1.0  0.64733  0.13903  0.01397  1.0000
  C   C23       1.0  0.85270  0.63901  0.01395  1.0000
  C   C24       1.0  0.35262  0.86101  0.98605  1.0000
  C   C25       1.0  0.29959  0.40776  0.06335  1.0000
  C   C26       1.0  0.79960  0.09229  0.93665  1.0000
  C   C27       1.0  0.70043  0.59226  0.93664  1.0000
  C   C28       1.0  0.20040  0.90777  0.06337  1.0000
  S   S1        1.0  0.35573  0.14479  0.76129  1.0000
  S   S2        1.0  0.85577  0.35519  0.23870  1.0000
  S   S3        1.0  0.64429  0.85520  0.23871  1.0000
  S   S4        1.0  0.14420  0.64479  0.76129  1.0000
  S   S5        1.0  0.51513  0.22450  0.61050  1.0000
  S   S6        1.0  0.01517  0.27548  0.38948  1.0000
  S   S7        1.0  0.48486  0.77548  0.38949  1.0000
  S   S8        1.0  0.98483  0.72451  0.61050  1.0000
  N   N1        1.0  0.23520  0.31351  0.73882  1.0000
  N   N2        1.0  0.73522  0.18647  0.26118  1.0000
  N   N3        1.0  0.76482  0.68648  0.26117  1.0000
  N   N4        1.0  0.26471  0.81352  0.73883  1.0000
  O   O1        1.0  0.10284  0.47828  0.59362  1.0000
  O   O2        1.0  0.60288  0.02170  0.40638  1.0000
  O   O3        1.0  0.89717  0.52172  0.40637  1.0000
  O   O4        1.0  0.39715  0.97828  0.59363  1.0000
  O   O5        1.0  0.58786  0.38433  0.50056  1.0000
  O   O6        1.0  0.08784  0.11566  0.49944  1.0000
  O   O7        1.0  0.41217  0.61566  0.49943  1.0000
  O   O8        1.0  0.91215  0.88433  0.50056  1.0000
  O   O9        1.0  0.35273  0.44562  0.30077  1.0000
  O   O10       1.0  0.85272  0.05437  0.69923  1.0000
  O   O11       1.0  0.64728  0.55437  0.69922  1.0000
  O   O12       1.0  0.14730  0.94562  0.30078  1.0000
