data_image0
_chemical_formula_structural       Tb2H38C48S2N8O16
_chemical_formula_sum              "Tb2 H38 C48 S2 N8 O16"
_cell_length_a       8.82462
_cell_length_b       8.97052
_cell_length_c       14.5519
_cell_angle_alpha    95.6896
_cell_angle_beta     90.8163
_cell_angle_gamma    98.8605

_space_group_name_H-M_alt    "P 1"
_space_group_IT_number       1

loop_
  _space_group_symop_operation_xyz
  'x, y, z'

loop_
  _atom_site_type_symbol
  _atom_site_label
  _atom_site_symmetry_multiplicity
  _atom_site_fract_x
  _atom_site_fract_y
  _atom_site_fract_z
  _atom_site_occupancy
  Tb  Tb1       1.0  0.55243  0.06091  0.15543  1.0000
  Tb  Tb2       1.0  0.44757  0.93909  0.84457  1.0000
  H   H1        1.0  0.10546  0.94627  0.60310  1.0000
  H   H2        1.0  0.89454  0.05372  0.39690  1.0000
  H   H3        1.0  0.40840  0.33700  0.28304  1.0000
  H   H4        1.0  0.59160  0.66300  0.71697  1.0000
  H   H5        1.0  0.25488  0.39167  0.42312  1.0000
  H   H6        1.0  0.74512  0.60833  0.57688  1.0000
  H   H7        1.0  0.18076  0.18580  0.52526  1.0000
  H   H8        1.0  0.81924  0.81420  0.47474  1.0000
  H   H9        1.0  0.49614  0.53308  0.42778  1.0000
  H   H10       1.0  0.50386  0.46692  0.57222  1.0000
  H   H11       1.0  0.66175  0.52360  0.28955  1.0000
  H   H12       1.0  0.33825  0.47640  0.71045  1.0000
  H   H13       1.0  0.68876  0.74128  0.19284  1.0000
  H   H14       1.0  0.31123  0.25872  0.80716  1.0000
  H   H15       1.0  0.10145  0.43998  0.58099  1.0000
  H   H16       1.0  0.89855  0.56001  0.41901  1.0000
  H   H17       1.0  0.92294  0.28123  0.67694  1.0000
  H   H18       1.0  0.07706  0.71877  0.32306  1.0000
  H   H19       1.0  0.77918  0.40760  0.80049  1.0000
  H   H20       1.0  0.22082  0.59240  0.19951  1.0000
  H   H21       1.0  0.82750  0.69031  0.83140  1.0000
  H   H22       1.0  0.17250  0.30969  0.16860  1.0000
  H   H23       1.0  0.91461  0.45099  0.04287  1.0000
  H   H24       1.0  0.08539  0.54901  0.95714  1.0000
  H   H25       1.0  0.86373  0.54403  0.14908  1.0000
  H   H26       1.0  0.13627  0.45597  0.85092  1.0000
  H   H27       1.0  0.60561  0.56247  0.07289  1.0000
  H   H28       1.0  0.39439  0.43753  0.92711  1.0000
  H   H29       1.0  0.67409  0.49367  0.96627  1.0000
  H   H30       1.0  0.32591  0.50633  0.03373  1.0000
  H   H31       1.0  0.83570  0.78093  0.08364  1.0000
  H   H32       1.0  0.16431  0.21907  0.91636  1.0000
  H   H33       1.0  0.87695  0.71907  0.96893  1.0000
  H   H34       1.0  0.12306  0.28093  0.03107  1.0000
  H   H35       1.0  0.29097  0.84871  0.06435  1.0000
  H   H36       1.0  0.70903  0.15129  0.93565  1.0000
  H   H37       1.0  0.21446  0.94977  0.14046  1.0000
  H   H38       1.0  0.78554  0.05023  0.85954  1.0000
  C   C1        1.0  0.37711  0.25121  0.33032  1.0000
  C   C2        1.0  0.62289  0.74879  0.66968  1.0000
  C   C3        1.0  0.29023  0.28082  0.40835  1.0000
  C   C4        1.0  0.70977  0.71918  0.59166  1.0000
  C   C5        1.0  0.24981  0.16715  0.46484  1.0000
  C   C6        1.0  0.75018  0.83285  0.53516  1.0000
  C   C7        1.0  0.30033  0.02642  0.44435  1.0000
  C   C8        1.0  0.69967  0.97358  0.55565  1.0000
  C   C9        1.0  0.26721  0.89908  0.49595  1.0000
  C   C10       1.0  0.73279  0.10092  0.50405  1.0000
  C   C11       1.0  0.32871  0.76436  0.47694  1.0000
  C   C12       1.0  0.67128  0.23564  0.52306  1.0000
  C   C13       1.0  0.43107  0.74880  0.40251  1.0000
  C   C14       1.0  0.56893  0.25120  0.59749  1.0000
  C   C15       1.0  0.50841  0.62402  0.38296  1.0000
  C   C16       1.0  0.49158  0.37598  0.61704  1.0000
  C   C17       1.0  0.60185  0.61939  0.30765  1.0000
  C   C18       1.0  0.39815  0.38062  0.69235  1.0000
  C   C19       1.0  0.61581  0.74009  0.25247  1.0000
  C   C20       1.0  0.38419  0.25991  0.74753  1.0000
  C   C21       1.0  0.45603  0.86856  0.34453  1.0000
  C   C22       1.0  0.54396  0.13144  0.65547  1.0000
  C   C23       1.0  0.39185  0.00728  0.36550  1.0000
  C   C24       1.0  0.60815  0.99272  0.63450  1.0000
  C   C25       1.0  0.17556  0.72876  0.58961  1.0000
  C   C26       1.0  0.82444  0.27124  0.41039  1.0000
  C   C27       1.0  0.07268  0.65186  0.65427  1.0000
  C   C28       1.0  0.92732  0.34814  0.34573  1.0000
  C   C29       1.0  0.04261  0.49244  0.63785  1.0000
  C   C30       1.0  0.95739  0.50756  0.36216  1.0000
  C   C31       1.0  0.94085  0.40455  0.69048  1.0000
  C   C32       1.0  0.05915  0.59545  0.30953  1.0000
  C   C33       1.0  0.86155  0.47539  0.76009  1.0000
  C   C34       1.0  0.13845  0.52461  0.23991  1.0000
  C   C35       1.0  0.88996  0.63306  0.77834  1.0000
  C   C36       1.0  0.11004  0.36694  0.22166  1.0000
  C   C37       1.0  0.99620  0.72159  0.72788  1.0000
  C   C38       1.0  0.00380  0.27841  0.27212  1.0000
  C   C39       1.0  0.73118  0.32637  0.11125  1.0000
  C   C40       1.0  0.26882  0.67363  0.88875  1.0000
  C   C41       1.0  0.81780  0.47413  0.08570  1.0000
  C   C42       1.0  0.18220  0.52587  0.91430  1.0000
  C   C43       1.0  0.71052  0.55777  0.03334  1.0000
  C   C44       1.0  0.28948  0.44223  0.96666  1.0000
  C   C45       1.0  0.78474  0.71975  0.01865  1.0000
  C   C46       1.0  0.21526  0.28025  0.98134  1.0000
  C   C47       1.0  0.66250  0.80392  0.98467  1.0000
  C   C48       1.0  0.33751  0.19608  0.01533  1.0000
  S   S1        1.0  0.03293  0.92167  0.76598  1.0000
  S   S2        1.0  0.96707  0.07833  0.23403  1.0000
  N   N1        1.0  0.42588  0.11886  0.30888  1.0000
  N   N2        1.0  0.57412  0.88114  0.69112  1.0000
  N   N3        1.0  0.54510  0.86048  0.26959  1.0000
  N   N4        1.0  0.45490  0.13952  0.73041  1.0000
  N   N5        1.0  0.17181  0.87421  0.56800  1.0000
  N   N6        1.0  0.82819  0.12579  0.43200  1.0000
  N   N7        1.0  0.27156  0.65995  0.53548  1.0000
  N   N8        1.0  0.72844  0.34005  0.46452  1.0000
  O   O1        1.0  0.19953  0.95335  0.78747  1.0000
  O   O2        1.0  0.80047  0.04665  0.21253  1.0000
  O   O3        1.0  0.99301  0.00473  0.68876  1.0000
  O   O4        1.0  0.00699  0.99526  0.31124  1.0000
  O   O5        1.0  0.94105  0.94601  0.84698  1.0000
  O   O6        1.0  0.05895  0.05399  0.15302  1.0000
  O   O7        1.0  0.66923  0.32051  0.18977  1.0000
  O   O8        1.0  0.33077  0.67949  0.81023  1.0000
  O   O9        1.0  0.71488  0.20789  0.05267  1.0000
  O   O10       1.0  0.28512  0.79211  0.94732  1.0000
  O   O11       1.0  0.62268  0.78688  0.89971  1.0000
  O   O12       1.0  0.37732  0.21312  0.10029  1.0000
  O   O13       1.0  0.59723  0.88392  0.04492  1.0000
  O   O14       1.0  0.40277  0.11608  0.95508  1.0000
  O   O15       1.0  0.30514  0.89838  0.12895  1.0000
  O   O16       1.0  0.69486  0.10163  0.87104  1.0000
