data_image0
_chemical_formula_structural       NiH20C26N2O10
_chemical_formula_sum              "Ni1 H20 C26 N2 O10"
_cell_length_a       6.53338
_cell_length_b       8.57376
_cell_length_c       11.241
_cell_angle_alpha    92.4779
_cell_angle_beta     100.909
_cell_angle_gamma    81.6544

_space_group_name_H-M_alt    "P 1"
_space_group_IT_number       1

loop_
  _space_group_symop_operation_xyz
  'x, y, z'

loop_
  _atom_site_type_symbol
  _atom_site_label
  _atom_site_symmetry_multiplicity
  _atom_site_fract_x
  _atom_site_fract_y
  _atom_site_fract_z
  _atom_site_occupancy
  Ni  Ni1       1.0  1.00000  0.50000  0.00000  1.0000
  H   H1        1.0  0.31243  0.55961  0.14031  1.0000
  H   H2        1.0  0.68757  0.44041  0.85969  1.0000
  H   H3        1.0  0.31254  0.61392  0.99901  1.0000
  H   H4        1.0  0.68746  0.38606  0.00098  1.0000
  H   H5        1.0  0.86678  0.59760  0.69419  1.0000
  H   H6        1.0  0.13321  0.40241  0.30580  1.0000
  H   H7        1.0  0.80106  0.45914  0.40309  1.0000
  H   H8        1.0  0.19894  0.54086  0.59689  1.0000
  H   H9        1.0  0.68424  0.10045  0.62629  1.0000
  H   H10       1.0  0.31578  0.89958  0.37371  1.0000
  H   H11       1.0  0.73263  0.90153  0.46438  1.0000
  H   H12       1.0  0.26738  0.09847  0.53563  1.0000
  H   H13       1.0  0.58607  0.80149  0.28277  1.0000
  H   H14       1.0  0.41393  0.19851  0.71723  1.0000
  H   H15       1.0  0.67695  0.58745  0.14278  1.0000
  H   H16       1.0  0.32306  0.41256  0.85722  1.0000
  H   H17       1.0  0.12723  0.81931  0.03694  1.0000
  H   H18       1.0  0.87275  0.18069  0.96307  1.0000
  H   H19       1.0  0.05948  0.04294  0.17483  1.0000
  H   H20       1.0  0.94050  0.95706  0.82517  1.0000
  C   C1        1.0  0.83310  0.28481  0.20159  1.0000
  C   C2        1.0  0.16688  0.71515  0.79839  1.0000
  C   C3        1.0  0.79978  0.22759  0.32040  1.0000
  C   C4        1.0  0.20020  0.77242  0.67960  1.0000
  C   C5        1.0  0.78090  0.33729  0.41445  1.0000
  C   C6        1.0  0.21910  0.66272  0.58555  1.0000
  C   C7        1.0  0.73661  0.29317  0.52423  1.0000
  C   C8        1.0  0.26339  0.70684  0.47577  1.0000
  C   C9        1.0  0.71297  0.13594  0.53980  1.0000
  C   C10       1.0  0.28704  0.86407  0.46019  1.0000
  C   C11       1.0  0.73801  0.02516  0.44800  1.0000
  C   C12       1.0  0.26201  0.97485  0.55201  1.0000
  C   C13       1.0  0.78110  0.06807  0.33685  1.0000
  C   C14       1.0  0.21889  0.93193  0.66315  1.0000
  C   C15       1.0  0.81758  0.94394  0.24510  1.0000
  C   C16       1.0  0.18240  0.05607  0.75490  1.0000
  C   C17       1.0  0.70986  0.81220  0.23226  1.0000
  C   C18       1.0  0.29014  0.18781  0.76775  1.0000
  C   C19       1.0  0.75904  0.69005  0.15314  1.0000
  C   C20       1.0  0.24097  0.30996  0.84688  1.0000
  C   C21       1.0  0.00883  0.81965  0.09349  1.0000
  C   C22       1.0  0.99116  0.18035  0.90653  1.0000
  C   C23       1.0  0.96743  0.94594  0.17076  1.0000
  C   C24       1.0  0.03256  0.05406  0.82925  1.0000
  C   C25       1.0  0.73070  0.40768  0.62760  1.0000
  C   C26       1.0  0.26932  0.59233  0.37240  1.0000
  N   N1        1.0  0.91015  0.69053  0.08622  1.0000
  N   N2        1.0  0.08984  0.30946  0.91378  1.0000
  O   O1        1.0  0.29083  0.52658  0.05252  1.0000
  O   O2        1.0  0.70917  0.47342  0.94748  1.0000
  O   O3        1.0  0.69120  0.27118  0.10996  1.0000
  O   O4        1.0  0.30882  0.72876  0.89003  1.0000
  O   O5        1.0  0.00199  0.34442  0.20016  1.0000
  O   O6        1.0  0.99800  0.65556  0.79983  1.0000
  O   O7        1.0  0.66690  0.37382  0.71976  1.0000
  O   O8        1.0  0.33314  0.62617  0.28024  1.0000
  O   O9        1.0  0.80278  0.53978  0.61269  1.0000
  O   O10       1.0  0.19721  0.46025  0.38729  1.0000
