data_image0
_chemical_formula_structural       U4H52C24S4N4O44
_chemical_formula_sum              "U4 H52 C24 S4 N4 O44"
_cell_length_a       8.16597
_cell_length_b       12.2154
_cell_length_c       14.4187
_cell_angle_alpha    90.0009
_cell_angle_beta     101.491
_cell_angle_gamma    90.0004

_space_group_name_H-M_alt    "P 1"
_space_group_IT_number       1

loop_
  _space_group_symop_operation_xyz
  'x, y, z'

loop_
  _atom_site_type_symbol
  _atom_site_label
  _atom_site_symmetry_multiplicity
  _atom_site_fract_x
  _atom_site_fract_y
  _atom_site_fract_z
  _atom_site_occupancy
  U   U1        1.0  0.75629  0.35779  0.36236  1.0000
  U   U2        1.0  0.74372  0.85779  0.13764  1.0000
  U   U3        1.0  0.24371  0.64222  0.63764  1.0000
  U   U4        1.0  0.25629  0.14221  0.86236  1.0000
  H   H1        1.0  0.02243  0.38967  0.54051  1.0000
  H   H2        1.0  0.47756  0.88967  0.95949  1.0000
  H   H3        1.0  0.97757  0.61033  0.45949  1.0000
  H   H4        1.0  0.52244  0.11033  0.04051  1.0000
  H   H5        1.0  0.13363  0.37388  0.45812  1.0000
  H   H6        1.0  0.36636  0.87387  0.04188  1.0000
  H   H7        1.0  0.86637  0.62613  0.54188  1.0000
  H   H8        1.0  0.63364  0.12612  0.95812  1.0000
  H   H9        1.0  0.49395  0.36852  0.16528  1.0000
  H   H10       1.0  0.00605  0.86853  0.33472  1.0000
  H   H11       1.0  0.50605  0.63148  0.83473  1.0000
  H   H12       1.0  0.99395  0.13148  0.66528  1.0000
  H   H13       1.0  0.66908  0.41008  0.14513  1.0000
  H   H14       1.0  0.83093  0.91009  0.35487  1.0000
  H   H15       1.0  0.33092  0.58992  0.85488  1.0000
  H   H16       1.0  0.16907  0.08991  0.64512  1.0000
  H   H17       1.0  0.83519  0.29857  0.72281  1.0000
  H   H18       1.0  0.66480  0.79856  0.77718  1.0000
  H   H19       1.0  0.16480  0.70143  0.27718  1.0000
  H   H20       1.0  0.33520  0.20144  0.22282  1.0000
  H   H21       1.0  0.96581  0.42095  0.85712  1.0000
  H   H22       1.0  0.53420  0.92094  0.64288  1.0000
  H   H23       1.0  0.03419  0.57905  0.14288  1.0000
  H   H24       1.0  0.46581  0.07906  0.35712  1.0000
  H   H25       1.0  0.80884  0.51566  0.80526  1.0000
  H   H26       1.0  0.69116  0.01565  0.69475  1.0000
  H   H27       1.0  0.19116  0.48434  0.19474  1.0000
  H   H28       1.0  0.30884  0.98435  0.30525  1.0000
  H   H29       1.0  0.65873  0.44474  0.63771  1.0000
  H   H30       1.0  0.84127  0.94474  0.86230  1.0000
  H   H31       1.0  0.34127  0.55526  0.36229  1.0000
  H   H32       1.0  0.15872  0.05526  0.13771  1.0000
  H   H33       1.0  0.53364  0.43205  0.72526  1.0000
  H   H34       1.0  0.96637  0.93205  0.77474  1.0000
  H   H35       1.0  0.46636  0.56795  0.27474  1.0000
  H   H36       1.0  0.03363  0.06796  0.22526  1.0000
  H   H37       1.0  0.41786  0.32870  0.58013  1.0000
  H   H38       1.0  0.08213  0.82870  0.91987  1.0000
  H   H39       1.0  0.58214  0.67130  0.41987  1.0000
  H   H40       1.0  0.91787  0.17130  0.08013  1.0000
  H   H41       1.0  0.46743  0.23615  0.67752  1.0000
  H   H42       1.0  0.03256  0.73615  0.82248  1.0000
  H   H43       1.0  0.53256  0.76385  0.32248  1.0000
  H   H44       1.0  0.96743  0.26385  0.17751  1.0000
  H   H45       1.0  0.59486  0.25427  0.81447  1.0000
  H   H46       1.0  0.90515  0.75427  0.68553  1.0000
  H   H47       1.0  0.40514  0.74572  0.18552  1.0000
  H   H48       1.0  0.09486  0.24573  0.31447  1.0000
  H   H49       1.0  0.71924  0.34268  0.89721  1.0000
  H   H50       1.0  0.78078  0.84268  0.60279  1.0000
  H   H51       1.0  0.28076  0.65731  0.10279  1.0000
  H   H52       1.0  0.21923  0.15732  0.39721  1.0000
  C   C1        1.0  0.88200  0.44466  0.79068  1.0000
  C   C2        1.0  0.61800  0.94465  0.70932  1.0000
  C   C3        1.0  0.11800  0.55534  0.20932  1.0000
  C   C4        1.0  0.38200  0.05535  0.29068  1.0000
  C   C5        1.0  0.98405  0.46987  0.71562  1.0000
  C   C6        1.0  0.51595  0.96986  0.78438  1.0000
  C   C7        1.0  0.01595  0.53013  0.28438  1.0000
  C   C8        1.0  0.48405  0.03014  0.21562  1.0000
  C   C9        1.0  0.61582  0.38781  0.68658  1.0000
  C   C10       1.0  0.88419  0.88781  0.81342  1.0000
  C   C11       1.0  0.38418  0.61219  0.31342  1.0000
  C   C12       1.0  0.11581  0.11219  0.18658  1.0000
  C   C13       1.0  0.52018  0.29342  0.63259  1.0000
  C   C14       1.0  0.97981  0.79342  0.86741  1.0000
  C   C15       1.0  0.47982  0.70658  0.36741  1.0000
  C   C16       1.0  0.02019  0.20658  0.13259  1.0000
  C   C17       1.0  0.84466  0.19539  0.86817  1.0000
  C   C18       1.0  0.65534  0.69539  0.63182  1.0000
  C   C19       1.0  0.15533  0.80460  0.13182  1.0000
  C   C20       1.0  0.34466  0.30462  0.36818  1.0000
  C   C21       1.0  0.72067  0.28769  0.83727  1.0000
  C   C22       1.0  0.77933  0.78769  0.66274  1.0000
  C   C23       1.0  0.27933  0.71230  0.16273  1.0000
  C   C24       1.0  0.22067  0.21231  0.33727  1.0000
  S   S1        1.0  0.63862  0.21067  0.56731  1.0000
  S   S2        1.0  0.86137  0.71067  0.93269  1.0000
  S   S3        1.0  0.36138  0.78934  0.43269  1.0000
  S   S4        1.0  0.13863  0.28933  0.06731  1.0000
  N   N1        1.0  0.76680  0.35126  0.75775  1.0000
  N   N2        1.0  0.73320  0.85126  0.74225  1.0000
  N   N3        1.0  0.23320  0.64874  0.24225  1.0000
  N   N4        1.0  0.26680  0.14875  0.25775  1.0000
  O   O1        1.0  0.06039  0.56326  0.72630  1.0000
  O   O2        1.0  0.43959  0.06325  0.77369  1.0000
  O   O3        1.0  0.93960  0.43674  0.27370  1.0000
  O   O4        1.0  0.56040  0.93675  0.22630  1.0000
  O   O5        1.0  0.52437  0.13099  0.51510  1.0000
  O   O6        1.0  0.97563  0.63099  0.98490  1.0000
  O   O7        1.0  0.47562  0.86901  0.48490  1.0000
  O   O8        1.0  0.02438  0.36902  0.01510  1.0000
  O   O9        1.0  0.81129  0.12489  0.92435  1.0000
  O   O10       1.0  0.68872  0.62488  0.57564  1.0000
  O   O11       1.0  0.18871  0.87511  0.07565  1.0000
  O   O12       1.0  0.31128  0.37512  0.42436  1.0000
  O   O13       1.0  0.70656  0.28915  0.50519  1.0000
  O   O14       1.0  0.79345  0.78914  0.99482  1.0000
  O   O15       1.0  0.29344  0.71086  0.49481  1.0000
  O   O16       1.0  0.20656  0.21086  0.00518  1.0000
  O   O17       1.0  0.98593  0.40097  0.65224  1.0000
  O   O18       1.0  0.51407  0.90097  0.84776  1.0000
  O   O19       1.0  0.01408  0.59902  0.34776  1.0000
  O   O20       1.0  0.48593  0.09903  0.15224  1.0000
  O   O21       1.0  0.01868  0.36737  0.47350  1.0000
  O   O22       1.0  0.48132  0.86738  0.02650  1.0000
  O   O23       1.0  0.98132  0.63263  0.52650  1.0000
  O   O24       1.0  0.51869  0.13262  0.97350  1.0000
  O   O25       1.0  0.60323  0.40163  0.19385  1.0000
  O   O26       1.0  0.89677  0.90164  0.30615  1.0000
  O   O27       1.0  0.39676  0.59837  0.80616  1.0000
  O   O28       1.0  0.10323  0.09837  0.69384  1.0000
  O   O29       1.0  0.81709  0.22528  0.32334  1.0000
  O   O30       1.0  0.68290  0.72528  0.17665  1.0000
  O   O31       1.0  0.18291  0.77473  0.67666  1.0000
  O   O32       1.0  0.31710  0.27472  0.82335  1.0000
  O   O33       1.0  0.69968  0.49165  0.39800  1.0000
  O   O34       1.0  0.80033  0.99165  0.10201  1.0000
  O   O35       1.0  0.30032  0.50835  0.60200  1.0000
  O   O36       1.0  0.19967  0.00835  0.89799  1.0000
  O   O37       1.0  0.97608  0.19832  0.83211  1.0000
  O   O38       1.0  0.52392  0.69831  0.66789  1.0000
  O   O39       1.0  0.02392  0.80168  0.16789  1.0000
  O   O40       1.0  0.47608  0.30169  0.33211  1.0000
  O   O41       1.0  0.77731  0.16383  0.63784  1.0000
  O   O42       1.0  0.72269  0.66382  0.86216  1.0000
  O   O43       1.0  0.22269  0.83617  0.36216  1.0000
  O   O44       1.0  0.27732  0.33618  0.13784  1.0000
