data_image0
_chemical_formula_structural       Sn2H16C8S4Br8
_chemical_formula_sum              "Sn2 H16 C8 S4 Br8"
_cell_length_a       6.7979
_cell_length_b       7.95401
_cell_length_c       12.074
_cell_angle_alpha    89.9992
_cell_angle_beta     89.9941
_cell_angle_gamma    113.748

_space_group_name_H-M_alt    "P 1"
_space_group_IT_number       1

loop_
  _space_group_symop_operation_xyz
  'x, y, z'

loop_
  _atom_site_type_symbol
  _atom_site_label
  _atom_site_symmetry_multiplicity
  _atom_site_fract_x
  _atom_site_fract_y
  _atom_site_fract_z
  _atom_site_occupancy
  Sn  Sn1       1.0  0.00012  0.49995  0.99995  1.0000
  Sn  Sn2       1.0  0.49996  0.99997  0.50004  1.0000
  H   H1        1.0  0.79646  0.05280  0.85146  1.0000
  H   H2        1.0  0.70351  0.44718  0.35145  1.0000
  H   H3        1.0  0.20346  0.94716  0.14858  1.0000
  H   H4        1.0  0.29634  0.55276  0.64852  1.0000
  H   H5        1.0  0.81558  0.02645  0.99773  1.0000
  H   H6        1.0  0.68445  0.47362  0.49774  1.0000
  H   H7        1.0  0.18442  0.97363  0.00228  1.0000
  H   H8        1.0  0.31559  0.52641  0.50230  1.0000
  H   H9        1.0  0.56502  0.73460  0.90287  1.0000
  H   H10       1.0  0.93501  0.76535  0.40279  1.0000
  H   H11       1.0  0.43489  0.26532  0.09710  1.0000
  H   H12       1.0  0.06495  0.23461  0.59711  1.0000
  H   H13       1.0  0.40009  0.84801  0.85623  1.0000
  H   H14       1.0  0.09995  0.65200  0.35617  1.0000
  H   H15       1.0  0.59996  0.15202  0.14374  1.0000
  H   H16       1.0  0.89990  0.34801  0.64374  1.0000
  C   C1        1.0  0.70753  0.02636  0.92995  1.0000
  C   C2        1.0  0.79243  0.47366  0.42994  1.0000
  C   C3        1.0  0.29243  0.97358  0.07007  1.0000
  C   C4        1.0  0.20749  0.52642  0.57004  1.0000
  C   C5        1.0  0.51193  0.84507  0.92119  1.0000
  C   C6        1.0  0.98808  0.65491  0.42114  1.0000
  C   C7        1.0  0.48803  0.15486  0.07882  1.0000
  C   C8        1.0  0.01188  0.34512  0.57884  1.0000
  S   S1        1.0  0.62965  0.21774  0.94786  1.0000
  S   S2        1.0  0.87050  0.28240  0.44782  1.0000
  S   S3        1.0  0.37044  0.78226  0.05219  1.0000
  S   S4        1.0  0.12956  0.71778  0.55212  1.0000
  Br  Br1       1.0  0.78277  0.63130  0.12624  1.0000
  Br  Br2       1.0  0.71716  0.86863  0.62609  1.0000
  Br  Br3       1.0  0.21713  0.36855  0.87398  1.0000
  Br  Br4       1.0  0.28293  0.13141  0.37390  1.0000
  Br  Br5       1.0  0.94145  0.67822  0.83154  1.0000
  Br  Br6       1.0  0.55892  0.82191  0.33153  1.0000
  Br  Br7       1.0  0.05874  0.32198  0.16848  1.0000
  Br  Br8       1.0  0.44127  0.17798  0.66851  1.0000
