data_image0
_chemical_formula_structural       Nd4H32C28N12O32
_chemical_formula_sum              "Nd4 H32 C28 N12 O32"
_cell_length_a       10.5389
_cell_length_b       10.5389
_cell_length_c       13.0217
_cell_angle_alpha    75.368
_cell_angle_beta     75.3681
_cell_angle_gamma    58.9389

_space_group_name_H-M_alt    "P 1"
_space_group_IT_number       1

loop_
  _space_group_symop_operation_xyz
  'x, y, z'

loop_
  _atom_site_type_symbol
  _atom_site_label
  _atom_site_symmetry_multiplicity
  _atom_site_fract_x
  _atom_site_fract_y
  _atom_site_fract_z
  _atom_site_occupancy
  Nd  Nd1       1.0  0.24280  0.26171  0.29163  1.0000
  Nd  Nd2       1.0  0.73828  0.75721  0.20837  1.0000
  Nd  Nd3       1.0  0.75720  0.73829  0.70837  1.0000
  Nd  Nd4       1.0  0.26171  0.24280  0.79163  1.0000
  H   H1        1.0  0.07879  0.59570  0.31843  1.0000
  H   H2        1.0  0.40430  0.92121  0.18157  1.0000
  H   H3        1.0  0.92121  0.40431  0.68157  1.0000
  H   H4        1.0  0.59569  0.07879  0.81843  1.0000
  H   H5        1.0  0.24208  0.51339  0.34939  1.0000
  H   H6        1.0  0.48661  0.75792  0.15061  1.0000
  H   H7        1.0  0.75792  0.48661  0.65061  1.0000
  H   H8        1.0  0.51339  0.24208  0.84939  1.0000
  H   H9        1.0  0.43291  0.93492  0.40565  1.0000
  H   H10       1.0  0.06508  0.56708  0.09435  1.0000
  H   H11       1.0  0.56708  0.06508  0.59435  1.0000
  H   H12       1.0  0.93492  0.43292  0.90566  1.0000
  H   H13       1.0  0.27791  0.99521  0.48503  1.0000
  H   H14       1.0  0.00479  0.72209  0.01497  1.0000
  H   H15       1.0  0.72209  0.00479  0.51497  1.0000
  H   H16       1.0  0.99521  0.27791  0.98503  1.0000
  H   H17       1.0  0.56104  0.28096  0.40885  1.0000
  H   H18       1.0  0.71904  0.43896  0.09115  1.0000
  H   H19       1.0  0.43896  0.71904  0.59114  1.0000
  H   H20       1.0  0.28096  0.56105  0.90885  1.0000
  H   H21       1.0  0.61834  0.42101  0.36470  1.0000
  H   H22       1.0  0.57899  0.38166  0.13530  1.0000
  H   H23       1.0  0.38165  0.57898  0.63530  1.0000
  H   H24       1.0  0.42102  0.61835  0.86470  1.0000
  H   H25       1.0  0.00264  0.84546  0.41499  1.0000
  H   H26       1.0  0.15454  0.99736  0.08501  1.0000
  H   H27       1.0  0.99735  0.15454  0.58502  1.0000
  H   H28       1.0  0.84546  0.00264  0.91498  1.0000
  H   H29       1.0  0.20390  0.92307  0.34320  1.0000
  H   H30       1.0  0.07693  0.79610  0.15680  1.0000
  H   H31       1.0  0.79610  0.07692  0.65680  1.0000
  H   H32       1.0  0.92307  0.20391  0.84320  1.0000
  C   C1        1.0  0.90327  0.25362  0.33942  1.0000
  C   C2        1.0  0.74638  0.09673  0.16058  1.0000
  C   C3        1.0  0.09673  0.74638  0.66058  1.0000
  C   C4        1.0  0.25362  0.90327  0.83942  1.0000
  C   C5        1.0  0.78855  0.21088  0.37921  1.0000
  C   C6        1.0  0.78912  0.21145  0.12079  1.0000
  C   C7        1.0  0.21145  0.78911  0.62079  1.0000
  C   C8        1.0  0.21089  0.78855  0.87921  1.0000
  C   C9        1.0  0.97421  0.96323  0.39230  1.0000
  C   C10       1.0  0.03677  0.02579  0.10769  1.0000
  C   C11       1.0  0.02579  0.03677  0.60770  1.0000
  C   C12       1.0  0.96323  0.97420  0.89230  1.0000
  C   C13       1.0  0.08542  0.00517  0.35345  1.0000
  C   C14       1.0  0.99483  0.91458  0.14655  1.0000
  C   C15       1.0  0.91458  0.99483  0.64655  1.0000
  C   C16       1.0  0.00516  0.08542  0.85345  1.0000
  C   C17       1.0  0.87160  0.41153  0.30164  1.0000
  C   C18       1.0  0.58847  0.12840  0.19836  1.0000
  C   C19       1.0  0.12840  0.58847  0.69835  1.0000
  C   C20       1.0  0.41153  0.87161  0.80164  1.0000
  C   C21       1.0  0.32569  0.26114  0.52305  1.0000
  C   C22       1.0  0.73887  0.67430  0.97695  1.0000
  C   C23       1.0  0.67431  0.73885  0.47696  1.0000
  C   C24       1.0  0.26115  0.32569  0.02304  1.0000
  C   C25       1.0  0.15997  0.29574  0.55129  1.0000
  C   C26       1.0  0.70427  0.84003  0.94871  1.0000
  C   C27       1.0  0.84003  0.70428  0.44871  1.0000
  C   C28       1.0  0.29573  0.15997  0.05129  1.0000
  N   N1        1.0  0.04805  0.15030  0.33016  1.0000
  N   N2        1.0  0.84970  0.95194  0.16984  1.0000
  N   N3        1.0  0.95194  0.84970  0.66984  1.0000
  N   N4        1.0  0.15029  0.04806  0.83016  1.0000
  N   N5        1.0  0.82891  0.06281  0.40742  1.0000
  N   N6        1.0  0.93719  0.17109  0.09258  1.0000
  N   N7        1.0  0.17109  0.93719  0.59259  1.0000
  N   N8        1.0  0.06281  0.82891  0.90741  1.0000
  N   N9        1.0  0.64295  0.31189  0.39094  1.0000
  N   N10       1.0  0.68811  0.35705  0.10906  1.0000
  N   N11       1.0  0.35705  0.68811  0.60906  1.0000
  N   N12       1.0  0.31190  0.64296  0.89094  1.0000
  O   O1        1.0  0.18724  0.52730  0.29387  1.0000
  O   O2        1.0  0.47270  0.81276  0.20613  1.0000
  O   O3        1.0  0.81276  0.47270  0.70613  1.0000
  O   O4        1.0  0.52730  0.18724  0.79387  1.0000
  O   O5        1.0  0.33264  0.02410  0.41645  1.0000
  O   O6        1.0  0.97591  0.66736  0.08355  1.0000
  O   O7        1.0  0.66736  0.97590  0.58354  1.0000
  O   O8        1.0  0.02410  0.33264  0.91646  1.0000
  O   O9        1.0  0.98278  0.43553  0.26467  1.0000
  O   O10       1.0  0.56447  0.01722  0.23533  1.0000
  O   O11       1.0  0.01723  0.56447  0.73533  1.0000
  O   O12       1.0  0.43552  0.98278  0.76467  1.0000
  O   O13       1.0  0.73651  0.51686  0.30403  1.0000
  O   O14       1.0  0.48314  0.26349  0.19596  1.0000
  O   O15       1.0  0.26349  0.48314  0.69596  1.0000
  O   O16       1.0  0.51686  0.73652  0.80403  1.0000
  O   O17       1.0  0.37839  0.27646  0.42448  1.0000
  O   O18       1.0  0.72355  0.62161  0.07552  1.0000
  O   O19       1.0  0.62161  0.72352  0.57552  1.0000
  O   O20       1.0  0.27648  0.37839  0.92448  1.0000
  O   O21       1.0  0.39621  0.22015  0.60097  1.0000
  O   O22       1.0  0.77985  0.60378  0.89903  1.0000
  O   O23       1.0  0.60379  0.77984  0.39903  1.0000
  O   O24       1.0  0.22016  0.39621  0.10097  1.0000
  O   O25       1.0  0.09269  0.31666  0.47616  1.0000
  O   O26       1.0  0.68334  0.90731  0.02385  1.0000
  O   O27       1.0  0.90730  0.68335  0.52384  1.0000
  O   O28       1.0  0.31665  0.09270  0.97616  1.0000
  O   O29       1.0  0.10506  0.29852  0.65031  1.0000
  O   O30       1.0  0.70148  0.89494  0.84969  1.0000
  O   O31       1.0  0.89495  0.70148  0.34968  1.0000
  O   O32       1.0  0.29852  0.10505  0.15032  1.0000
