data_image0
_chemical_formula_structural       Fe2Si8H88C44N8
_chemical_formula_sum              "Fe2 Si8 H88 C44 N8"
_cell_length_a       9.15973
_cell_length_b       11.0565
_cell_length_c       15.9651
_cell_angle_alpha    78.7466
_cell_angle_beta     73.3218
_cell_angle_gamma    65.5392

_space_group_name_H-M_alt    "P 1"
_space_group_IT_number       1

loop_
  _space_group_symop_operation_xyz
  'x, y, z'

loop_
  _atom_site_type_symbol
  _atom_site_label
  _atom_site_symmetry_multiplicity
  _atom_site_fract_x
  _atom_site_fract_y
  _atom_site_fract_z
  _atom_site_occupancy
  Fe  Fe1       1.0  0.62109  0.25035  0.75040  1.0000
  Fe  Fe2       1.0  0.37795  0.75037  0.25034  1.0000
  Si  Si1       1.0  0.48677  0.17035  0.61855  1.0000
  Si  Si2       1.0  0.72446  0.67032  0.11854  1.0000
  Si  Si3       1.0  0.51395  0.82948  0.38179  1.0000
  Si  Si4       1.0  0.27469  0.32956  0.88190  1.0000
  Si  Si5       1.0  0.74496  0.94930  0.70585  1.0000
  Si  Si6       1.0  0.59973  0.44938  0.20583  1.0000
  Si  Si7       1.0  0.25611  0.05055  0.29399  1.0000
  Si  Si8       1.0  0.39952  0.55057  0.79420  1.0000
  H   H1        1.0  0.31683  0.38482  0.55319  1.0000
  H   H2        1.0  0.74527  0.88487  0.05318  1.0000
  H   H3        1.0  0.68291  0.61480  0.44734  1.0000
  H   H4        1.0  0.25496  0.11476  0.94730  1.0000
  H   H5        1.0  0.48999  0.40059  0.57070  1.0000
  H   H6        1.0  0.53889  0.90052  0.07075  1.0000
  H   H7        1.0  0.50983  0.59948  0.42940  1.0000
  H   H8        1.0  0.46129  0.09954  0.92931  1.0000
  H   H9        1.0  0.32153  0.40460  0.66081  1.0000
  H   H10       1.0  0.61326  0.90450  0.16083  1.0000
  H   H11       1.0  0.67893  0.59513  0.33962  1.0000
  H   H12       1.0  0.38624  0.09534  0.83955  1.0000
  H   H13       1.0  0.51635  0.14896  0.46238  1.0000
  H   H14       1.0  0.87241  0.64885  0.96234  1.0000
  H   H15       1.0  0.48497  0.85091  0.53761  1.0000
  H   H16       1.0  0.12667  0.35108  0.03777  1.0000
  H   H17       1.0  0.65536  0.00111  0.50676  1.0000
  H   H18       1.0  0.83681  0.50102  0.00679  1.0000
  H   H19       1.0  0.34558  0.99888  0.49354  1.0000
  H   H20       1.0  0.16236  0.49896  0.99353  1.0000
  H   H21       1.0  0.70180  0.14619  0.47664  1.0000
  H   H22       1.0  0.67544  0.64609  0.97671  1.0000
  H   H23       1.0  0.29898  0.85378  0.52397  1.0000
  H   H24       1.0  0.32355  0.35385  0.02396  1.0000
  H   H25       1.0  0.21949  0.16237  0.61573  1.0000
  H   H26       1.0  0.00253  0.66243  0.11561  1.0000
  H   H27       1.0  0.78158  0.83647  0.38473  1.0000
  H   H28       1.0  0.99714  0.33647  0.88493  1.0000
  H   H29       1.0  0.23780  0.14979  0.72516  1.0000
  H   H30       1.0  0.88745  0.64989  0.22509  1.0000
  H   H31       1.0  0.76274  0.84992  0.27522  1.0000
  H   H32       1.0  0.11205  0.34991  0.77541  1.0000
  H   H33       1.0  0.34299  0.00815  0.66312  1.0000
  H   H34       1.0  0.98591  0.50821  0.16309  1.0000
  H   H35       1.0  0.65826  0.99125  0.33766  1.0000
  H   H36       1.0  0.01270  0.49129  0.83783  1.0000
  H   H37       1.0  0.76152  0.72611  0.68837  1.0000
  H   H38       1.0  0.82396  0.22617  0.18848  1.0000
  H   H39       1.0  0.23955  0.27382  0.31109  1.0000
  H   H40       1.0  0.17579  0.77380  0.81116  1.0000
  H   H41       1.0  0.68958  0.83718  0.59957  1.0000
  H   H42       1.0  0.87361  0.33739  0.09975  1.0000
  H   H43       1.0  0.31159  0.16275  0.40000  1.0000
  H   H44       1.0  0.12569  0.66284  0.90009  1.0000
  H   H45       1.0  0.55487  0.83997  0.70507  1.0000
  H   H46       1.0  0.89992  0.34012  0.20527  1.0000
  H   H47       1.0  0.44631  0.15992  0.29445  1.0000
  H   H48       1.0  0.09956  0.65985  0.79453  1.0000
  H   H49       1.0  0.96278  0.93286  0.56832  1.0000
  H   H50       1.0  0.53612  0.43295  0.06822  1.0000
  H   H51       1.0  0.03795  0.06603  0.43146  1.0000
  H   H52       1.0  0.46494  0.56607  0.93167  1.0000
  H   H53       1.0  0.04900  0.81997  0.65365  1.0000
  H   H54       1.0  0.47754  0.31991  0.15353  1.0000
  H   H55       1.0  0.95196  0.17941  0.34620  1.0000
  H   H56       1.0  0.52277  0.67939  0.84631  1.0000
  H   H57       1.0  0.01007  0.99168  0.64847  1.0000
  H   H58       1.0  0.34985  0.49164  0.14845  1.0000
  H   H59       1.0  0.99187  0.00760  0.35058  1.0000
  H   H60       1.0  0.65020  0.50759  0.85068  1.0000
  H   H61       1.0  0.83112  0.78349  0.82846  1.0000
  H   H62       1.0  0.55649  0.28361  0.32843  1.0000
  H   H63       1.0  0.16808  0.21518  0.17116  1.0000
  H   H64       1.0  0.44577  0.71524  0.67138  1.0000
  H   H65       1.0  0.62201  0.89121  0.86046  1.0000
  H   H66       1.0  0.62558  0.39151  0.36045  1.0000
  H   H67       1.0  0.37752  0.10817  0.13883  1.0000
  H   H68       1.0  0.37591  0.60803  0.63907  1.0000
  H   H69       1.0  0.78089  0.94324  0.85985  1.0000
  H   H70       1.0  0.41536  0.44339  0.35970  1.0000
  H   H71       1.0  0.21917  0.05471  0.14071  1.0000
  H   H72       1.0  0.58576  0.55478  0.64100  1.0000
  H   H73       1.0  0.98113  0.10574  0.74640  1.0000
  H   H74       1.0  0.16592  0.60590  0.24655  1.0000
  H   H75       1.0  0.01478  0.89067  0.25320  1.0000
  H   H76       1.0  0.84067  0.39064  0.75336  1.0000
  H   H77       1.0  0.15135  0.97782  0.85102  1.0000
  H   H78       1.0  0.01864  0.47829  0.35129  1.0000
  H   H79       1.0  0.84359  0.01791  0.14869  1.0000
  H   H80       1.0  0.98897  0.51817  0.64891  1.0000
  H   H81       1.0  0.57018  0.26726  0.94476  1.0000
  H   H82       1.0  0.21800  0.76718  0.44468  1.0000
  H   H83       1.0  0.42843  0.73799  0.05492  1.0000
  H   H84       1.0  0.77901  0.23759  0.55491  1.0000
  H   H85       1.0  0.72214  0.14624  0.05935  1.0000
  H   H86       1.0  0.07246  0.64625  0.55940  1.0000
  H   H87       1.0  0.27714  0.85957  0.94022  1.0000
  H   H88       1.0  0.92343  0.35923  0.44031  1.0000
  C   C1        1.0  0.39584  0.35776  0.59982  1.0000
  C   C2        1.0  0.64679  0.85771  0.09982  1.0000
  C   C3        1.0  0.60426  0.64208  0.40052  1.0000
  C   C4        1.0  0.35308  0.14218  0.90050  1.0000
  C   C5        1.0  0.60159  0.11004  0.50643  1.0000
  C   C6        1.0  0.78205  0.60993  0.00645  1.0000
  C   C7        1.0  0.39911  0.88995  0.49390  1.0000
  C   C8        1.0  0.21726  0.39001  0.99395  1.0000
  C   C9        1.0  0.30548  0.11670  0.65948  1.0000
  C   C10       1.0  0.91848  0.61675  0.15944  1.0000
  C   C11       1.0  0.69554  0.88275  0.34101  1.0000
  C   C12       1.0  0.08059  0.38279  0.84119  1.0000
  C   C13       1.0  0.68145  0.82853  0.67022  1.0000
  C   C14       1.0  0.81968  0.32863  0.17040  1.0000
  C   C15       1.0  0.31968  0.17146  0.32933  1.0000
  C   C16       1.0  0.17968  0.67147  0.82942  1.0000
  C   C17       1.0  0.96175  0.92107  0.63854  1.0000
  C   C18       1.0  0.47874  0.42105  0.13844  1.0000
  C   C19       1.0  0.03946  0.07833  0.36115  1.0000
  C   C20       1.0  0.52132  0.57832  0.86133  1.0000
  C   C21       1.0  0.74524  0.88810  0.82463  1.0000
  C   C22       1.0  0.54142  0.38828  0.32458  1.0000
  C   C23       1.0  0.25473  0.11085  0.17521  1.0000
  C   C24       1.0  0.45953  0.61086  0.67546  1.0000
  C   C25       1.0  0.92737  0.10968  0.81660  1.0000
  C   C26       1.0  0.14572  0.60982  0.31674  1.0000
  C   C27       1.0  0.06898  0.88901  0.18300  1.0000
  C   C28       1.0  0.85851  0.38897  0.68314  1.0000
  C   C29       1.0  0.02213  0.03752  0.87632  1.0000
  C   C30       1.0  0.06319  0.53784  0.37651  1.0000
  C   C31       1.0  0.97383  0.96109  0.12333  1.0000
  C   C32       1.0  0.94111  0.46122  0.62351  1.0000
  C   C33       1.0  0.69865  0.19952  0.92755  1.0000
  C   C34       1.0  0.17424  0.69951  0.42755  1.0000
  C   C35       1.0  0.29928  0.80411  0.07215  1.0000
  C   C36       1.0  0.82454  0.30384  0.57221  1.0000
  C   C37       1.0  0.78580  0.13060  0.99108  1.0000
  C   C38       1.0  0.09249  0.63063  0.49116  1.0000
  C   C39       1.0  0.21234  0.87325  0.00853  1.0000
  C   C40       1.0  0.90594  0.37305  0.50863  1.0000
  C   C41       1.0  0.95190  0.04154  0.96734  1.0000
  C   C42       1.0  0.03883  0.54170  0.46751  1.0000
  C   C43       1.0  0.04519  0.95993  0.03235  1.0000
  C   C44       1.0  0.96215  0.46003  0.53251  1.0000
  N   N1        1.0  0.61514  0.11527  0.69149  1.0000
  N   N2        1.0  0.57800  0.61536  0.19144  1.0000
  N   N3        1.0  0.38633  0.88476  0.30849  1.0000
  N   N4        1.0  0.42039  0.38482  0.80862  1.0000
  N   N5        1.0  0.76432  0.18661  0.84037  1.0000
  N   N6        1.0  0.20843  0.68662  0.34038  1.0000
  N   N7        1.0  0.23237  0.81465  0.15922  1.0000
  N   N8        1.0  0.79351  0.31448  0.65928  1.0000
