data_image0
_chemical_formula_structural       Cu4H32C48N20
_chemical_formula_sum              "Cu4 H32 C48 N20"
_cell_length_a       9.27347
_cell_length_b       11.1473
_cell_length_c       11.6482
_cell_angle_alpha    107.042
_cell_angle_beta     90.0002
_cell_angle_gamma    89.9998

_space_group_name_H-M_alt    "P 1"
_space_group_IT_number       1

loop_
  _space_group_symop_operation_xyz
  'x, y, z'

loop_
  _atom_site_type_symbol
  _atom_site_label
  _atom_site_symmetry_multiplicity
  _atom_site_fract_x
  _atom_site_fract_y
  _atom_site_fract_z
  _atom_site_occupancy
  Cu  Cu1       1.0  0.13484  0.74576  0.82625  1.0000
  Cu  Cu2       1.0  0.63485  0.75424  0.17375  1.0000
  Cu  Cu3       1.0  0.86515  0.25424  0.17375  1.0000
  Cu  Cu4       1.0  0.36515  0.24576  0.82625  1.0000
  H   H1        1.0  0.56669  0.42985  0.51645  1.0000
  H   H2        1.0  0.06669  0.07013  0.48354  1.0000
  H   H3        1.0  0.43332  0.57014  0.48355  1.0000
  H   H4        1.0  0.93331  0.92986  0.51645  1.0000
  H   H5        1.0  0.71459  0.24873  0.40258  1.0000
  H   H6        1.0  0.21462  0.25125  0.59741  1.0000
  H   H7        1.0  0.28541  0.75128  0.59743  1.0000
  H   H8        1.0  0.78540  0.74874  0.40258  1.0000
  H   H9        1.0  0.72572  0.05603  0.47536  1.0000
  H   H10       1.0  0.22572  0.44396  0.52465  1.0000
  H   H11       1.0  0.27430  0.94398  0.52465  1.0000
  H   H12       1.0  0.77428  0.55604  0.47535  1.0000
  H   H13       1.0  0.58622  0.05710  0.65939  1.0000
  H   H14       1.0  0.08621  0.44290  0.34062  1.0000
  H   H15       1.0  0.41379  0.94291  0.34061  1.0000
  H   H16       1.0  0.91378  0.55710  0.65938  1.0000
  H   H17       1.0  0.24476  0.44122  0.05435  1.0000
  H   H18       1.0  0.74476  0.05878  0.94565  1.0000
  H   H19       1.0  0.75525  0.55878  0.94565  1.0000
  H   H20       1.0  0.25524  0.94122  0.05435  1.0000
  H   H21       1.0  0.12681  0.55846  0.24999  1.0000
  H   H22       1.0  0.62681  0.94153  0.75000  1.0000
  H   H23       1.0  0.87320  0.44154  0.75001  1.0000
  H   H24       1.0  0.37318  0.05847  0.24999  1.0000
  H   H25       1.0  0.99729  0.76109  0.26276  1.0000
  H   H26       1.0  0.49729  0.73890  0.73723  1.0000
  H   H27       1.0  0.00271  0.23891  0.73724  1.0000
  H   H28       1.0  0.50270  0.26110  0.26277  1.0000
  H   H29       1.0  0.99043  0.83591  0.08173  1.0000
  H   H30       1.0  0.49044  0.66409  0.91827  1.0000
  H   H31       1.0  0.00957  0.16410  0.91828  1.0000
  H   H32       1.0  0.50956  0.33591  0.08173  1.0000
  C   C1        1.0  0.40313  0.43626  0.71796  1.0000
  C   C2        1.0  0.90313  0.06375  0.28204  1.0000
  C   C3        1.0  0.59687  0.56375  0.28204  1.0000
  C   C4        1.0  0.09687  0.93625  0.71795  1.0000
  C   C5        1.0  0.25915  0.52842  0.85703  1.0000
  C   C6        1.0  0.75914  0.97158  0.14296  1.0000
  C   C7        1.0  0.74085  0.47157  0.14296  1.0000
  C   C8        1.0  0.24085  0.02842  0.85703  1.0000
  C   C9        1.0  0.49847  0.33898  0.64814  1.0000
  C   C10       1.0  0.99847  0.16102  0.35186  1.0000
  C   C11       1.0  0.50153  0.66102  0.35186  1.0000
  C   C12       1.0  0.00153  0.83899  0.64814  1.0000
  C   C13       1.0  0.57393  0.34636  0.54640  1.0000
  C   C14       1.0  0.07393  0.15363  0.45358  1.0000
  C   C15       1.0  0.42607  0.65364  0.45360  1.0000
  C   C16       1.0  0.92607  0.84636  0.54640  1.0000
  C   C17       1.0  0.65689  0.24461  0.48295  1.0000
  C   C18       1.0  0.15689  0.25538  0.51705  1.0000
  C   C19       1.0  0.34312  0.75539  0.51706  1.0000
  C   C20       1.0  0.84311  0.74461  0.48294  1.0000
  C   C21       1.0  0.66285  0.13808  0.52321  1.0000
  C   C22       1.0  0.16285  0.36192  0.47679  1.0000
  C   C23       1.0  0.33716  0.86193  0.47680  1.0000
  C   C24       1.0  0.83716  0.63807  0.52320  1.0000
  C   C25       1.0  0.58577  0.13848  0.62570  1.0000
  C   C26       1.0  0.08577  0.36152  0.37430  1.0000
  C   C27       1.0  0.41423  0.86152  0.37430  1.0000
  C   C28       1.0  0.91423  0.63848  0.62570  1.0000
  C   C29       1.0  0.18125  0.57936  0.96838  1.0000
  C   C30       1.0  0.68125  0.92064  0.03162  1.0000
  C   C31       1.0  0.81874  0.42063  0.03162  1.0000
  C   C32       1.0  0.31874  0.07936  0.96838  1.0000
  C   C33       1.0  0.18704  0.52889  0.06489  1.0000
  C   C34       1.0  0.68704  0.97111  0.93511  1.0000
  C   C35       1.0  0.81296  0.47111  0.93512  1.0000
  C   C36       1.0  0.31295  0.02890  0.06489  1.0000
  C   C37       1.0  0.12140  0.59403  0.17246  1.0000
  C   C38       1.0  0.62139  0.90597  0.82754  1.0000
  C   C39       1.0  0.87861  0.40597  0.82754  1.0000
  C   C40       1.0  0.37860  0.09403  0.17246  1.0000
  C   C41       1.0  0.04992  0.70644  0.18054  1.0000
  C   C42       1.0  0.54991  0.79355  0.81946  1.0000
  C   C43       1.0  0.95009  0.29356  0.81946  1.0000
  C   C44       1.0  0.45008  0.20645  0.18054  1.0000
  C   C45       1.0  0.04621  0.74945  0.07978  1.0000
  C   C46       1.0  0.54620  0.75055  0.92022  1.0000
  C   C47       1.0  0.95380  0.25055  0.92023  1.0000
  C   C48       1.0  0.45379  0.24945  0.07978  1.0000
  N   N1        1.0  0.36326  0.54172  0.69215  1.0000
  N   N2        1.0  0.86327  0.95828  0.30784  1.0000
  N   N3        1.0  0.63674  0.45828  0.30785  1.0000
  N   N4        1.0  0.13674  0.04172  0.69215  1.0000
  N   N5        1.0  0.27131  0.60038  0.78137  1.0000
  N   N6        1.0  0.77132  0.89962  0.21862  1.0000
  N   N7        1.0  0.72869  0.39962  0.21863  1.0000
  N   N8        1.0  0.22868  0.10038  0.78138  1.0000
  N   N9        1.0  0.33906  0.42263  0.81920  1.0000
  N   N10       1.0  0.83906  0.07737  0.18080  1.0000
  N   N11       1.0  0.66094  0.57737  0.18080  1.0000
  N   N12       1.0  0.16093  0.92263  0.81919  1.0000
  N   N13       1.0  0.50498  0.23593  0.68835  1.0000
  N   N14       1.0  0.00498  0.26407  0.31166  1.0000
  N   N15       1.0  0.49502  0.76407  0.31165  1.0000
  N   N16       1.0  0.99502  0.73593  0.68834  1.0000
  N   N17       1.0  0.11026  0.68889  0.97514  1.0000
  N   N18       1.0  0.61026  0.81112  0.02486  1.0000
  N   N19       1.0  0.88973  0.31111  0.02486  1.0000
  N   N20       1.0  0.38974  0.18889  0.97514  1.0000
