data_image0
_chemical_formula_structural       ThH60C48O16
_chemical_formula_sum              "Th1 H60 C48 O16"
_cell_length_a       7.4788
_cell_length_b       12.3851
_cell_length_c       12.3835
_cell_angle_alpha    84.7754
_cell_angle_beta     72.4276
_cell_angle_gamma    72.4238

_space_group_name_H-M_alt    "P 1"
_space_group_IT_number       1

loop_
  _space_group_symop_operation_xyz
  'x, y, z'

loop_
  _atom_site_type_symbol
  _atom_site_label
  _atom_site_symmetry_multiplicity
  _atom_site_fract_x
  _atom_site_fract_y
  _atom_site_fract_z
  _atom_site_occupancy
  Th  Th1       1.0  0.21094  0.99998  0.99998  1.0000
  H   H1        1.0  0.34371  0.67552  0.04103  1.0000
  H   H2        1.0  0.06062  0.32454  0.95894  1.0000
  H   H3        1.0  0.01933  0.04101  0.32447  1.0000
  H   H4        1.0  0.38492  0.95888  0.67554  1.0000
  H   H5        1.0  0.89646  0.79562  0.94799  1.0000
  H   H6        1.0  0.64027  0.20445  0.05212  1.0000
  H   H7        1.0  0.69220  0.94794  0.20430  1.0000
  H   H8        1.0  0.84450  0.05201  0.79560  1.0000
  H   H9        1.0  0.78061  0.87580  0.84966  1.0000
  H   H10       1.0  0.50624  0.12423  0.15037  1.0000
  H   H11       1.0  0.65658  0.84958  0.12409  1.0000
  H   H12       1.0  0.63032  0.15030  0.87586  1.0000
  H   H13       1.0  0.92456  0.58454  0.97348  1.0000
  H   H14       1.0  0.48302  0.41535  0.02652  1.0000
  H   H15       1.0  0.50920  0.97345  0.41540  1.0000
  H   H16       1.0  0.89809  0.02652  0.58460  1.0000
  H   H17       1.0  0.83113  0.51867  0.89068  1.0000
  H   H18       1.0  0.24086  0.48133  0.10916  1.0000
  H   H19       1.0  0.34976  0.89071  0.48125  1.0000
  H   H20       1.0  0.72194  0.10925  0.51869  1.0000
  H   H21       1.0  0.19321  0.47416  0.81769  1.0000
  H   H22       1.0  0.48526  0.52588  0.18226  1.0000
  H   H23       1.0  0.66724  0.81768  0.52585  1.0000
  H   H24       1.0  0.01087  0.18229  0.47420  1.0000
  H   H25       1.0  0.00429  0.48648  0.67948  1.0000
  H   H26       1.0  0.17041  0.51358  0.32043  1.0000
  H   H27       1.0  0.49069  0.67949  0.51339  1.0000
  H   H28       1.0  0.68374  0.32036  0.48656  1.0000
  H   H29       1.0  0.21434  0.53325  0.61517  1.0000
  H   H30       1.0  0.36283  0.46691  0.38481  1.0000
  H   H31       1.0  0.74754  0.61517  0.46668  1.0000
  H   H32       1.0  0.82941  0.38479  0.53322  1.0000
  H   H33       1.0  0.91883  0.66786  0.57320  1.0000
  H   H34       1.0  0.15990  0.33230  0.42681  1.0000
  H   H35       1.0  0.58670  0.57323  0.33197  1.0000
  H   H36       1.0  0.49201  0.42676  0.66794  1.0000
  H   H37       1.0  0.95158  0.84448  0.63667  1.0000
  H   H38       1.0  0.43279  0.15563  0.36347  1.0000
  H   H39       1.0  0.79631  0.63667  0.15537  1.0000
  H   H40       1.0  0.58835  0.36339  0.84457  1.0000
  H   H41       1.0  0.18291  0.74344  0.59035  1.0000
  H   H42       1.0  0.51670  0.25671  0.40976  1.0000
  H   H43       1.0  0.92641  0.59037  0.25653  1.0000
  H   H44       1.0  0.77338  0.40959  0.74341  1.0000
  H   H45       1.0  0.34748  0.62814  0.73493  1.0000
  H   H46       1.0  0.71064  0.37194  0.26515  1.0000
  H   H47       1.0  0.97557  0.73484  0.37189  1.0000
  H   H48       1.0  0.08238  0.26508  0.62819  1.0000
  H   H49       1.0  0.22683  0.65010  0.88186  1.0000
  H   H50       1.0  0.75905  0.34989  0.11821  1.0000
  H   H51       1.0  0.87706  0.88180  0.34995  1.0000
  H   H52       1.0  0.10885  0.11813  0.65011  1.0000
  H   H53       1.0  0.66691  0.63325  0.74785  1.0000
  H   H54       1.0  0.04822  0.36684  0.25208  1.0000
  H   H55       1.0  0.30019  0.74793  0.36670  1.0000
  H   H56       1.0  0.41476  0.25210  0.63331  1.0000
  H   H57       1.0  0.64642  0.77980  0.72920  1.0000
  H   H58       1.0  0.15563  0.22028  0.27078  1.0000
  H   H59       1.0  0.42620  0.72925  0.22009  1.0000
  H   H60       1.0  0.37563  0.27075  0.77989  1.0000
  C   C1        1.0  0.07349  0.76506  0.77307  1.0000
  C   C2        1.0  0.61170  0.23499  0.22701  1.0000
  C   C3        1.0  0.83861  0.77308  0.23491  1.0000
  C   C4        1.0  0.84654  0.22689  0.76515  1.0000
  C   C5        1.0  0.87419  0.79212  0.86483  1.0000
  C   C6        1.0  0.53129  0.20792  0.13524  1.0000
  C   C7        1.0  0.66640  0.86480  0.20780  1.0000
  C   C8        1.0  0.73902  0.13514  0.79215  1.0000
  C   C9        1.0  0.77278  0.70097  0.86533  1.0000
  C   C10       1.0  0.33931  0.29907  0.13467  1.0000
  C   C11       1.0  0.47380  0.86533  0.29892  1.0000
  C   C12       1.0  0.63815  0.13463  0.70100  1.0000
  C   C13       1.0  0.90276  0.58420  0.88945  1.0000
  C   C14       1.0  0.37674  0.41578  0.11051  1.0000
  C   C15       1.0  0.48697  0.88946  0.41572  1.0000
  C   C16       1.0  0.79228  0.11053  0.58424  1.0000
  C   C17       1.0  0.10179  0.55694  0.79822  1.0000
  C   C18       1.0  0.45720  0.44308  0.20176  1.0000
  C   C19       1.0  0.65872  0.79822  0.44301  1.0000
  C   C20       1.0  0.90005  0.20176  0.55702  1.0000
  C   C21       1.0  0.07197  0.55361  0.68136  1.0000
  C   C22       1.0  0.30712  0.44646  0.31862  1.0000
  C   C23       1.0  0.62557  0.68136  0.44629  1.0000
  C   C24       1.0  0.75328  0.31858  0.55369  1.0000
  C   C25       1.0  0.94168  0.66955  0.65666  1.0000
  C   C26       1.0  0.26799  0.33054  0.34338  1.0000
  C   C27       1.0  0.61128  0.65667  0.33031  1.0000
  C   C28       1.0  0.59830  0.34331  0.66965  1.0000
  C   C29       1.0  0.04163  0.76114  0.65658  1.0000
  C   C30       1.0  0.45946  0.23896  0.34351  1.0000
  C   C31       1.0  0.80291  0.65660  0.23875  1.0000
  C   C32       1.0  0.69828  0.34339  0.76121  1.0000
  C   C33       1.0  0.20294  0.64752  0.79893  1.0000
  C   C34       1.0  0.64959  0.35251  0.20112  1.0000
  C   C35       1.0  0.85051  0.79891  0.35248  1.0000
  C   C36       1.0  0.00195  0.20104  0.64759  1.0000
  C   C37       1.0  0.74180  0.69746  0.74709  1.0000
  C   C38       1.0  0.18656  0.30261  0.25288  1.0000
  C   C39       1.0  0.43928  0.74713  0.30243  1.0000
  C   C40       1.0  0.48890  0.25286  0.69754  1.0000
  C   C41       1.0  0.18008  0.85121  0.77681  1.0000
  C   C42       1.0  0.80808  0.14870  0.22322  1.0000
  C   C43       1.0  0.03134  0.77684  0.14875  1.0000
  C   C44       1.0  0.95680  0.22316  0.85134  1.0000
  C   C45       1.0  0.57181  0.73038  0.95055  1.0000
  C   C46       1.0  0.25302  0.26963  0.04940  1.0000
  C   C47       1.0  0.30230  0.95059  0.26950  1.0000
  C   C48       1.0  0.52243  0.04939  0.73044  1.0000
  O   O1        1.0  0.17204  0.88170  0.87472  1.0000
  O   O2        1.0  0.92835  0.11820  0.12532  1.0000
  O   O3        1.0  0.05380  0.87471  0.11830  1.0000
  O   O4        1.0  0.04687  0.12524  0.88168  1.0000
  O   O5        1.0  0.27637  0.88476  0.68415  1.0000
  O   O6        1.0  0.84520  0.11501  0.31589  1.0000
  O   O7        1.0  0.16112  0.68416  0.11514  1.0000
  O   O8        1.0  0.96020  0.31579  0.88505  1.0000
  O   O9        1.0  0.48530  0.83054  0.98534  1.0000
  O   O10       1.0  0.30095  0.16943  0.01482  1.0000
  O   O11       1.0  0.31586  0.98540  0.16938  1.0000
  O   O12       1.0  0.47065  0.01464  0.83061  1.0000
  O   O13       1.0  0.49318  0.64847  0.98318  1.0000
  O   O14       1.0  0.12542  0.35162  0.01659  1.0000
  O   O15       1.0  0.14179  0.98325  0.35149  1.0000
  O   O16       1.0  0.47642  0.01676  0.64851  1.0000
