data_image0
_chemical_formula_structural       CuH20C14N8O10
_chemical_formula_sum              "Cu1 H20 C14 N8 O10"
_cell_length_a       8.26421
_cell_length_b       7.89621
_cell_length_c       10.5603
_cell_angle_alpha    122.114
_cell_angle_beta     116.709
_cell_angle_gamma    85.0717

_space_group_name_H-M_alt    "P 1"
_space_group_IT_number       1

loop_
  _space_group_symop_operation_xyz
  'x, y, z'

loop_
  _atom_site_type_symbol
  _atom_site_label
  _atom_site_symmetry_multiplicity
  _atom_site_fract_x
  _atom_site_fract_y
  _atom_site_fract_z
  _atom_site_occupancy
  Cu  Cu1       1.0  1.00000  1.00000  0.99999  1.0000
  H   H1        1.0  0.68079  0.95520  0.32685  1.0000
  H   H2        1.0  0.31919  0.04479  0.67313  1.0000
  H   H3        1.0  0.78540  0.15601  0.29589  1.0000
  H   H4        1.0  0.21460  0.84400  0.70412  1.0000
  H   H5        1.0  0.63403  0.74074  0.75162  1.0000
  H   H6        1.0  0.36598  0.25926  0.24838  1.0000
  H   H7        1.0  0.42073  0.60220  0.44128  1.0000
  H   H8        1.0  0.57926  0.39779  0.55872  1.0000
  H   H9        1.0  0.49300  0.73721  0.30345  1.0000
  H   H10       1.0  0.50698  0.26278  0.69653  1.0000
  H   H11       1.0  0.98269  0.12882  0.78365  1.0000
  H   H12       1.0  0.01729  0.87117  0.21633  1.0000
  H   H13       1.0  0.87456  0.58678  0.58086  1.0000
  H   H14       1.0  0.12544  0.41323  0.41914  1.0000
  H   H15       1.0  0.81046  0.49084  0.36675  1.0000
  H   H16       1.0  0.18955  0.50916  0.63324  1.0000
  H   H17       1.0  0.23366  0.75641  0.96758  1.0000
  H   H18       1.0  0.76634  0.24360  0.03243  1.0000
  H   H19       1.0  0.03243  0.59998  0.82157  1.0000
  H   H20       1.0  0.96757  0.40003  0.17844  1.0000
  C   C1        1.0  0.66135  0.79277  0.68455  1.0000
  C   C2        1.0  0.33867  0.20724  0.31547  1.0000
  C   C3        1.0  0.54370  0.71895  0.51406  1.0000
  C   C4        1.0  0.45630  0.28105  0.48593  1.0000
  C   C5        1.0  0.58311  0.79542  0.43740  1.0000
  C   C6        1.0  0.41688  0.20459  0.56259  1.0000
  C   C7        1.0  0.73988  0.95026  0.53385  1.0000
  C   C8        1.0  0.26011  0.04974  0.46614  1.0000
  C   C9        1.0  0.85636  0.01433  0.70394  1.0000
  C   C10       1.0  0.14363  0.98568  0.29606  1.0000
  C   C11       1.0  0.85483  0.22909  0.53402  1.0000
  C   C12       1.0  0.14516  0.77090  0.46597  1.0000
  C   C13       1.0  0.89812  0.47680  0.47381  1.0000
  C   C14       1.0  0.10187  0.52319  0.52618  1.0000
  N   N1        1.0  0.81632  0.93362  0.77355  1.0000
  N   N2        1.0  0.18369  0.06637  0.22645  1.0000
  N   N3        1.0  0.77254  0.02870  0.45528  1.0000
  N   N4        1.0  0.22746  0.97131  0.54472  1.0000
  N   N5        1.0  0.84008  0.27263  0.42233  1.0000
  N   N6        1.0  0.15993  0.72737  0.57768  1.0000
  N   N7        1.0  0.56177  0.79055  0.00851  1.0000
  N   N8        1.0  0.43825  0.20945  0.99150  1.0000
  O   O1        1.0  0.92803  0.35533  0.69242  1.0000
  O   O2        1.0  0.07196  0.64467  0.30757  1.0000
  O   O3        1.0  0.71571  0.90591  0.08085  1.0000
  O   O4        1.0  0.28430  0.09409  0.91916  1.0000
  O   O5        1.0  0.48151  0.82357  0.09764  1.0000
  O   O6        1.0  0.51851  0.17642  0.90237  1.0000
  O   O7        1.0  0.48891  0.64859  0.85467  1.0000
  O   O8        1.0  0.51110  0.35142  0.14534  1.0000
  O   O9        1.0  0.10030  0.74642  0.89655  1.0000
  O   O10       1.0  0.89971  0.25359  0.10345  1.0000
