data_image0
_chemical_formula_structural       Ag2H38C36N6Cl2
_chemical_formula_sum              "Ag2 H38 C36 N6 Cl2"
_cell_length_a       8.75766
_cell_length_b       9.33692
_cell_length_c       11.0796
_cell_angle_alpha    85.805
_cell_angle_beta     78.3575
_cell_angle_gamma    65.9857

_space_group_name_H-M_alt    "P 1"
_space_group_IT_number       1

loop_
  _space_group_symop_operation_xyz
  'x, y, z'

loop_
  _atom_site_type_symbol
  _atom_site_label
  _atom_site_symmetry_multiplicity
  _atom_site_fract_x
  _atom_site_fract_y
  _atom_site_fract_z
  _atom_site_occupancy
  Ag  Ag1       1.0  0.07691  0.36266  0.08555  1.0000
  Ag  Ag2       1.0  0.92309  0.63734  0.91445  1.0000
  H   H1        1.0  0.81257  0.93552  0.19340  1.0000
  H   H2        1.0  0.18743  0.06448  0.80660  1.0000
  H   H3        1.0  0.00358  0.91108  0.37035  1.0000
  H   H4        1.0  0.99642  0.08893  0.62966  1.0000
  H   H5        1.0  0.77876  0.10564  0.98844  1.0000
  H   H6        1.0  0.22124  0.89436  0.01156  1.0000
  H   H7        1.0  0.85606  0.25705  0.97310  1.0000
  H   H8        1.0  0.14394  0.74294  0.02690  1.0000
  H   H9        1.0  0.70059  0.44605  0.19815  1.0000
  H   H10       1.0  0.29940  0.55395  0.80185  1.0000
  H   H11       1.0  0.40544  0.62407  0.29480  1.0000
  H   H12       1.0  0.59456  0.37593  0.70520  1.0000
  H   H13       1.0  0.15615  0.59193  0.23703  1.0000
  H   H14       1.0  0.84385  0.40807  0.76297  1.0000
  H   H15       1.0  0.47647  0.22237  0.00254  1.0000
  H   H16       1.0  0.52353  0.77763  0.99746  1.0000
  H   H17       1.0  0.10163  0.36535  0.57698  1.0000
  H   H18       1.0  0.89837  0.63465  0.42302  1.0000
  H   H19       1.0  0.55903  0.06527  0.34042  1.0000
  H   H20       1.0  0.44097  0.93473  0.65958  1.0000
  H   H21       1.0  0.82963  0.39898  0.54383  1.0000
  H   H22       1.0  0.17037  0.60102  0.45617  1.0000
  H   H23       1.0  0.81742  0.23231  0.48372  1.0000
  H   H24       1.0  0.18258  0.76769  0.51628  1.0000
  H   H25       1.0  0.82252  0.38884  0.38595  1.0000
  H   H26       1.0  0.17748  0.61116  0.61405  1.0000
  H   H27       1.0  0.46588  0.37292  0.48732  1.0000
  H   H28       1.0  0.53412  0.62708  0.51268  1.0000
  H   H29       1.0  0.57136  0.17599  0.53240  1.0000
  H   H30       1.0  0.42864  0.82401  0.46760  1.0000
  H   H31       1.0  0.38075  0.30451  0.62818  1.0000
  H   H32       1.0  0.61925  0.69549  0.37182  1.0000
  H   H33       1.0  0.36391  0.86870  0.19691  1.0000
  H   H34       1.0  0.63610  0.13130  0.80309  1.0000
  H   H35       1.0  0.54900  0.90665  0.18281  1.0000
  H   H36       1.0  0.45100  0.09335  0.81719  1.0000
  H   H37       1.0  0.37963  0.02704  0.10549  1.0000
  H   H38       1.0  0.62037  0.97296  0.89451  1.0000
  C   C1        1.0  0.99461  0.18814  0.16501  1.0000
  C   C2        1.0  0.00540  0.81186  0.83499  1.0000
  C   C3        1.0  0.87992  0.00599  0.20843  1.0000
  C   C4        1.0  0.12008  0.99401  0.79157  1.0000
  C   C5        1.0  0.97835  0.99027  0.29352  1.0000
  C   C6        1.0  0.02165  0.00973  0.70648  1.0000
  C   C7        1.0  0.78773  0.19854  0.03821  1.0000
  C   C8        1.0  0.21228  0.80146  0.96179  1.0000
  C   C9        1.0  0.61249  0.31483  0.09565  1.0000
  C   C10       1.0  0.38751  0.68517  0.90435  1.0000
  C   C11       1.0  0.59067  0.43172  0.17773  1.0000
  C   C12       1.0  0.40932  0.56828  0.82227  1.0000
  C   C13       1.0  0.42612  0.53247  0.23029  1.0000
  C   C14       1.0  0.57388  0.46752  0.76971  1.0000
  C   C15       1.0  0.28784  0.51586  0.19885  1.0000
  C   C16       1.0  0.71216  0.48414  0.80115  1.0000
  C   C17       1.0  0.46666  0.30887  0.06796  1.0000
  C   C18       1.0  0.53335  0.69113  0.93204  1.0000
  C   C19       1.0  0.14842  0.13786  0.33548  1.0000
  C   C20       1.0  0.85158  0.86214  0.66452  1.0000
  C   C21       1.0  0.06452  0.24515  0.43379  1.0000
  C   C22       1.0  0.93548  0.75485  0.56621  1.0000
  C   C23       1.0  0.16392  0.28463  0.49842  1.0000
  C   C24       1.0  0.83608  0.71537  0.50158  1.0000
  C   C25       1.0  0.34184  0.22236  0.46496  1.0000
  C   C26       1.0  0.65816  0.77765  0.53504  1.0000
  C   C27       1.0  0.42044  0.11611  0.36603  1.0000
  C   C28       1.0  0.57956  0.88389  0.63397  1.0000
  C   C29       1.0  0.32611  0.07216  0.29965  1.0000
  C   C30       1.0  0.67389  0.92784  0.70035  1.0000
  C   C31       1.0  0.87348  0.31968  0.46437  1.0000
  C   C32       1.0  0.12652  0.68032  0.53563  1.0000
  C   C33       1.0  0.44575  0.27124  0.53240  1.0000
  C   C34       1.0  0.55425  0.72876  0.46760  1.0000
  C   C35       1.0  0.41025  0.96264  0.19086  1.0000
  C   C36       1.0  0.58975  0.03736  0.80914  1.0000
  N   N1        1.0  0.89199  0.12673  0.13140  1.0000
  N   N2        1.0  0.10801  0.87327  0.86860  1.0000
  N   N3        1.0  0.04664  0.10230  0.26542  1.0000
  N   N4        1.0  0.95336  0.89770  0.73458  1.0000
  N   N5        1.0  0.30758  0.40683  0.11759  1.0000
  N   N6        1.0  0.69242  0.59317  0.88241  1.0000
  Cl  Cl1       1.0  0.15032  0.34580  0.83748  1.0000
  Cl  Cl2       1.0  0.84967  0.65420  0.16252  1.0000
