data_image0
_chemical_formula_structural       Cu2H28C46N2O10
_chemical_formula_sum              "Cu2 H28 C46 N2 O10"
_cell_length_a       8.03157
_cell_length_b       9.91235
_cell_length_c       12.5417
_cell_angle_alpha    87.091
_cell_angle_beta     75.3112
_cell_angle_gamma    87.7638

_space_group_name_H-M_alt    "P 1"
_space_group_IT_number       1

loop_
  _space_group_symop_operation_xyz
  'x, y, z'

loop_
  _atom_site_type_symbol
  _atom_site_label
  _atom_site_symmetry_multiplicity
  _atom_site_fract_x
  _atom_site_fract_y
  _atom_site_fract_z
  _atom_site_occupancy
  Cu  Cu1       1.0  0.89359  0.06932  0.95339  1.0000
  Cu  Cu2       1.0  0.10641  0.93070  0.04660  1.0000
  H   H1        1.0  0.54829  0.76335  0.91226  1.0000
  H   H2        1.0  0.45171  0.23666  0.08774  1.0000
  H   H3        1.0  0.89999  0.54663  0.07109  1.0000
  H   H4        1.0  0.10000  0.45338  0.92891  1.0000
  H   H5        1.0  0.28468  0.65469  0.89626  1.0000
  H   H6        1.0  0.71531  0.34532  0.10375  1.0000
  H   H7        1.0  0.16194  0.04874  0.62086  1.0000
  H   H8        1.0  0.83806  0.95127  0.37915  1.0000
  H   H9        1.0  0.56382  0.89037  0.76585  1.0000
  H   H10       1.0  0.43618  0.10964  0.23416  1.0000
  H   H11       1.0  0.22549  0.09858  0.41686  1.0000
  H   H12       1.0  0.77452  0.90142  0.58314  1.0000
  H   H13       1.0  0.54542  0.09487  0.87732  1.0000
  H   H14       1.0  0.45458  0.90512  0.12269  1.0000
  H   H15       1.0  0.40885  0.25945  0.76292  1.0000
  H   H16       1.0  0.59114  0.74054  0.23709  1.0000
  H   H17       1.0  0.57060  0.46603  0.67791  1.0000
  H   H18       1.0  0.42940  0.53396  0.32209  1.0000
  H   H19       1.0  0.98617  0.31928  0.81648  1.0000
  H   H20       1.0  0.01383  0.68072  0.18352  1.0000
  H   H21       1.0  0.09880  0.70755  0.69073  1.0000
  H   H22       1.0  0.90120  0.29243  0.30929  1.0000
  H   H23       1.0  0.40454  0.70385  0.59218  1.0000
  H   H24       1.0  0.59546  0.29613  0.40783  1.0000
  H   H25       1.0  0.35128  0.30473  0.48335  1.0000
  H   H26       1.0  0.64870  0.69527  0.51662  1.0000
  H   H27       1.0  0.04610  0.31150  0.57955  1.0000
  H   H28       1.0  0.95388  0.68851  0.42042  1.0000
  C   C1        1.0  0.47687  0.55942  0.97129  1.0000
  C   C2        1.0  0.52312  0.44059  0.02872  1.0000
  C   C3        1.0  0.58623  0.67103  0.95189  1.0000
  C   C4        1.0  0.41377  0.32898  0.04811  1.0000
  C   C5        1.0  0.73570  0.66615  0.98784  1.0000
  C   C6        1.0  0.26430  0.33386  0.01216  1.0000
  C   C7        1.0  0.78210  0.54779  0.04344  1.0000
  C   C8        1.0  0.21790  0.45222  0.95656  1.0000
  C   C9        1.0  0.32128  0.56271  0.93704  1.0000
  C   C10       1.0  0.67871  0.43730  0.06296  1.0000
  C   C11       1.0  0.83926  0.78988  0.97851  1.0000
  C   C12       1.0  0.16077  0.21013  0.02149  1.0000
  C   C13       1.0  0.41165  0.02047  0.50507  1.0000
  C   C14       1.0  0.58835  0.97954  0.49494  1.0000
  C   C15       1.0  0.29573  0.01506  0.61073  1.0000
  C   C16       1.0  0.70427  0.98494  0.38927  1.0000
  C   C17       1.0  0.34970  0.96927  0.70301  1.0000
  C   C18       1.0  0.65030  0.03073  0.29699  1.0000
  C   C19       1.0  0.52358  0.92600  0.69252  1.0000
  C   C20       1.0  0.47642  0.07400  0.30748  1.0000
  C   C21       1.0  0.35986  0.06749  0.40908  1.0000
  C   C22       1.0  0.64015  0.93252  0.59092  1.0000
  C   C23       1.0  0.22420  0.97221  0.81410  1.0000
  C   C24       1.0  0.77582  0.02778  0.18590  1.0000
  C   C25       1.0  0.61253  0.18390  0.83577  1.0000
  C   C26       1.0  0.38747  0.81610  0.16423  1.0000
  C   C27       1.0  0.53727  0.27589  0.77293  1.0000
  C   C28       1.0  0.46273  0.72410  0.22707  1.0000
  C   C29       1.0  0.62663  0.39029  0.72505  1.0000
  C   C30       1.0  0.37337  0.60969  0.27495  1.0000
  C   C31       1.0  0.79160  0.40595  0.73876  1.0000
  C   C32       1.0  0.20840  0.59404  0.26123  1.0000
  C   C33       1.0  0.85887  0.30953  0.80240  1.0000
  C   C34       1.0  0.14113  0.69047  0.19760  1.0000
  C   C35       1.0  0.05356  0.50938  0.64274  1.0000
  C   C36       1.0  0.94643  0.49062  0.35725  1.0000
  C   C37       1.0  0.15605  0.61939  0.64500  1.0000
  C   C38       1.0  0.84395  0.38059  0.35500  1.0000
  C   C39       1.0  0.32965  0.61561  0.58887  1.0000
  C   C40       1.0  0.67034  0.38438  0.41113  1.0000
  C   C41       1.0  0.40745  0.50242  0.52991  1.0000
  C   C42       1.0  0.59254  0.49757  0.47008  1.0000
  C   C43       1.0  0.29989  0.39370  0.52932  1.0000
  C   C44       1.0  0.70010  0.60630  0.47067  1.0000
  C   C45       1.0  0.12603  0.39636  0.58382  1.0000
  C   C46       1.0  0.87395  0.60363  0.41616  1.0000
  N   N1        1.0  0.76975  0.20168  0.85087  1.0000
  N   N2        1.0  0.23026  0.79832  0.14913  1.0000
  O   O1        1.0  0.78317  0.89816  0.93837  1.0000
  O   O2        1.0  0.21684  0.10185  0.06162  1.0000
  O   O3        1.0  0.97308  0.77833  0.01612  1.0000
  O   O4        1.0  0.02694  0.22167  0.98386  1.0000
  O   O5        1.0  0.08083  0.03313  0.81683  1.0000
  O   O6        1.0  0.91918  0.96687  0.18317  1.0000
  O   O7        1.0  0.27154  0.91680  0.89613  1.0000
  O   O8        1.0  0.72847  0.08320  0.10386  1.0000
  O   O9        1.0  0.87981  0.52140  0.69476  1.0000
  O   O10       1.0  0.12019  0.47860  0.30524  1.0000
