data_image0
_chemical_formula_structural       Na4V4H28C20N12O16
_chemical_formula_sum              "Na4 V4 H28 C20 N12 O16"
_cell_length_a       5.48004
_cell_length_b       10.318
_cell_length_c       15.1585
_cell_angle_alpha    102.53
_cell_angle_beta     89.999
_cell_angle_gamma    90.0002

_space_group_name_H-M_alt    "P 1"
_space_group_IT_number       1

loop_
  _space_group_symop_operation_xyz
  'x, y, z'

loop_
  _atom_site_type_symbol
  _atom_site_label
  _atom_site_symmetry_multiplicity
  _atom_site_fract_x
  _atom_site_fract_y
  _atom_site_fract_z
  _atom_site_occupancy
  Na  Na1       1.0  0.77321  0.38323  0.00367  1.0000
  Na  Na2       1.0  0.27321  0.11677  0.99633  1.0000
  Na  Na3       1.0  0.22678  0.61677  0.99633  1.0000
  Na  Na4       1.0  0.72679  0.88323  0.00367  1.0000
  V   V1        1.0  0.66017  0.66176  0.14861  1.0000
  V   V2        1.0  0.16019  0.83824  0.85138  1.0000
  V   V3        1.0  0.33983  0.33824  0.85139  1.0000
  V   V4        1.0  0.83981  0.16176  0.14861  1.0000
  H   H1        1.0  0.51846  0.70634  0.48267  1.0000
  H   H2        1.0  0.01845  0.79365  0.51733  1.0000
  H   H3        1.0  0.48156  0.29365  0.51734  1.0000
  H   H4        1.0  0.98154  0.20635  0.48266  1.0000
  H   H5        1.0  0.62945  0.54482  0.43425  1.0000
  H   H6        1.0  0.12946  0.95517  0.56574  1.0000
  H   H7        1.0  0.37055  0.45517  0.56574  1.0000
  H   H8        1.0  0.87054  0.04483  0.43426  1.0000
  H   H9        1.0  0.12175  0.65056  0.39958  1.0000
  H   H10       1.0  0.62177  0.84944  0.60043  1.0000
  H   H11       1.0  0.87825  0.34944  0.60043  1.0000
  H   H12       1.0  0.37823  0.15057  0.39957  1.0000
  H   H13       1.0  0.18694  0.53207  0.46495  1.0000
  H   H14       1.0  0.68694  0.96792  0.53505  1.0000
  H   H15       1.0  0.81307  0.46792  0.53505  1.0000
  H   H16       1.0  0.31306  0.03209  0.46495  1.0000
  H   H17       1.0  0.33357  0.37085  0.33160  1.0000
  H   H18       1.0  0.83362  0.12915  0.66839  1.0000
  H   H19       1.0  0.66641  0.62914  0.66840  1.0000
  H   H20       1.0  0.16640  0.87086  0.33161  1.0000
  H   H21       1.0  0.04675  0.42984  0.30260  1.0000
  H   H22       1.0  0.54679  0.07017  0.69740  1.0000
  H   H23       1.0  0.95323  0.57017  0.69740  1.0000
  H   H24       1.0  0.45322  0.92984  0.30260  1.0000
  H   H25       1.0  0.18884  0.37640  0.13276  1.0000
  H   H26       1.0  0.68887  0.12361  0.86724  1.0000
  H   H27       1.0  0.81114  0.62361  0.86724  1.0000
  H   H28       1.0  0.31114  0.87640  0.13276  1.0000
  C   C1        1.0  0.35828  0.50326  0.24456  1.0000
  C   C2        1.0  0.85831  0.99674  0.75544  1.0000
  C   C3        1.0  0.64171  0.49674  0.75545  1.0000
  C   C4        1.0  0.14170  0.00326  0.24455  1.0000
  C   C5        1.0  0.59787  0.66952  0.34095  1.0000
  C   C6        1.0  0.09789  0.83048  0.65905  1.0000
  C   C7        1.0  0.40213  0.33047  0.65905  1.0000
  C   C8        1.0  0.90211  0.16953  0.34095  1.0000
  C   C9        1.0  0.50842  0.62501  0.42281  1.0000
  C   C10       1.0  0.00843  0.87498  0.57719  1.0000
  C   C11       1.0  0.49159  0.37498  0.57719  1.0000
  C   C12       1.0  0.99157  0.12502  0.42281  1.0000
  C   C13       1.0  0.24775  0.57032  0.40648  1.0000
  C   C14       1.0  0.74776  0.92968  0.59352  1.0000
  C   C15       1.0  0.75225  0.42968  0.59352  1.0000
  C   C16       1.0  0.25224  0.07033  0.40648  1.0000
  C   C17       1.0  0.23553  0.45937  0.32097  1.0000
  C   C18       1.0  0.73556  0.04064  0.67903  1.0000
  C   C19       1.0  0.76446  0.54063  0.67903  1.0000
  C   C20       1.0  0.26445  0.95937  0.32097  1.0000
  N   N1        1.0  0.31935  0.45074  0.15934  1.0000
  N   N2        1.0  0.81938  0.04927  0.84066  1.0000
  N   N3        1.0  0.68063  0.54927  0.84066  1.0000
  N   N4        1.0  0.18063  0.95073  0.15934  1.0000
  N   N5        1.0  0.52161  0.60278  0.25670  1.0000
  N   N6        1.0  0.02163  0.89722  0.74330  1.0000
  N   N7        1.0  0.47839  0.39722  0.74330  1.0000
  N   N8        1.0  0.97838  0.10278  0.25670  1.0000
  N   N9        1.0  0.74843  0.76685  0.34137  1.0000
  N   N10       1.0  0.24844  0.73314  0.65863  1.0000
  N   N11       1.0  0.25159  0.23314  0.65863  1.0000
  N   N12       1.0  0.75155  0.26685  0.34137  1.0000
  O   O1        1.0  0.79818  0.77568  0.25212  1.0000
  O   O2        1.0  0.29819  0.72432  0.74788  1.0000
  O   O3        1.0  0.20185  0.22431  0.74788  1.0000
  O   O4        1.0  0.70180  0.27568  0.25212  1.0000
  O   O5        1.0  0.51036  0.76657  0.09488  1.0000
  O   O6        1.0  0.01037  0.73343  0.90512  1.0000
  O   O7        1.0  0.48964  0.23343  0.90513  1.0000
  O   O8        1.0  0.98963  0.26657  0.09488  1.0000
  O   O9        1.0  0.45388  0.50247  0.09860  1.0000
  O   O10       1.0  0.95390  0.99753  0.90140  1.0000
  O   O11       1.0  0.54611  0.49753  0.90140  1.0000
  O   O12       1.0  0.04611  0.00247  0.09860  1.0000
  O   O13       1.0  0.90668  0.60120  0.09123  1.0000
  O   O14       1.0  0.40669  0.89879  0.90877  1.0000
  O   O15       1.0  0.09331  0.39879  0.90877  1.0000
  O   O16       1.0  0.59330  0.10120  0.09123  1.0000
