data_image0
_chemical_formula_structural       Na2V2H32C20N12O12
_chemical_formula_sum              "Na2 V2 H32 C20 N12 O12"
_cell_length_a       7.93712
_cell_length_b       8.68657
_cell_length_c       12.1852
_cell_angle_alpha    102.525
_cell_angle_beta     107.523
_cell_angle_gamma    103.729

_space_group_name_H-M_alt    "P 1"
_space_group_IT_number       1

loop_
  _space_group_symop_operation_xyz
  'x, y, z'

loop_
  _atom_site_type_symbol
  _atom_site_label
  _atom_site_symmetry_multiplicity
  _atom_site_fract_x
  _atom_site_fract_y
  _atom_site_fract_z
  _atom_site_occupancy
  Na  Na1       1.0  0.00421  0.54721  0.65590  1.0000
  Na  Na2       1.0  0.99574  0.45277  0.34410  1.0000
  V   V1        1.0  0.47439  0.26026  0.74890  1.0000
  V   V2        1.0  0.52560  0.73973  0.25110  1.0000
  H   H1        1.0  0.57912  0.16754  0.37219  1.0000
  H   H2        1.0  0.42089  0.83247  0.62784  1.0000
  H   H3        1.0  0.54407  0.36259  0.37898  1.0000
  H   H4        1.0  0.45592  0.63741  0.62102  1.0000
  H   H5        1.0  0.25945  0.11427  0.23164  1.0000
  H   H6        1.0  0.74055  0.88574  0.76837  1.0000
  H   H7        1.0  0.21140  0.24133  0.34490  1.0000
  H   H8        1.0  0.78861  0.75868  0.65512  1.0000
  H   H9        1.0  0.27212  0.90318  0.33450  1.0000
  H   H10       1.0  0.72785  0.09681  0.66551  1.0000
  H   H11       1.0  0.06411  0.94912  0.32602  1.0000
  H   H12       1.0  0.93588  0.05090  0.67399  1.0000
  H   H13       1.0  0.99807  0.34431  0.91444  1.0000
  H   H14       1.0  0.00194  0.65572  0.08556  1.0000
  H   H15       1.0  0.20785  0.48080  0.03276  1.0000
  H   H16       1.0  0.79220  0.51920  0.96725  1.0000
  H   H17       1.0  0.08860  0.09751  0.94704  1.0000
  H   H18       1.0  0.91140  0.90247  0.05294  1.0000
  H   H19       1.0  0.10754  0.22659  0.08754  1.0000
  H   H20       1.0  0.89246  0.77342  0.91243  1.0000
  H   H21       1.0  0.45056  0.34555  0.14957  1.0000
  H   H22       1.0  0.54938  0.65448  0.85043  1.0000
  H   H23       1.0  0.39016  0.12475  0.10166  1.0000
  H   H24       1.0  0.60987  0.87527  0.89831  1.0000
  H   H25       1.0  0.83660  0.64900  0.43228  1.0000
  H   H26       1.0  0.16339  0.35103  0.56771  1.0000
  H   H27       1.0  0.03433  0.77820  0.51811  1.0000
  H   H28       1.0  0.96566  0.22179  0.48191  1.0000
  H   H29       1.0  0.24553  0.82916  0.88300  1.0000
  H   H30       1.0  0.75445  0.17082  0.11700  1.0000
  H   H31       1.0  0.21258  0.90263  0.77236  1.0000
  H   H32       1.0  0.78742  0.09735  0.22762  1.0000
  C   C1        1.0  0.54172  0.28271  0.53223  1.0000
  C   C2        1.0  0.45829  0.71730  0.46778  1.0000
  C   C3        1.0  0.49862  0.24580  0.39895  1.0000
  C   C4        1.0  0.50137  0.75421  0.60106  1.0000
  C   C5        1.0  0.28839  0.15476  0.32890  1.0000
  C   C6        1.0  0.71160  0.84525  0.67112  1.0000
  C   C7        1.0  0.21703  0.00188  0.36635  1.0000
  C   C8        1.0  0.78295  0.99813  0.63366  1.0000
  C   C9        1.0  0.27799  0.04913  0.50119  1.0000
  C   C10       1.0  0.72202  0.95088  0.49883  1.0000
  C   C11       1.0  0.24317  0.36067  0.87336  1.0000
  C   C12       1.0  0.75683  0.63934  0.12663  1.0000
  C   C13       1.0  0.14567  0.35945  0.96100  1.0000
  C   C14       1.0  0.85434  0.64057  0.03899  1.0000
  C   C15       1.0  0.16737  0.21949  0.01701  1.0000
  C   C16       1.0  0.83263  0.78049  0.98297  1.0000
  C   C17       1.0  0.37402  0.23202  0.07095  1.0000
  C   C18       1.0  0.62598  0.76801  0.92904  1.0000
  C   C19       1.0  0.45945  0.23878  0.97752  1.0000
  C   C20       1.0  0.54054  0.76128  0.02249  1.0000
  N   N1        1.0  0.43214  0.18378  0.57446  1.0000
  N   N2        1.0  0.56785  0.81623  0.42556  1.0000
  N   N3        1.0  0.67952  0.40780  0.61711  1.0000
  N   N4        1.0  0.32052  0.59216  0.38291  1.0000
  N   N5        1.0  0.19231  0.97101  0.55887  1.0000
  N   N6        1.0  0.80767  0.02894  0.44111  1.0000
  N   N7        1.0  0.39301  0.30381  0.88762  1.0000
  N   N8        1.0  0.60705  0.69626  0.11240  1.0000
  N   N9        1.0  0.19378  0.40992  0.77850  1.0000
  N   N10       1.0  0.80624  0.59001  0.22145  1.0000
  N   N11       1.0  0.59472  0.17988  0.97093  1.0000
  N   N12       1.0  0.40526  0.82011  0.02907  1.0000
  O   O1        1.0  0.67320  0.40268  0.73001  1.0000
  O   O2        1.0  0.32690  0.59732  0.27000  1.0000
  O   O3        1.0  0.28299  0.04777  0.68394  1.0000
  O   O4        1.0  0.71704  0.95218  0.31609  1.0000
  O   O5        1.0  0.31476  0.39124  0.71586  1.0000
  O   O6        1.0  0.68523  0.60869  0.28413  1.0000
  O   O7        1.0  0.63197  0.20003  0.86893  1.0000
  O   O8        1.0  0.36798  0.79995  0.13104  1.0000
  O   O9        1.0  0.95069  0.66168  0.49984  1.0000
  O   O10       1.0  0.04927  0.33832  0.50016  1.0000
  O   O11       1.0  0.15832  0.81171  0.80012  1.0000
  O   O12       1.0  0.84167  0.18829  0.19987  1.0000
