data_image0
_chemical_formula_structural       Cu4H64C64S8I4
_chemical_formula_sum              "Cu4 H64 C64 S8 I4"
_cell_length_a       11.561
_cell_length_b       12.1333
_cell_length_c       12.3534
_cell_angle_alpha    109.636
_cell_angle_beta     92.1686
_cell_angle_gamma    91.6367

_space_group_name_H-M_alt    "P 1"
_space_group_IT_number       1

loop_
  _space_group_symop_operation_xyz
  'x, y, z'

loop_
  _atom_site_type_symbol
  _atom_site_label
  _atom_site_symmetry_multiplicity
  _atom_site_fract_x
  _atom_site_fract_y
  _atom_site_fract_z
  _atom_site_occupancy
  Cu  Cu1       1.0  0.06982  0.41623  0.48853  1.0000
  Cu  Cu2       1.0  0.93018  0.58377  0.51147  1.0000
  Cu  Cu3       1.0  0.43260  0.40310  0.94393  1.0000
  Cu  Cu4       1.0  0.56740  0.59690  0.05607  1.0000
  H   H1        1.0  0.54350  0.20768  0.27427  1.0000
  H   H2        1.0  0.45650  0.79232  0.72573  1.0000
  H   H3        1.0  0.60719  0.11184  0.41327  1.0000
  H   H4        1.0  0.39281  0.88816  0.58673  1.0000
  H   H5        1.0  0.81488  0.11176  0.46879  1.0000
  H   H6        1.0  0.18512  0.88825  0.53122  1.0000
  H   H7        1.0  0.89896  0.31042  0.24774  1.0000
  H   H8        1.0  0.10103  0.68958  0.75226  1.0000
  H   H9        1.0  0.69016  0.30915  0.19253  1.0000
  H   H10       1.0  0.30984  0.69085  0.80747  1.0000
  H   H11       1.0  0.12555  0.19494  0.54872  1.0000
  H   H12       1.0  0.87445  0.80505  0.45129  1.0000
  H   H13       1.0  0.97677  0.20238  0.57836  1.0000
  H   H14       1.0  0.02323  0.79762  0.42164  1.0000
  H   H15       1.0  0.08533  0.98490  0.40329  1.0000
  H   H16       1.0  0.91467  0.01510  0.59671  1.0000
  H   H17       1.0  0.27802  0.27038  0.33375  1.0000
  H   H18       1.0  0.72198  0.72962  0.66625  1.0000
  H   H19       1.0  0.35192  0.29830  0.68676  1.0000
  H   H20       1.0  0.64808  0.70170  0.31324  1.0000
  H   H21       1.0  0.40462  0.08983  0.62349  1.0000
  H   H22       1.0  0.59539  0.91017  0.37651  1.0000
  H   H23       1.0  0.39458  0.97087  0.41314  1.0000
  H   H24       1.0  0.60543  0.02913  0.58686  1.0000
  H   H25       1.0  0.33484  0.06282  0.26918  1.0000
  H   H26       1.0  0.66516  0.93718  0.73082  1.0000
  H   H27       1.0  0.32285  0.47090  0.39715  1.0000
  H   H28       1.0  0.67715  0.52910  0.60286  1.0000
  H   H29       1.0  0.29237  0.60046  0.51065  1.0000
  H   H30       1.0  0.70763  0.39954  0.48934  1.0000
  H   H31       1.0  0.47809  0.58484  0.62105  1.0000
  H   H32       1.0  0.52190  0.41516  0.37896  1.0000
  H   H33       1.0  0.19455  0.13805  0.77396  1.0000
  H   H34       1.0  0.80545  0.86195  0.22604  1.0000
  H   H35       1.0  0.14510  0.97391  0.84354  1.0000
  H   H36       1.0  0.85490  0.02609  0.15646  1.0000
  H   H37       1.0  0.10819  0.01455  0.05150  1.0000
  H   H38       1.0  0.89181  0.98545  0.94850  1.0000
  H   H39       1.0  0.12045  0.21965  0.18729  1.0000
  H   H40       1.0  0.87955  0.78035  0.81271  1.0000
  H   H41       1.0  0.17525  0.38235  0.12021  1.0000
  H   H42       1.0  0.82475  0.61765  0.87979  1.0000
  H   H43       1.0  0.19502  0.53265  0.07011  1.0000
  H   H44       1.0  0.80498  0.46735  0.92990  1.0000
  H   H45       1.0  0.20225  0.58097  0.95014  1.0000
  H   H46       1.0  0.79776  0.41903  0.04985  1.0000
  H   H47       1.0  0.00521  0.48238  0.87072  1.0000
  H   H48       1.0  0.99480  0.51762  0.12928  1.0000
  H   H49       1.0  0.51829  0.20580  0.07336  1.0000
  H   H50       1.0  0.48171  0.79420  0.92664  1.0000
  H   H51       1.0  0.37054  0.18292  0.02613  1.0000
  H   H52       1.0  0.62946  0.81708  0.97386  1.0000
  H   H53       1.0  0.40837  0.97217  0.89924  1.0000
  H   H54       1.0  0.59163  0.02783  0.10075  1.0000
  H   H55       1.0  0.59628  0.24933  0.70606  1.0000
  H   H56       1.0  0.40372  0.75067  0.29394  1.0000
  H   H57       1.0  0.80293  0.25900  0.66635  1.0000
  H   H58       1.0  0.19707  0.74100  0.33365  1.0000
  H   H59       1.0  0.95475  0.21841  0.79701  1.0000
  H   H60       1.0  0.04525  0.78159  0.20299  1.0000
  H   H61       1.0  0.89512  0.16893  0.96653  1.0000
  H   H62       1.0  0.10487  0.83107  0.03347  1.0000
  H   H63       1.0  0.68807  0.15549  0.00545  1.0000
  H   H64       1.0  0.31193  0.84451  0.99455  1.0000
  C   C1        1.0  0.63549  0.20719  0.29690  1.0000
  C   C2        1.0  0.36451  0.79281  0.70310  1.0000
  C   C3        1.0  0.67136  0.15360  0.37545  1.0000
  C   C4        1.0  0.32864  0.84640  0.62455  1.0000
  C   C5        1.0  0.78866  0.15463  0.40793  1.0000
  C   C6        1.0  0.21134  0.84538  0.59207  1.0000
  C   C7        1.0  0.87084  0.21043  0.36112  1.0000
  C   C8        1.0  0.12916  0.78957  0.63888  1.0000
  C   C9        1.0  0.83508  0.26416  0.28150  1.0000
  C   C10       1.0  0.16492  0.73584  0.71850  1.0000
  C   C11       1.0  0.71782  0.26291  0.25045  1.0000
  C   C12       1.0  0.28218  0.73709  0.74956  1.0000
  C   C13       1.0  0.03816  0.16067  0.51255  1.0000
  C   C14       1.0  0.96184  0.83933  0.48745  1.0000
  C   C15       1.0  0.03190  0.03046  0.47475  1.0000
  C   C16       1.0  0.96810  0.96955  0.52525  1.0000
  C   C17       1.0  0.30726  0.23088  0.39678  1.0000
  C   C18       1.0  0.69274  0.76912  0.60322  1.0000
  C   C19       1.0  0.30988  0.29621  0.51465  1.0000
  C   C20       1.0  0.69012  0.70379  0.48535  1.0000
  C   C21       1.0  0.34756  0.24568  0.59565  1.0000
  C   C22       1.0  0.65244  0.75432  0.40435  1.0000
  C   C23       1.0  0.37776  0.12866  0.55918  1.0000
  C   C24       1.0  0.62224  0.87134  0.44082  1.0000
  C   C25       1.0  0.37288  0.06273  0.44201  1.0000
  C   C26       1.0  0.62712  0.93727  0.55798  1.0000
  C   C27       1.0  0.33886  0.11441  0.36077  1.0000
  C   C28       1.0  0.66115  0.88559  0.63923  1.0000
  C   C29       1.0  0.33539  0.51690  0.49018  1.0000
  C   C30       1.0  0.66461  0.48310  0.50982  1.0000
  C   C31       1.0  0.45817  0.52955  0.53179  1.0000
  C   C32       1.0  0.54183  0.47045  0.46821  1.0000
  C   C33       1.0  0.18871  0.27093  0.94246  1.0000
  C   C34       1.0  0.81129  0.72907  0.05754  1.0000
  C   C35       1.0  0.17922  0.15552  0.86473  1.0000
  C   C36       1.0  0.82078  0.84448  0.13527  1.0000
  C   C37       1.0  0.15113  0.06338  0.90419  1.0000
  C   C38       1.0  0.84887  0.93662  0.09581  1.0000
  C   C39       1.0  0.13043  0.08599  0.02035  1.0000
  C   C40       1.0  0.86958  0.91401  0.97965  1.0000
  C   C41       1.0  0.13767  0.20117  0.09681  1.0000
  C   C42       1.0  0.86233  0.79883  0.90319  1.0000
  C   C43       1.0  0.16750  0.29362  0.05871  1.0000
  C   C44       1.0  0.83251  0.70638  0.94129  1.0000
  C   C45       1.0  0.16543  0.51201  0.97964  1.0000
  C   C46       1.0  0.83457  0.48799  0.02036  1.0000
  C   C47       1.0  0.03725  0.49807  0.95934  1.0000
  C   C48       1.0  0.96275  0.50193  0.04066  1.0000
  C   C49       1.0  0.45835  0.15492  0.00179  1.0000
  C   C50       1.0  0.54165  0.84508  0.99821  1.0000
  C   C51       1.0  0.46549  0.02569  0.97161  1.0000
  C   C52       1.0  0.53451  0.97431  0.02839  1.0000
  C   C53       1.0  0.62793  0.20129  0.85800  1.0000
  C   C54       1.0  0.37207  0.79871  0.14200  1.0000
  C   C55       1.0  0.66155  0.22859  0.76152  1.0000
  C   C56       1.0  0.33844  0.77141  0.23848  1.0000
  C   C57       1.0  0.77837  0.23363  0.73934  1.0000
  C   C58       1.0  0.22163  0.76637  0.26066  1.0000
  C   C59       1.0  0.86305  0.21164  0.81242  1.0000
  C   C60       1.0  0.13695  0.78836  0.18758  1.0000
  C   C61       1.0  0.82936  0.18383  0.90786  1.0000
  C   C62       1.0  0.17064  0.81617  0.09214  1.0000
  C   C63       1.0  0.71228  0.17776  0.93089  1.0000
  C   C64       1.0  0.28772  0.82224  0.06911  1.0000
  S   S1        1.0  0.02172  0.21996  0.39574  1.0000
  S   S2        1.0  0.97828  0.78004  0.60426  1.0000
  S   S3        1.0  0.25327  0.43809  0.56772  1.0000
  S   S4        1.0  0.74673  0.56191  0.43228  1.0000
  S   S5        1.0  0.23624  0.38225  0.88947  1.0000
  S   S6        1.0  0.76376  0.61775  0.11053  1.0000
  S   S7        1.0  0.47764  0.20578  0.88007  1.0000
  S   S8        1.0  0.52235  0.79421  0.11993  1.0000
  I   I1        1.0  0.06622  0.52235  0.33742  1.0000
  I   I2        1.0  0.93378  0.47765  0.66258  1.0000
  I   I3        1.0  0.53721  0.52102  0.83166  1.0000
  I   I4        1.0  0.46279  0.47898  0.16834  1.0000
