data_image0
_chemical_formula_structural       Cu4H64C64S8Br4
_chemical_formula_sum              "Cu4 H64 C64 S8 Br4"
_cell_length_a       11.4475
_cell_length_b       11.9466
_cell_length_c       12.0584
_cell_angle_alpha    109.561
_cell_angle_beta     91.4089
_cell_angle_gamma    93.1668

_space_group_name_H-M_alt    "P 1"
_space_group_IT_number       1

loop_
  _space_group_symop_operation_xyz
  'x, y, z'

loop_
  _atom_site_type_symbol
  _atom_site_label
  _atom_site_symmetry_multiplicity
  _atom_site_fract_x
  _atom_site_fract_y
  _atom_site_fract_z
  _atom_site_occupancy
  Cu  Cu1       1.0  0.57733  0.98434  0.91582  1.0000
  Cu  Cu2       1.0  0.42267  0.01567  0.08418  1.0000
  Cu  Cu3       1.0  0.92838  0.43231  0.89921  1.0000
  Cu  Cu4       1.0  0.07162  0.56770  0.10079  1.0000
  H   H1        1.0  0.00437  0.88996  0.03919  1.0000
  H   H2        1.0  0.99563  0.11004  0.96081  1.0000
  H   H3        1.0  0.79554  0.96507  0.08450  1.0000
  H   H4        1.0  0.20446  0.03494  0.91550  1.0000
  H   H5        1.0  0.80435  0.85256  0.94826  1.0000
  H   H6        1.0  0.19565  0.14744  0.05174  1.0000
  H   H7        1.0  0.85739  0.17721  0.79585  1.0000
  H   H8        1.0  0.14261  0.82279  0.20415  1.0000
  H   H9        1.0  0.89873  0.12050  0.58355  1.0000
  H   H10       1.0  0.10127  0.87950  0.41645  1.0000
  H   H11       1.0  0.88481  0.90533  0.45677  1.0000
  H   H12       1.0  0.11519  0.09468  0.54323  1.0000
  H   H13       1.0  0.83175  0.74979  0.54473  1.0000
  H   H14       1.0  0.16825  0.25021  0.45527  1.0000
  H   H15       1.0  0.78530  0.80721  0.75540  1.0000
  H   H16       1.0  0.21470  0.19279  0.24460  1.0000
  H   H17       1.0  0.47964  0.08157  0.70396  1.0000
  H   H18       1.0  0.52036  0.91844  0.29604  1.0000
  H   H19       1.0  0.62876  0.04845  0.69501  1.0000
  H   H20       1.0  0.37124  0.95155  0.30499  1.0000
  H   H21       1.0  0.58371  0.89932  0.48412  1.0000
  H   H22       1.0  0.41629  0.10069  0.51588  1.0000
  H   H23       1.0  0.39253  0.74685  0.82198  1.0000
  H   H24       1.0  0.60747  0.25315  0.17802  1.0000
  H   H25       1.0  0.17982  0.70175  0.83504  1.0000
  H   H26       1.0  0.82018  0.29825  0.16496  1.0000
  H   H27       1.0  0.03284  0.79245  0.74144  1.0000
  H   H28       1.0  0.96716  0.20755  0.25855  1.0000
  H   H29       1.0  0.09933  0.92536  0.63196  1.0000
  H   H30       1.0  0.90067  0.07464  0.36804  1.0000
  H   H31       1.0  0.31069  0.97078  0.61734  1.0000
  H   H32       1.0  0.68931  0.02921  0.38266  1.0000
  H   H33       1.0  0.90963  0.39251  0.47224  1.0000
  H   H34       1.0  0.09036  0.60749  0.52776  1.0000
  H   H35       1.0  0.87296  0.52430  0.68526  1.0000
  H   H36       1.0  0.12704  0.47570  0.31474  1.0000
  H   H37       1.0  0.02292  0.57367  0.70653  1.0000
  H   H38       1.0  0.97708  0.42632  0.29347  1.0000
  H   H39       1.0  0.19306  0.49847  0.64831  1.0000
  H   H40       1.0  0.80694  0.50153  0.35169  1.0000
  H   H41       1.0  0.40209  0.46080  0.66537  1.0000
  H   H42       1.0  0.59791  0.53920  0.33464  1.0000
  H   H43       1.0  0.46007  0.29558  0.73147  1.0000
  H   H44       1.0  0.53993  0.70442  0.26852  1.0000
  H   H45       1.0  0.30624  0.16891  0.78609  1.0000
  H   H46       1.0  0.69376  0.83109  0.21392  1.0000
  H   H47       1.0  0.09734  0.20657  0.77176  1.0000
  H   H48       1.0  0.90266  0.79343  0.22823  1.0000
  H   H49       1.0  0.69691  0.43498  0.08043  1.0000
  H   H50       1.0  0.30309  0.56502  0.91957  1.0000
  H   H51       1.0  0.70007  0.56293  0.03713  1.0000
  H   H52       1.0  0.29993  0.43708  0.96287  1.0000
  H   H53       1.0  0.49566  0.36576  0.98289  1.0000
  H   H54       1.0  0.50434  0.63424  0.01712  1.0000
  H   H55       1.0  0.69298  0.26446  0.63443  1.0000
  H   H56       1.0  0.30702  0.73554  0.36557  1.0000
  H   H57       1.0  0.64555  0.34089  0.47231  1.0000
  H   H58       1.0  0.35445  0.65911  0.52769  1.0000
  H   H59       1.0  0.60828  0.55631  0.51842  1.0000
  H   H60       1.0  0.39172  0.44369  0.48159  1.0000
  H   H61       1.0  0.61796  0.69139  0.72625  1.0000
  H   H62       1.0  0.38204  0.30861  0.27375  1.0000
  H   H63       1.0  0.67246  0.61818  0.88742  1.0000
  H   H64       1.0  0.32754  0.38182  0.11258  1.0000
  C   C1        1.0  0.96570  0.95835  0.01096  1.0000
  C   C2        1.0  0.03430  0.04165  0.98904  1.0000
  C   C3        1.0  0.83549  0.94500  0.99839  1.0000
  C   C4        1.0  0.16452  0.05500  0.00161  1.0000
  C   C5        1.0  0.81654  0.99621  0.78818  1.0000
  C   C6        1.0  0.18346  0.00379  0.21182  1.0000
  C   C7        1.0  0.85052  0.08384  0.73973  1.0000
  C   C8        1.0  0.14948  0.91616  0.26027  1.0000
  C   C9        1.0  0.87431  0.05117  0.62045  1.0000
  C   C10       1.0  0.12569  0.94883  0.37955  1.0000
  C   C11       1.0  0.86717  0.93125  0.54999  1.0000
  C   C12       1.0  0.13283  0.06875  0.45001  1.0000
  C   C13       1.0  0.83696  0.84359  0.59937  1.0000
  C   C14       1.0  0.16304  0.15641  0.40063  1.0000
  C   C15       1.0  0.81108  0.87571  0.71796  1.0000
  C   C16       1.0  0.18892  0.12429  0.28205  1.0000
  C   C17       1.0  0.53933  0.01257  0.66146  1.0000
  C   C18       1.0  0.46067  0.98743  0.33854  1.0000
  C   C19       1.0  0.53170  0.97370  0.53043  1.0000
  C   C20       1.0  0.46830  0.02630  0.46957  1.0000
  C   C21       1.0  0.36557  0.86174  0.71887  1.0000
  C   C22       1.0  0.63443  0.13826  0.28113  1.0000
  C   C23       1.0  0.32809  0.78345  0.77777  1.0000
  C   C24       1.0  0.67191  0.21655  0.22223  1.0000
  C   C25       1.0  0.20877  0.75845  0.78504  1.0000
  C   C26       1.0  0.79123  0.24155  0.21496  1.0000
  C   C27       1.0  0.12599  0.80949  0.73293  1.0000
  C   C28       1.0  0.87401  0.19051  0.26707  1.0000
  C   C29       1.0  0.16361  0.88515  0.67250  1.0000
  C   C30       1.0  0.83640  0.11485  0.32750  1.0000
  C   C31       1.0  0.28304  0.91167  0.66488  1.0000
  C   C32       1.0  0.71696  0.08833  0.33512  1.0000
  C   C33       1.0  0.96639  0.46921  0.52597  1.0000
  C   C34       1.0  0.03361  0.53079  0.47403  1.0000
  C   C35       1.0  0.96110  0.49961  0.65610  1.0000
  C   C36       1.0  0.03890  0.50039  0.34390  1.0000
  C   C37       1.0  0.13109  0.35409  0.70790  1.0000
  C   C38       1.0  0.86891  0.64591  0.29210  1.0000
  C   C39       1.0  0.21700  0.42569  0.67765  1.0000
  C   C40       1.0  0.78300  0.57431  0.32235  1.0000
  C   C41       1.0  0.33495  0.40330  0.68589  1.0000
  C   C42       1.0  0.66505  0.59670  0.31411  1.0000
  C   C43       1.0  0.36776  0.31023  0.72294  1.0000
  C   C44       1.0  0.63223  0.68977  0.27706  1.0000
  C   C45       1.0  0.28169  0.23918  0.75295  1.0000
  C   C46       1.0  0.71832  0.76081  0.24704  1.0000
  C   C47       1.0  0.16394  0.26040  0.74545  1.0000
  C   C48       1.0  0.83606  0.73960  0.25455  1.0000
  C   C49       1.0  0.66401  0.47048  0.01333  1.0000
  C   C50       1.0  0.33599  0.52952  0.98667  1.0000
  C   C51       1.0  0.53411  0.45592  0.99868  1.0000
  C   C52       1.0  0.46589  0.54408  0.00132  1.0000
  C   C53       1.0  0.68676  0.43624  0.77152  1.0000
  C   C54       1.0  0.31324  0.56376  0.22848  1.0000
  C   C55       1.0  0.67800  0.35844  0.65421  1.0000
  C   C56       1.0  0.32199  0.64155  0.34579  1.0000
  C   C57       1.0  0.65091  0.40175  0.56315  1.0000
  C   C58       1.0  0.34909  0.59825  0.43685  1.0000
  C   C59       1.0  0.63012  0.52184  0.58872  1.0000
  C   C60       1.0  0.36988  0.47815  0.41128  1.0000
  C   C61       1.0  0.63617  0.59817  0.70571  1.0000
  C   C62       1.0  0.36383  0.40183  0.29429  1.0000
  C   C63       1.0  0.66551  0.55657  0.79721  1.0000
  C   C64       1.0  0.33449  0.44343  0.20279  1.0000
  S   S1        1.0  0.76918  0.04599  0.93527  1.0000
  S   S2        1.0  0.23082  0.95402  0.06473  1.0000
  S   S3        1.0  0.51912  0.89157  0.72093  1.0000
  S   S4        1.0  0.48088  0.10843  0.27907  1.0000
  S   S5        1.0  0.97904  0.37299  0.70601  1.0000
  S   S6        1.0  0.02096  0.62701  0.29400  1.0000
  S   S7        1.0  0.73211  0.37737  0.88100  1.0000
  S   S8        1.0  0.26789  0.62263  0.11900  1.0000
  Br  Br1       1.0  0.54712  0.84366  0.02289  1.0000
  Br  Br2       1.0  0.45288  0.15634  0.97711  1.0000
  Br  Br3       1.0  0.03639  0.34753  0.02513  1.0000
  Br  Br4       1.0  0.96361  0.65247  0.97487  1.0000
