data_image0
_chemical_formula_structural       Cu8H16C24N4Cl4O8
_chemical_formula_sum              "Cu8 H16 C24 N4 Cl4 O8"
_cell_length_a       3.60684
_cell_length_b       10.3924
_cell_length_c       18.8814
_cell_angle_alpha    90.0017
_cell_angle_beta     90.0004
_cell_angle_gamma    90.0001

_space_group_name_H-M_alt    "P 1"
_space_group_IT_number       1

loop_
  _space_group_symop_operation_xyz
  'x, y, z'

loop_
  _atom_site_type_symbol
  _atom_site_label
  _atom_site_symmetry_multiplicity
  _atom_site_fract_x
  _atom_site_fract_y
  _atom_site_fract_z
  _atom_site_occupancy
  Cu  Cu1       1.0  0.04506  0.15401  0.50191  1.0000
  Cu  Cu2       1.0  0.45495  0.84600  0.00191  1.0000
  Cu  Cu3       1.0  0.95494  0.65400  0.99809  1.0000
  Cu  Cu4       1.0  0.54506  0.34600  0.49809  1.0000
  Cu  Cu5       1.0  0.36767  0.68046  0.45685  1.0000
  Cu  Cu6       1.0  0.13236  0.31955  0.95685  1.0000
  Cu  Cu7       1.0  0.63232  0.18045  0.04315  1.0000
  Cu  Cu8       1.0  0.86765  0.81955  0.54315  1.0000
  H   H1        1.0  0.52639  0.45932  0.71284  1.0000
  H   H2        1.0  0.97366  0.54068  0.21284  1.0000
  H   H3        1.0  0.47364  0.95931  0.78716  1.0000
  H   H4        1.0  0.02637  0.04068  0.28716  1.0000
  H   H5        1.0  0.47598  0.47153  0.84572  1.0000
  H   H6        1.0  0.02400  0.52848  0.34572  1.0000
  H   H7        1.0  0.52402  0.97152  0.65428  1.0000
  H   H8        1.0  0.97595  0.02847  0.15428  1.0000
  H   H9        1.0  0.95581  0.11633  0.85507  1.0000
  H   H10       1.0  0.54412  0.88369  0.35507  1.0000
  H   H11       1.0  0.04417  0.61632  0.64493  1.0000
  H   H12       1.0  0.45579  0.38368  0.14494  1.0000
  H   H13       1.0  0.98452  0.09168  0.72282  1.0000
  H   H14       1.0  0.51551  0.90833  0.22282  1.0000
  H   H15       1.0  0.01549  0.59166  0.77718  1.0000
  H   H16       1.0  0.48451  0.40834  0.27719  1.0000
  C   C1        1.0  0.27049  0.26392  0.62891  1.0000
  C   C2        1.0  0.22953  0.73608  0.12891  1.0000
  C   C3        1.0  0.72953  0.76391  0.87109  1.0000
  C   C4        1.0  0.77047  0.23609  0.37109  1.0000
  C   C5        1.0  0.25437  0.27462  0.70748  1.0000
  C   C6        1.0  0.24565  0.72538  0.20749  1.0000
  C   C7        1.0  0.74565  0.77461  0.79251  1.0000
  C   C8        1.0  0.75436  0.22539  0.29252  1.0000
  C   C9        1.0  0.39509  0.38242  0.74285  1.0000
  C   C10       1.0  0.10490  0.61756  0.24285  1.0000
  C   C11       1.0  0.60491  0.88243  0.75715  1.0000
  C   C12       1.0  0.89508  0.11758  0.25715  1.0000
  C   C13       1.0  0.36679  0.38965  0.81609  1.0000
  C   C14       1.0  0.13322  0.61036  0.31608  1.0000
  C   C15       1.0  0.63322  0.88963  0.68392  1.0000
  C   C16       1.0  0.86677  0.11035  0.18392  1.0000
  C   C17       1.0  0.07716  0.19042  0.82136  1.0000
  C   C18       1.0  0.42283  0.80959  0.32137  1.0000
  C   C19       1.0  0.92284  0.69041  0.67863  1.0000
  C   C20       1.0  0.57714  0.30958  0.17864  1.0000
  C   C21       1.0  0.09598  0.17690  0.74843  1.0000
  C   C22       1.0  0.40401  0.82309  0.24843  1.0000
  C   C23       1.0  0.90400  0.67690  0.75157  1.0000
  C   C24       1.0  0.59598  0.32310  0.25158  1.0000
  N   N1        1.0  0.20576  0.29596  0.85541  1.0000
  N   N2        1.0  0.29422  0.70404  0.35540  1.0000
  N   N3        1.0  0.79422  0.79595  0.64459  1.0000
  N   N4        1.0  0.70574  0.20404  0.14459  1.0000
  Cl  Cl1       1.0  0.35036  0.91999  0.49008  1.0000
  Cl  Cl2       1.0  0.14962  0.08002  0.99007  1.0000
  Cl  Cl3       1.0  0.64964  0.41998  0.00993  1.0000
  Cl  Cl4       1.0  0.85037  0.58002  0.50992  1.0000
  O   O1        1.0  0.11817  0.16488  0.60108  1.0000
  O   O2        1.0  0.38187  0.83513  0.10107  1.0000
  O   O3        1.0  0.88186  0.66486  0.89893  1.0000
  O   O4        1.0  0.61816  0.33513  0.39893  1.0000
  O   O5        1.0  0.43419  0.35456  0.59578  1.0000
  O   O6        1.0  0.06585  0.64544  0.09578  1.0000
  O   O7        1.0  0.56585  0.85455  0.90422  1.0000
  O   O8        1.0  0.93416  0.14544  0.40422  1.0000
