data_image0
_chemical_formula_structural       Cu2H16C4N24Cl4
_chemical_formula_sum              "Cu2 H16 C4 N24 Cl4"
_cell_length_a       6.49741
_cell_length_b       6.5585
_cell_length_c       12.2657
_cell_angle_alpha    90.0281
_cell_angle_beta     92.8072
_cell_angle_gamma    89.8857

_space_group_name_H-M_alt    "P 1"
_space_group_IT_number       1

loop_
  _space_group_symop_operation_xyz
  'x, y, z'

loop_
  _atom_site_type_symbol
  _atom_site_label
  _atom_site_symmetry_multiplicity
  _atom_site_fract_x
  _atom_site_fract_y
  _atom_site_fract_z
  _atom_site_occupancy
  Cu  Cu1       1.0  1.00000  0.00000  0.00000  1.0000
  Cu  Cu2       1.0  0.00000  0.50000  0.50000  1.0000
  H   H1        1.0  0.57933  0.34492  0.59391  1.0000
  H   H2        1.0  0.42068  0.84455  0.90600  1.0000
  H   H3        1.0  0.42067  0.65508  0.40608  1.0000
  H   H4        1.0  0.57932  0.15545  0.09400  1.0000
  H   H5        1.0  0.68785  0.12956  0.54836  1.0000
  H   H6        1.0  0.31251  0.62972  0.95156  1.0000
  H   H7        1.0  0.31214  0.87044  0.45164  1.0000
  H   H8        1.0  0.68749  0.37028  0.04844  1.0000
  H   H9        1.0  0.20992  0.14058  0.77898  1.0000
  H   H10       1.0  0.79002  0.64056  0.72113  1.0000
  H   H11       1.0  0.79008  0.85943  0.22102  1.0000
  H   H12       1.0  0.20998  0.35944  0.27887  1.0000
  H   H13       1.0  0.10184  0.16316  0.64622  1.0000
  H   H14       1.0  0.89819  0.66317  0.85386  1.0000
  H   H15       1.0  0.89815  0.83684  0.35378  1.0000
  H   H16       1.0  0.10181  0.33684  0.14614  1.0000
  C   C1        1.0  0.89598  0.12892  0.76580  1.0000
  C   C2        1.0  0.10404  0.62886  0.73418  1.0000
  C   C3        1.0  0.10401  0.87108  0.23420  1.0000
  C   C4        1.0  0.89596  0.37114  0.26582  1.0000
  N   N1        1.0  0.71846  0.17267  0.70709  1.0000
  N   N2        1.0  0.28158  0.67249  0.79280  1.0000
  N   N3        1.0  0.28153  0.82733  0.29291  1.0000
  N   N4        1.0  0.71842  0.32751  0.20720  1.0000
  N   N5        1.0  0.55430  0.14087  0.77056  1.0000
  N   N6        1.0  0.44566  0.64070  0.72917  1.0000
  N   N7        1.0  0.44569  0.85913  0.22944  1.0000
  N   N8        1.0  0.55435  0.35930  0.27083  1.0000
  N   N9        1.0  0.62913  0.08442  0.86506  1.0000
  N   N10       1.0  0.37078  0.58429  0.63469  1.0000
  N   N11       1.0  0.37087  0.91558  0.13494  1.0000
  N   N12       1.0  0.62922  0.41571  0.36531  1.0000
  N   N13       1.0  0.83815  0.07325  0.86567  1.0000
  N   N14       1.0  0.16183  0.57314  0.63424  1.0000
  N   N15       1.0  0.16184  0.92675  0.13433  1.0000
  N   N16       1.0  0.83817  0.42686  0.36576  1.0000
  N   N17       1.0  0.70549  0.24964  0.60199  1.0000
  N   N18       1.0  0.29460  0.74967  0.89792  1.0000
  N   N19       1.0  0.29451  0.75036  0.39801  1.0000
  N   N20       1.0  0.70540  0.25033  0.10208  1.0000
  N   N21       1.0  0.08325  0.13084  0.72706  1.0000
  N   N22       1.0  0.91684  0.63100  0.77298  1.0000
  N   N23       1.0  0.91674  0.86917  0.27294  1.0000
  N   N24       1.0  0.08316  0.36900  0.22702  1.0000
  Cl  Cl1       1.0  0.20635  0.28500  0.97876  1.0000
  Cl  Cl2       1.0  0.79310  0.78541  0.52129  1.0000
  Cl  Cl3       1.0  0.79365  0.71501  0.02124  1.0000
  Cl  Cl4       1.0  0.20691  0.21459  0.47871  1.0000
