data_image0
_chemical_formula_structural       Cd6H28C24O32
_chemical_formula_sum              "Cd6 H28 C24 O32"
_cell_length_a       6.13196
_cell_length_b       9.81215
_cell_length_c       15.2324
_cell_angle_alpha    90.0001
_cell_angle_beta     90
_cell_angle_gamma    102.234

_space_group_name_H-M_alt    "P 1"
_space_group_IT_number       1

loop_
  _space_group_symop_operation_xyz
  'x, y, z'

loop_
  _atom_site_type_symbol
  _atom_site_label
  _atom_site_symmetry_multiplicity
  _atom_site_fract_x
  _atom_site_fract_y
  _atom_site_fract_z
  _atom_site_occupancy
  Cd  Cd1       1.0  0.60553  0.32085  0.40265  1.0000
  Cd  Cd2       1.0  0.39447  0.17915  0.90265  1.0000
  Cd  Cd3       1.0  0.39447  0.67916  0.59735  1.0000
  Cd  Cd4       1.0  0.60553  0.82085  0.09735  1.0000
  Cd  Cd5       1.0  1.00000  1.00000  0.50000  1.0000
  Cd  Cd6       1.0  0.00000  0.50000  1.00000  1.0000
  H   H1        1.0  0.31354  0.50873  0.41750  1.0000
  H   H2        1.0  0.68646  0.99127  0.91750  1.0000
  H   H3        1.0  0.68646  0.49127  0.58250  1.0000
  H   H4        1.0  0.31354  0.00873  0.08250  1.0000
  H   H5        1.0  0.19669  0.36885  0.46154  1.0000
  H   H6        1.0  0.80331  0.13115  0.96154  1.0000
  H   H7        1.0  0.80331  0.63115  0.53846  1.0000
  H   H8        1.0  0.19669  0.86885  0.03846  1.0000
  H   H9        1.0  0.73049  0.07732  0.75625  1.0000
  H   H10       1.0  0.26952  0.42268  0.25625  1.0000
  H   H11       1.0  0.26951  0.92268  0.24375  1.0000
  H   H12       1.0  0.73048  0.57732  0.74375  1.0000
  H   H13       1.0  0.54218  0.14429  0.69123  1.0000
  H   H14       1.0  0.45782  0.35571  0.19123  1.0000
  H   H15       1.0  0.45782  0.85571  0.30877  1.0000
  H   H16       1.0  0.54218  0.64429  0.80877  1.0000
  H   H17       1.0  0.10932  0.09024  0.68759  1.0000
  H   H18       1.0  0.89068  0.40976  0.18759  1.0000
  H   H19       1.0  0.89068  0.90976  0.31241  1.0000
  H   H20       1.0  0.10932  0.59024  0.81241  1.0000
  H   H21       1.0  0.80337  0.35497  0.72767  1.0000
  H   H22       1.0  0.19663  0.14503  0.22768  1.0000
  H   H23       1.0  0.19663  0.64503  0.27232  1.0000
  H   H24       1.0  0.80337  0.85497  0.77232  1.0000
  H   H25       1.0  0.03126  0.28770  0.76523  1.0000
  H   H26       1.0  0.96874  0.21230  0.26523  1.0000
  H   H27       1.0  0.96874  0.71230  0.23477  1.0000
  H   H28       1.0  0.03126  0.78770  0.73477  1.0000
  C   C1        1.0  0.80524  0.24368  0.55623  1.0000
  C   C2        1.0  0.19476  0.25632  0.05623  1.0000
  C   C3        1.0  0.19476  0.75632  0.44377  1.0000
  C   C4        1.0  0.80524  0.74368  0.94377  1.0000
  C   C5        1.0  0.88382  0.19505  0.64447  1.0000
  C   C6        1.0  0.11618  0.30495  0.14446  1.0000
  C   C7        1.0  0.11618  0.80495  0.35554  1.0000
  C   C8        1.0  0.88382  0.69505  0.85554  1.0000
  C   C9        1.0  0.68596  0.09377  0.68771  1.0000
  C   C10       1.0  0.31404  0.40623  0.18771  1.0000
  C   C11       1.0  0.31404  0.90623  0.31229  1.0000
  C   C12       1.0  0.68596  0.59377  0.81229  1.0000
  C   C13       1.0  0.60400  0.95152  0.64634  1.0000
  C   C14       1.0  0.39600  0.54848  0.14634  1.0000
  C   C15       1.0  0.39600  0.04848  0.35366  1.0000
  C   C16       1.0  0.60400  0.45152  0.85366  1.0000
  C   C17       1.0  0.95406  0.32086  0.70601  1.0000
  C   C18       1.0  0.04594  0.17914  0.20601  1.0000
  C   C19       1.0  0.04593  0.67914  0.29399  1.0000
  C   C20       1.0  0.95406  0.82086  0.79399  1.0000
  C   C21       1.0  0.11219  0.44547  0.66719  1.0000
  C   C22       1.0  0.88781  0.05453  0.16719  1.0000
  C   C23       1.0  0.88780  0.55453  0.33281  1.0000
  C   C24       1.0  0.11219  0.94547  0.83281  1.0000
  O   O1        1.0  0.87439  0.20311  0.48341  1.0000
  O   O2        1.0  0.12561  0.29689  0.98341  1.0000
  O   O3        1.0  0.12561  0.79689  0.51659  1.0000
  O   O4        1.0  0.87439  0.70311  0.01658  1.0000
  O   O5        1.0  0.66057  0.31877  0.55833  1.0000
  O   O6        1.0  0.33943  0.18123  0.05833  1.0000
  O   O7        1.0  0.33943  0.68122  0.44167  1.0000
  O   O8        1.0  0.66057  0.81877  0.94167  1.0000
  O   O9        1.0  0.66654  0.91849  0.57054  1.0000
  O   O10       1.0  0.33346  0.58151  0.07053  1.0000
  O   O11       1.0  0.33345  0.08151  0.42947  1.0000
  O   O12       1.0  0.66654  0.41849  0.92946  1.0000
  O   O13       1.0  0.46481  0.86432  0.69141  1.0000
  O   O14       1.0  0.53518  0.63569  0.19141  1.0000
  O   O15       1.0  0.53518  0.13568  0.30859  1.0000
  O   O16       1.0  0.46481  0.36431  0.80859  1.0000
  O   O17       1.0  0.28388  0.40577  0.40940  1.0000
  O   O18       1.0  0.71612  0.09423  0.90940  1.0000
  O   O19       1.0  0.71612  0.59423  0.59060  1.0000
  O   O20       1.0  0.28388  0.90577  0.09060  1.0000
  O   O21       1.0  0.06801  0.12875  0.62934  1.0000
  O   O22       1.0  0.93199  0.37126  0.12934  1.0000
  O   O23       1.0  0.93199  0.87125  0.37066  1.0000
  O   O24       1.0  0.06801  0.62874  0.87066  1.0000
  O   O25       1.0  0.17701  0.55362  0.71573  1.0000
  O   O26       1.0  0.82300  0.94638  0.21573  1.0000
  O   O27       1.0  0.82299  0.44638  0.28427  1.0000
  O   O28       1.0  0.17700  0.05362  0.78427  1.0000
  O   O29       1.0  0.17536  0.44513  0.58802  1.0000
  O   O30       1.0  0.82464  0.05487  0.08803  1.0000
  O   O31       1.0  0.82464  0.55486  0.41197  1.0000
  O   O32       1.0  0.17536  0.94513  0.91198  1.0000
