data_image0
_chemical_formula_structural       Cu4H16C24Br4N8
_chemical_formula_sum              "Cu4 H16 C24 Br4 N8"
_cell_length_a       3.81976
_cell_length_b       12.6532
_cell_length_c       14.8759
_cell_angle_alpha    90.0001
_cell_angle_beta     89.9995
_cell_angle_gamma    97.6766

_space_group_name_H-M_alt    "P 1"
_space_group_IT_number       1

loop_
  _space_group_symop_operation_xyz
  'x, y, z'

loop_
  _atom_site_type_symbol
  _atom_site_label
  _atom_site_symmetry_multiplicity
  _atom_site_fract_x
  _atom_site_fract_y
  _atom_site_fract_z
  _atom_site_occupancy
  Cu  Cu1       1.0  0.51098  0.96403  0.25386  1.0000
  Cu  Cu2       1.0  0.48901  0.53597  0.75386  1.0000
  Cu  Cu3       1.0  0.48902  0.03597  0.74614  1.0000
  Cu  Cu4       1.0  0.51098  0.46402  0.24614  1.0000
  H   H1        1.0  0.69224  0.74594  0.27893  1.0000
  H   H2        1.0  0.30778  0.75406  0.77893  1.0000
  H   H3        1.0  0.30778  0.25406  0.72108  1.0000
  H   H4        1.0  0.69226  0.24593  0.22107  1.0000
  H   H5        1.0  0.71285  0.61739  0.40253  1.0000
  H   H6        1.0  0.28717  0.88261  0.90251  1.0000
  H   H7        1.0  0.28716  0.38261  0.59749  1.0000
  H   H8        1.0  0.71287  0.11739  0.09747  1.0000
  H   H9        1.0  0.27494  0.84285  0.57707  1.0000
  H   H10       1.0  0.72505  0.65715  0.07706  1.0000
  H   H11       1.0  0.72503  0.15715  0.42294  1.0000
  H   H12       1.0  0.27494  0.34286  0.92293  1.0000
  H   H13       1.0  0.25674  0.96019  0.44224  1.0000
  H   H14       1.0  0.74325  0.53982  0.94225  1.0000
  H   H15       1.0  0.74325  0.03982  0.55776  1.0000
  H   H16       1.0  0.25674  0.46018  0.05776  1.0000
  C   C1        1.0  0.59969  0.76470  0.34552  1.0000
  C   C2        1.0  0.40032  0.73529  0.84552  1.0000
  C   C3        1.0  0.40033  0.23529  0.65448  1.0000
  C   C4        1.0  0.59970  0.26470  0.15447  1.0000
  C   C5        1.0  0.61356  0.69269  0.41548  1.0000
  C   C6        1.0  0.38645  0.80731  0.91548  1.0000
  C   C7        1.0  0.38644  0.30731  0.58453  1.0000
  C   C8        1.0  0.61358  0.19269  0.08451  1.0000
  C   C9        1.0  0.49785  0.71996  0.50102  1.0000
  C   C10       1.0  0.50214  0.78004  0.00102  1.0000
  C   C11       1.0  0.50213  0.28004  0.49899  1.0000
  C   C12       1.0  0.49788  0.21997  0.99898  1.0000
  C   C13       1.0  0.36944  0.81859  0.51206  1.0000
  C   C14       1.0  0.63054  0.68141  0.01206  1.0000
  C   C15       1.0  0.63056  0.18142  0.48794  1.0000
  C   C16       1.0  0.36944  0.31859  0.98794  1.0000
  C   C17       1.0  0.36119  0.88417  0.43777  1.0000
  C   C18       1.0  0.63880  0.61584  0.93777  1.0000
  C   C19       1.0  0.63881  0.11584  0.56223  1.0000
  C   C20       1.0  0.36122  0.38416  0.06223  1.0000
  C   C21       1.0  0.50710  0.65092  0.57569  1.0000
  C   C22       1.0  0.49289  0.84908  0.07568  1.0000
  C   C23       1.0  0.49286  0.34907  0.42432  1.0000
  C   C24       1.0  0.50710  0.15093  0.92431  1.0000
  Br  Br1       1.0  0.06236  0.08435  0.28852  1.0000
  Br  Br2       1.0  0.93763  0.41565  0.78851  1.0000
  Br  Br3       1.0  0.93764  0.91566  0.71149  1.0000
  Br  Br4       1.0  0.06234  0.58434  0.21148  1.0000
  N   N1        1.0  0.47669  0.85911  0.35559  1.0000
  N   N2        1.0  0.52332  0.64088  0.85559  1.0000
  N   N3        1.0  0.52334  0.14088  0.64441  1.0000
  N   N4        1.0  0.47667  0.35911  0.14441  1.0000
  N   N5        1.0  0.50810  0.59618  0.63925  1.0000
  N   N6        1.0  0.49187  0.90383  0.13925  1.0000
  N   N7        1.0  0.49185  0.40382  0.36075  1.0000
  N   N8        1.0  0.50811  0.09617  0.86074  1.0000
