data_image0
_chemical_formula_structural       Cu4H16C24N8Cl4
_chemical_formula_sum              "Cu4 H16 C24 N8 Cl4"
_cell_length_a       3.66256
_cell_length_b       12.4958
_cell_length_c       14.7498
_cell_angle_alpha    89.9994
_cell_angle_beta     89.9996
_cell_angle_gamma    96.0657

_space_group_name_H-M_alt    "P 1"
_space_group_IT_number       1

loop_
  _space_group_symop_operation_xyz
  'x, y, z'

loop_
  _atom_site_type_symbol
  _atom_site_label
  _atom_site_symmetry_multiplicity
  _atom_site_fract_x
  _atom_site_fract_y
  _atom_site_fract_z
  _atom_site_occupancy
  Cu  Cu1       1.0  0.49332  0.96945  0.25307  1.0000
  Cu  Cu2       1.0  0.50669  0.53055  0.75307  1.0000
  Cu  Cu3       1.0  0.50669  0.03056  0.74693  1.0000
  Cu  Cu4       1.0  0.49331  0.46945  0.24692  1.0000
  H   H1        1.0  0.66802  0.74439  0.27531  1.0000
  H   H2        1.0  0.33198  0.75562  0.77531  1.0000
  H   H3        1.0  0.33198  0.25562  0.72469  1.0000
  H   H4        1.0  0.66802  0.24439  0.22469  1.0000
  H   H5        1.0  0.69689  0.61354  0.39940  1.0000
  H   H6        1.0  0.30313  0.88645  0.89941  1.0000
  H   H7        1.0  0.30309  0.38645  0.60060  1.0000
  H   H8        1.0  0.69689  0.11355  0.10060  1.0000
  H   H9        1.0  0.25671  0.84524  0.57868  1.0000
  H   H10       1.0  0.74332  0.65475  0.07867  1.0000
  H   H11       1.0  0.74327  0.15476  0.42133  1.0000
  H   H12       1.0  0.25669  0.34524  0.92133  1.0000
  H   H13       1.0  0.23222  0.96518  0.44305  1.0000
  H   H14       1.0  0.76779  0.53481  0.94304  1.0000
  H   H15       1.0  0.76779  0.03482  0.55695  1.0000
  H   H16       1.0  0.23221  0.46518  0.05695  1.0000
  C   C1        1.0  0.57767  0.76414  0.34302  1.0000
  C   C2        1.0  0.42234  0.73586  0.84302  1.0000
  C   C3        1.0  0.42232  0.23586  0.65698  1.0000
  C   C4        1.0  0.57768  0.26414  0.15698  1.0000
  C   C5        1.0  0.59539  0.69073  0.41313  1.0000
  C   C6        1.0  0.40463  0.80927  0.91314  1.0000
  C   C7        1.0  0.40459  0.30927  0.58686  1.0000
  C   C8        1.0  0.59539  0.19073  0.08686  1.0000
  C   C9        1.0  0.48248  0.71923  0.50012  1.0000
  C   C10       1.0  0.51754  0.78076  0.00012  1.0000
  C   C11       1.0  0.51750  0.28077  0.49988  1.0000
  C   C12       1.0  0.48247  0.21923  0.99988  1.0000
  C   C13       1.0  0.35033  0.82021  0.51245  1.0000
  C   C14       1.0  0.64970  0.67977  0.01244  1.0000
  C   C15       1.0  0.64966  0.17979  0.48755  1.0000
  C   C16       1.0  0.35031  0.32021  0.98755  1.0000
  C   C17       1.0  0.33868  0.88713  0.43785  1.0000
  C   C18       1.0  0.66133  0.61286  0.93784  1.0000
  C   C19       1.0  0.66132  0.11287  0.56215  1.0000
  C   C20       1.0  0.33867  0.38713  0.06215  1.0000
  C   C21       1.0  0.50083  0.64891  0.57487  1.0000
  C   C22       1.0  0.49918  0.85106  0.07487  1.0000
  C   C23       1.0  0.49916  0.35108  0.42513  1.0000
  C   C24       1.0  0.50083  0.14892  0.92513  1.0000
  N   N1        1.0  0.45387  0.86114  0.35445  1.0000
  N   N2        1.0  0.54613  0.63886  0.85445  1.0000
  N   N3        1.0  0.54612  0.13887  0.64555  1.0000
  N   N4        1.0  0.45388  0.36114  0.14555  1.0000
  N   N5        1.0  0.51264  0.59247  0.63808  1.0000
  N   N6        1.0  0.48737  0.90753  0.13809  1.0000
  N   N7        1.0  0.48736  0.40754  0.36191  1.0000
  N   N8        1.0  0.51263  0.09247  0.86191  1.0000
  Cl  Cl1       1.0  0.03320  0.08174  0.28734  1.0000
  Cl  Cl2       1.0  0.96681  0.41827  0.78734  1.0000
  Cl  Cl3       1.0  0.96681  0.91827  0.71266  1.0000
  Cl  Cl4       1.0  0.03320  0.58174  0.21265  1.0000
