data_image0
_chemical_formula_structural       Cu2H28C30N4O8
_chemical_formula_sum              "Cu2 H28 C30 N4 O8"
_cell_length_a       8.09343
_cell_length_b       9.22013
_cell_length_c       10.5108
_cell_angle_alpha    111.682
_cell_angle_beta     93.2807
_cell_angle_gamma    104.001

_space_group_name_H-M_alt    "P 1"
_space_group_IT_number       1

loop_
  _space_group_symop_operation_xyz
  'x, y, z'

loop_
  _atom_site_type_symbol
  _atom_site_label
  _atom_site_symmetry_multiplicity
  _atom_site_fract_x
  _atom_site_fract_y
  _atom_site_fract_z
  _atom_site_occupancy
  Cu  Cu1       1.0  0.35291  0.52333  0.85291  1.0000
  Cu  Cu2       1.0  0.64709  0.47667  0.14709  1.0000
  H   H1        1.0  0.16898  0.17106  0.71827  1.0000
  H   H2        1.0  0.83101  0.82894  0.28172  1.0000
  H   H3        1.0  0.16033  0.93801  0.49863  1.0000
  H   H4        1.0  0.83967  0.06198  0.50137  1.0000
  H   H5        1.0  0.55420  0.27235  0.39696  1.0000
  H   H6        1.0  0.44581  0.72765  0.60304  1.0000
  H   H7        1.0  0.54297  0.48670  0.62015  1.0000
  H   H8        1.0  0.45703  0.51330  0.37985  1.0000
  H   H9        1.0  0.12986  0.76630  0.29885  1.0000
  H   H10       1.0  0.87015  0.23370  0.70115  1.0000
  H   H11       1.0  0.13659  0.56112  0.07527  1.0000
  H   H12       1.0  0.86341  0.43887  0.92473  1.0000
  H   H13       1.0  0.55029  0.87091  0.00384  1.0000
  H   H14       1.0  0.44972  0.12909  0.99617  1.0000
  H   H15       1.0  0.56714  0.09386  0.22825  1.0000
  H   H16       1.0  0.43287  0.90614  0.77175  1.0000
  H   H17       1.0  0.00705  0.77455  0.96813  1.0000
  H   H18       1.0  0.99293  0.22545  0.03188  1.0000
  H   H19       1.0  0.88876  0.91511  0.98318  1.0000
  H   H20       1.0  0.11124  0.08489  0.01682  1.0000
  H   H21       1.0  0.77786  0.78011  0.72667  1.0000
  H   H22       1.0  0.22215  0.21989  0.27332  1.0000
  H   H23       1.0  0.00414  0.86867  0.76718  1.0000
  H   H24       1.0  0.99587  0.13134  0.23283  1.0000
  H   H25       1.0  0.82404  0.50485  0.68179  1.0000
  H   H26       1.0  0.17597  0.49515  0.31821  1.0000
  H   H27       1.0  0.91698  0.59495  0.56973  1.0000
  H   H28       1.0  0.08303  0.40505  0.43028  1.0000
  C   C1        1.0  0.24925  0.18622  0.64175  1.0000
  C   C2        1.0  0.75075  0.81378  0.35824  1.0000
  C   C3        1.0  0.24654  0.05756  0.51860  1.0000
  C   C4        1.0  0.75346  0.94245  0.48140  1.0000
  C   C5        1.0  0.35454  0.08297  0.42423  1.0000
  C   C6        1.0  0.64547  0.91703  0.57577  1.0000
  C   C7        1.0  0.46433  0.24108  0.46249  1.0000
  C   C8        1.0  0.53568  0.75892  0.53751  1.0000
  C   C9        1.0  0.45953  0.36317  0.58727  1.0000
  C   C10       1.0  0.54047  0.63683  0.41273  1.0000
  C   C11       1.0  0.35132  0.95215  0.28904  1.0000
  C   C12       1.0  0.64869  0.04785  0.71096  1.0000
  C   C13       1.0  0.22964  0.79855  0.24095  1.0000
  C   C14       1.0  0.77037  0.20145  0.75906  1.0000
  C   C15       1.0  0.23151  0.67975  0.11304  1.0000
  C   C16       1.0  0.76849  0.32025  0.88696  1.0000
  C   C17       1.0  0.46159  0.85322  0.07420  1.0000
  C   C18       1.0  0.53841  0.14677  0.92580  1.0000
  C   C19       1.0  0.46847  0.97826  0.20050  1.0000
  C   C20       1.0  0.53154  0.02174  0.79950  1.0000
  C   C21       1.0  0.73418  0.68174  0.94608  1.0000
  C   C22       1.0  0.26579  0.31827  0.05391  1.0000
  C   C23       1.0  0.89182  0.79029  0.92039  1.0000
  C   C24       1.0  0.10817  0.20971  0.07961  1.0000
  C   C25       1.0  0.89858  0.76947  0.77021  1.0000
  C   C26       1.0  0.10142  0.23053  0.22979  1.0000
  C   C27       1.0  0.92510  0.60608  0.67785  1.0000
  C   C28       1.0  0.07491  0.39392  0.32216  1.0000
  C   C29       1.0  0.10168  0.59525  0.72421  1.0000
  C   C30       1.0  0.89833  0.40475  0.27580  1.0000
  N   N1        1.0  0.35413  0.33727  0.67585  1.0000
  N   N2        1.0  0.64587  0.66273  0.32415  1.0000
  N   N3        1.0  0.34740  0.70495  0.03098  1.0000
  N   N4        1.0  0.65260  0.29505  0.96902  1.0000
  O   O1        1.0  0.60132  0.61985  0.85036  1.0000
  O   O2        1.0  0.39866  0.38018  0.14962  1.0000
  O   O3        1.0  0.74301  0.66736  0.06040  1.0000
  O   O4        1.0  0.25696  0.33263  0.93959  1.0000
  O   O5        1.0  0.10232  0.49683  0.78584  1.0000
  O   O6        1.0  0.89768  0.50316  0.21417  1.0000
  O   O7        1.0  0.23537  0.68293  0.70584  1.0000
  O   O8        1.0  0.76465  0.31707  0.29417  1.0000
