data_image0
_chemical_formula_structural       Cu2H10C12Br2N2O2
_chemical_formula_sum              "Cu2 H10 C12 Br2 N2 O2"
_cell_length_a       3.90871
_cell_length_b       7.78498
_cell_length_c       12.0032
_cell_angle_alpha    101.916
_cell_angle_beta     93.1612
_cell_angle_gamma    104.863

_space_group_name_H-M_alt    "P 1"
_space_group_IT_number       1

loop_
  _space_group_symop_operation_xyz
  'x, y, z'

loop_
  _atom_site_type_symbol
  _atom_site_label
  _atom_site_symmetry_multiplicity
  _atom_site_fract_x
  _atom_site_fract_y
  _atom_site_fract_z
  _atom_site_occupancy
  Cu  Cu1       1.0  0.70565  0.59523  0.94204  1.0000
  Cu  Cu2       1.0  0.29436  0.40477  0.05796  1.0000
  H   H1        1.0  0.25966  0.38593  0.78578  1.0000
  H   H2        1.0  0.74036  0.61410  0.21425  1.0000
  H   H3        1.0  0.28189  0.61983  0.53587  1.0000
  H   H4        1.0  0.71810  0.38016  0.46413  1.0000
  H   H5        1.0  0.70536  0.92771  0.54566  1.0000
  H   H6        1.0  0.29463  0.07228  0.45432  1.0000
  H   H7        1.0  0.13118  0.07782  0.72539  1.0000
  H   H8        1.0  0.86878  0.92217  0.27460  1.0000
  H   H9        1.0  0.12289  0.91753  0.88397  1.0000
  H   H10       1.0  0.87713  0.08250  0.11603  1.0000
  C   C1        1.0  0.48222  0.60957  0.70436  1.0000
  C   C2        1.0  0.51779  0.39045  0.29564  1.0000
  C   C3        1.0  0.23328  0.43113  0.70414  1.0000
  C   C4        1.0  0.76673  0.56888  0.29587  1.0000
  C   C5        1.0  0.47427  0.68998  0.61090  1.0000
  C   C6        1.0  0.52570  0.30998  0.38911  1.0000
  C   C7        1.0  0.70700  0.86103  0.61693  1.0000
  C   C8        1.0  0.29304  0.13898  0.38307  1.0000
  C   C9        1.0  0.94182  0.94501  0.71632  1.0000
  C   C10       1.0  0.05819  0.05501  0.28366  1.0000
  C   C11       1.0  0.93803  0.85589  0.80594  1.0000
  C   C12       1.0  0.06194  0.14412  0.19405  1.0000
  Br  Br1       1.0  0.30680  0.73197  0.06436  1.0000
  Br  Br2       1.0  0.69325  0.26805  0.93560  1.0000
  N   N1        1.0  0.71316  0.69085  0.80140  1.0000
  N   N2        1.0  0.28684  0.30915  0.19860  1.0000
  O   O1        1.0  0.01128  0.33883  0.62321  1.0000
  O   O2        1.0  0.98868  0.66114  0.37682  1.0000
