data_image0
_chemical_formula_structural       Cu4H20C24N4Cl4O4
_chemical_formula_sum              "Cu4 H20 C24 N4 Cl4 O4"
_cell_length_a       3.73643
_cell_length_b       13.0264
_cell_length_c       14.4619
_cell_angle_alpha    108.509
_cell_angle_beta     89.9974
_cell_angle_gamma    89.9984

_space_group_name_H-M_alt    "P 1"
_space_group_IT_number       1

loop_
  _space_group_symop_operation_xyz
  'x, y, z'

loop_
  _atom_site_type_symbol
  _atom_site_label
  _atom_site_symmetry_multiplicity
  _atom_site_fract_x
  _atom_site_fract_y
  _atom_site_fract_z
  _atom_site_occupancy
  Cu  Cu1       1.0  0.91957  0.57340  0.82567  1.0000
  Cu  Cu2       1.0  0.41956  0.42658  0.67433  1.0000
  Cu  Cu3       1.0  0.08046  0.42658  0.17433  1.0000
  Cu  Cu4       1.0  0.58045  0.57343  0.32567  1.0000
  H   H1        1.0  0.76803  0.74055  0.79007  1.0000
  H   H2        1.0  0.26820  0.25943  0.70992  1.0000
  H   H3        1.0  0.23184  0.25942  0.20993  1.0000
  H   H4        1.0  0.73186  0.74060  0.29007  1.0000
  H   H5        1.0  0.69332  0.95854  0.03834  1.0000
  H   H6        1.0  0.19328  0.04147  0.46165  1.0000
  H   H7        1.0  0.30671  0.04145  0.96167  1.0000
  H   H8        1.0  0.80671  0.95855  0.53834  1.0000
  H   H9        1.0  0.95116  0.93115  0.18945  1.0000
  H   H10       1.0  0.45108  0.06885  0.31052  1.0000
  H   H11       1.0  0.04882  0.06882  0.81055  1.0000
  H   H12       1.0  0.54891  0.93117  0.68947  1.0000
  H   H13       1.0  0.22284  0.75026  0.17545  1.0000
  H   H14       1.0  0.72277  0.24975  0.32453  1.0000
  H   H15       1.0  0.77718  0.24972  0.82455  1.0000
  H   H16       1.0  0.27720  0.75028  0.67547  1.0000
  H   H17       1.0  0.22735  0.60574  0.01520  1.0000
  H   H18       1.0  0.72733  0.39425  0.48480  1.0000
  H   H19       1.0  0.77268  0.39424  0.98480  1.0000
  H   H20       1.0  0.27265  0.60577  0.51520  1.0000
  C   C1        1.0  0.82994  0.79686  0.94824  1.0000
  C   C2        1.0  0.33000  0.20312  0.55175  1.0000
  C   C3        1.0  0.17004  0.20312  0.05177  1.0000
  C   C4        1.0  0.67000  0.79689  0.44823  1.0000
  C   C5        1.0  0.69079  0.80823  0.85661  1.0000
  C   C6        1.0  0.19090  0.19175  0.64339  1.0000
  C   C7        1.0  0.30915  0.19175  0.14340  1.0000
  C   C8        1.0  0.80912  0.80827  0.35661  1.0000
  C   C9        1.0  0.81541  0.88192  0.03603  1.0000
  C   C10       1.0  0.31541  0.11807  0.46396  1.0000
  C   C11       1.0  0.18459  0.11806  0.96399  1.0000
  C   C12       1.0  0.68460  0.88195  0.53603  1.0000
  C   C13       1.0  0.95740  0.86677  0.11963  1.0000
  C   C14       1.0  0.45736  0.13323  0.38035  1.0000
  C   C15       1.0  0.04261  0.13322  0.88038  1.0000
  C   C16       1.0  0.54264  0.86679  0.61964  1.0000
  C   C17       1.0  0.10686  0.76632  0.11247  1.0000
  C   C18       1.0  0.60683  0.23368  0.38752  1.0000
  C   C19       1.0  0.89316  0.23366  0.88754  1.0000
  C   C20       1.0  0.39318  0.76634  0.61248  1.0000
  C   C21       1.0  0.11144  0.68477  0.02276  1.0000
  C   C22       1.0  0.61143  0.31522  0.47723  1.0000
  C   C23       1.0  0.88859  0.31522  0.97724  1.0000
  C   C24       1.0  0.38855  0.68480  0.52277  1.0000
  N   N1        1.0  0.97696  0.69887  0.94106  1.0000
  N   N2        1.0  0.47700  0.30111  0.55893  1.0000
  N   N3        1.0  0.02303  0.30111  0.05894  1.0000
  N   N4        1.0  0.52298  0.69890  0.44106  1.0000
  Cl  Cl1       1.0  0.45193  0.45761  0.84038  1.0000
  Cl  Cl2       1.0  0.95194  0.54237  0.65962  1.0000
  Cl  Cl3       1.0  0.54806  0.54237  0.15961  1.0000
  Cl  Cl4       1.0  0.04808  0.45765  0.34039  1.0000
  O   O1        1.0  0.49971  0.88323  0.85159  1.0000
  O   O2        1.0  0.99980  0.11676  0.64841  1.0000
  O   O3        1.0  0.50027  0.11676  0.14843  1.0000
  O   O4        1.0  0.00024  0.88325  0.35158  1.0000
