data_image0
_chemical_formula_structural       Cu4H36C48Br4N4O4
_chemical_formula_sum              "Cu4 H36 C48 Br4 N4 O4"
_cell_length_a       3.838
_cell_length_b       11.1997
_cell_length_c       24.3071
_cell_angle_alpha    89.9999
_cell_angle_beta     90.0007
_cell_angle_gamma    91.7162

_space_group_name_H-M_alt    "P 1"
_space_group_IT_number       1

loop_
  _space_group_symop_operation_xyz
  'x, y, z'

loop_
  _atom_site_type_symbol
  _atom_site_label
  _atom_site_symmetry_multiplicity
  _atom_site_fract_x
  _atom_site_fract_y
  _atom_site_fract_z
  _atom_site_occupancy
  Cu  Cu1       1.0  0.79837  0.94675  0.46268  1.0000
  Cu  Cu2       1.0  0.70162  0.55324  0.96268  1.0000
  Cu  Cu3       1.0  0.20163  0.05324  0.53732  1.0000
  Cu  Cu4       1.0  0.29836  0.44676  0.03732  1.0000
  H   H1        1.0  0.50287  0.84088  0.36040  1.0000
  H   H2        1.0  0.99714  0.65912  0.86040  1.0000
  H   H3        1.0  0.49713  0.15912  0.63960  1.0000
  H   H4        1.0  0.00288  0.34088  0.13960  1.0000
  H   H5        1.0  0.45587  0.90042  0.26327  1.0000
  H   H6        1.0  0.04413  0.59959  0.76327  1.0000
  H   H7        1.0  0.54412  0.09959  0.73673  1.0000
  H   H8        1.0  0.95589  0.40041  0.23673  1.0000
  H   H9        1.0  0.03611  0.22551  0.30405  1.0000
  H   H10       1.0  0.46388  0.27450  0.80405  1.0000
  H   H11       1.0  0.96388  0.77450  0.69595  1.0000
  H   H12       1.0  0.53611  0.72551  0.19595  1.0000
  H   H13       1.0  0.07622  0.14867  0.40040  1.0000
  H   H14       1.0  0.42378  0.35133  0.90040  1.0000
  H   H15       1.0  0.92377  0.85133  0.59960  1.0000
  H   H16       1.0  0.57621  0.64867  0.09960  1.0000
  H   H17       1.0  0.97417  0.89962  0.20747  1.0000
  H   H18       1.0  0.52586  0.60038  0.70746  1.0000
  H   H19       1.0  0.02585  0.10038  0.79253  1.0000
  H   H20       1.0  0.47417  0.39962  0.29253  1.0000
  H   H21       1.0  0.05574  0.79152  0.11983  1.0000
  H   H22       1.0  0.44424  0.70847  0.61982  1.0000
  H   H23       1.0  0.94425  0.20848  0.88017  1.0000
  H   H24       1.0  0.55576  0.29152  0.38017  1.0000
  H   H25       1.0  0.86121  0.87778  0.03202  1.0000
  H   H26       1.0  0.63874  0.62220  0.53202  1.0000
  H   H27       1.0  0.13876  0.12222  0.96798  1.0000
  H   H28       1.0  0.36127  0.37778  0.46798  1.0000
  H   H29       1.0  0.59675  0.07998  0.03093  1.0000
  H   H30       1.0  0.90321  0.42001  0.53093  1.0000
  H   H31       1.0  0.40323  0.92002  0.96907  1.0000
  H   H32       1.0  0.09679  0.57998  0.46907  1.0000
  H   H33       1.0  0.51612  0.18951  0.11825  1.0000
  H   H34       1.0  0.98387  0.31049  0.61825  1.0000
  H   H35       1.0  0.48388  0.81050  0.88175  1.0000
  H   H36       1.0  0.01614  0.68950  0.38175  1.0000
  C   C1        1.0  0.62474  0.92445  0.34625  1.0000
  C   C2        1.0  0.87526  0.57555  0.84625  1.0000
  C   C3        1.0  0.37526  0.07555  0.65375  1.0000
  C   C4        1.0  0.12475  0.42445  0.15375  1.0000
  C   C5        1.0  0.59956  0.95893  0.29146  1.0000
  C   C6        1.0  0.90044  0.54107  0.79146  1.0000
  C   C7        1.0  0.40043  0.04107  0.70855  1.0000
  C   C8        1.0  0.09957  0.45893  0.20854  1.0000
  C   C9        1.0  0.74260  0.06967  0.27516  1.0000
  C   C10       1.0  0.75740  0.43033  0.77516  1.0000
  C   C11       1.0  0.25738  0.93033  0.72484  1.0000
  C   C12       1.0  0.24261  0.56967  0.22484  1.0000
  C   C13       1.0  0.91751  0.13929  0.31504  1.0000
  C   C14       1.0  0.58249  0.36071  0.81504  1.0000
  C   C15       1.0  0.08248  0.86070  0.68496  1.0000
  C   C16       1.0  0.41751  0.63930  0.18496  1.0000
  C   C17       1.0  0.94015  0.09740  0.36844  1.0000
  C   C18       1.0  0.55985  0.40260  0.86844  1.0000
  C   C19       1.0  0.05984  0.90260  0.63156  1.0000
  C   C20       1.0  0.44014  0.59740  0.13156  1.0000
  C   C21       1.0  0.68949  0.12303  0.21946  1.0000
  C   C22       1.0  0.81051  0.37698  0.71946  1.0000
  C   C23       1.0  0.31051  0.87698  0.78055  1.0000
  C   C24       1.0  0.18951  0.62302  0.28054  1.0000
  C   C25       1.0  0.73373  0.05181  0.16883  1.0000
  C   C26       1.0  0.76627  0.44820  0.66883  1.0000
  C   C27       1.0  0.26628  0.94820  0.83117  1.0000
  C   C28       1.0  0.23374  0.55181  0.33117  1.0000
  C   C29       1.0  0.88678  0.93906  0.16907  1.0000
  C   C30       1.0  0.61323  0.56095  0.66906  1.0000
  C   C31       1.0  0.11323  0.06095  0.83094  1.0000
  C   C32       1.0  0.38679  0.43905  0.33093  1.0000
  C   C33       1.0  0.93196  0.87776  0.11984  1.0000
  C   C34       1.0  0.56803  0.62224  0.61983  1.0000
  C   C35       1.0  0.06803  0.12224  0.88017  1.0000
  C   C36       1.0  0.43199  0.37776  0.38017  1.0000
  C   C37       1.0  0.82517  0.92733  0.07015  1.0000
  C   C38       1.0  0.67479  0.57266  0.57014  1.0000
  C   C39       1.0  0.17480  0.07267  0.92985  1.0000
  C   C40       1.0  0.32522  0.42733  0.42985  1.0000
  C   C41       1.0  0.67621  0.03978  0.06958  1.0000
  C   C42       1.0  0.82376  0.46022  0.56957  1.0000
  C   C43       1.0  0.32378  0.96023  0.93043  1.0000
  C   C44       1.0  0.17625  0.53978  0.43043  1.0000
  C   C45       1.0  0.63189  0.10184  0.11842  1.0000
  C   C46       1.0  0.86810  0.39815  0.61842  1.0000
  C   C47       1.0  0.36810  0.89816  0.88158  1.0000
  C   C48       1.0  0.13192  0.60184  0.38158  1.0000
  Br  Br1       1.0  0.28070  0.83345  0.49633  1.0000
  Br  Br2       1.0  0.21930  0.66655  0.99633  1.0000
  Br  Br3       1.0  0.71928  0.16655  0.50367  1.0000
  Br  Br4       1.0  0.78069  0.33345  0.00367  1.0000
  N   N1        1.0  0.79015  0.99215  0.38465  1.0000
  N   N2        1.0  0.70985  0.50785  0.88465  1.0000
  N   N3        1.0  0.20984  0.00785  0.61535  1.0000
  N   N4        1.0  0.29016  0.49215  0.11535  1.0000
  O   O1        1.0  0.60878  0.22956  0.21750  1.0000
  O   O2        1.0  0.89121  0.27043  0.71750  1.0000
  O   O3        1.0  0.39121  0.77044  0.78250  1.0000
  O   O4        1.0  0.10879  0.72957  0.28250  1.0000
