data_image0
_chemical_formula_structural       Cu4H36C48I4N4O4
_chemical_formula_sum              "Cu4 H36 C48 I4 N4 O4"
_cell_length_a       4.0534
_cell_length_b       11.188
_cell_length_c       24.2887
_cell_angle_alpha    90.0001
_cell_angle_beta     90.0009
_cell_angle_gamma    96.6426

_space_group_name_H-M_alt    "P 1"
_space_group_IT_number       1

loop_
  _space_group_symop_operation_xyz
  'x, y, z'

loop_
  _atom_site_type_symbol
  _atom_site_label
  _atom_site_symmetry_multiplicity
  _atom_site_fract_x
  _atom_site_fract_y
  _atom_site_fract_z
  _atom_site_occupancy
  Cu  Cu1       1.0  0.73826  0.96852  0.46655  1.0000
  Cu  Cu2       1.0  0.76174  0.53148  0.96655  1.0000
  Cu  Cu3       1.0  0.26174  0.03147  0.53345  1.0000
  Cu  Cu4       1.0  0.23827  0.46852  0.03345  1.0000
  H   H1        1.0  0.00518  0.87514  0.36055  1.0000
  H   H2        1.0  0.49482  0.62487  0.86055  1.0000
  H   H3        1.0  0.99479  0.12486  0.63945  1.0000
  H   H4        1.0  0.50521  0.37514  0.13945  1.0000
  H   H5        1.0  0.02863  0.93486  0.26289  1.0000
  H   H6        1.0  0.47135  0.56516  0.76289  1.0000
  H   H7        1.0  0.97134  0.06515  0.73711  1.0000
  H   H8        1.0  0.52865  0.43485  0.23711  1.0000
  H   H9        1.0  0.50165  0.23617  0.30648  1.0000
  H   H10       1.0  0.99831  0.26383  0.80648  1.0000
  H   H11       1.0  0.49833  0.76383  0.69352  1.0000
  H   H12       1.0  0.00168  0.73618  0.19351  1.0000
  H   H13       1.0  0.47947  0.15820  0.40321  1.0000
  H   H14       1.0  0.02051  0.34178  0.90321  1.0000
  H   H15       1.0  0.52051  0.84179  0.59679  1.0000
  H   H16       1.0  0.97948  0.65821  0.09679  1.0000
  H   H17       1.0  0.52810  0.90966  0.20316  1.0000
  H   H18       1.0  0.97190  0.59035  0.70316  1.0000
  H   H19       1.0  0.47190  0.09035  0.79685  1.0000
  H   H20       1.0  0.02809  0.40965  0.29684  1.0000
  H   H21       1.0  0.57122  0.79028  0.11784  1.0000
  H   H22       1.0  0.92879  0.70973  0.61784  1.0000
  H   H23       1.0  0.42879  0.20972  0.88216  1.0000
  H   H24       1.0  0.07122  0.29027  0.38215  1.0000
  H   H25       1.0  0.92675  0.87174  0.04090  1.0000
  H   H26       1.0  0.57325  0.62827  0.54089  1.0000
  H   H27       1.0  0.07328  0.12828  0.95910  1.0000
  H   H28       1.0  0.42675  0.37172  0.45910  1.0000
  H   H29       1.0  0.21728  0.08149  0.04600  1.0000
  H   H30       1.0  0.28276  0.41850  0.54599  1.0000
  H   H31       1.0  0.78275  0.91851  0.95401  1.0000
  H   H32       1.0  0.71725  0.58149  0.45401  1.0000
  H   H33       1.0  0.14113  0.20724  0.12825  1.0000
  H   H34       1.0  0.35886  0.29277  0.62825  1.0000
  H   H35       1.0  0.85887  0.79277  0.87176  1.0000
  H   H36       1.0  0.64113  0.70723  0.37175  1.0000
  C   C1        1.0  0.88648  0.95265  0.34691  1.0000
  C   C2        1.0  0.61353  0.54736  0.84691  1.0000
  C   C3        1.0  0.11352  0.04736  0.65309  1.0000
  C   C4        1.0  0.38648  0.45264  0.15309  1.0000
  C   C5        1.0  0.90009  0.98741  0.29184  1.0000
  C   C6        1.0  0.59992  0.51260  0.79185  1.0000
  C   C7        1.0  0.09989  0.01259  0.70815  1.0000
  C   C8        1.0  0.40009  0.48741  0.20815  1.0000
  C   C9        1.0  0.76376  0.09162  0.27608  1.0000
  C   C10       1.0  0.73620  0.40838  0.77608  1.0000
  C   C11       1.0  0.23618  0.90838  0.72392  1.0000
  C   C12       1.0  0.26379  0.59162  0.22392  1.0000
  C   C13       1.0  0.61017  0.15448  0.31688  1.0000
  C   C14       1.0  0.88980  0.34552  0.81688  1.0000
  C   C15       1.0  0.38979  0.84552  0.68312  1.0000
  C   C16       1.0  0.11019  0.65448  0.18312  1.0000
  C   C17       1.0  0.59904  0.11215  0.37050  1.0000
  C   C18       1.0  0.90095  0.38784  0.87050  1.0000
  C   C19       1.0  0.40095  0.88785  0.62950  1.0000
  C   C20       1.0  0.09905  0.61215  0.12950  1.0000
  C   C21       1.0  0.80208  0.14509  0.21961  1.0000
  C   C22       1.0  0.69790  0.35492  0.71961  1.0000
  C   C23       1.0  0.19789  0.85491  0.78039  1.0000
  C   C24       1.0  0.30210  0.64509  0.28039  1.0000
  C   C25       1.0  0.83653  0.06652  0.17136  1.0000
  C   C26       1.0  0.66348  0.43348  0.67136  1.0000
  C   C27       1.0  0.16348  0.93348  0.82864  1.0000
  C   C28       1.0  0.33652  0.56652  0.32864  1.0000
  C   C29       1.0  0.67854  0.94781  0.16877  1.0000
  C   C30       1.0  0.82148  0.55220  0.66877  1.0000
  C   C31       1.0  0.32148  0.05220  0.83123  1.0000
  C   C32       1.0  0.17853  0.44780  0.33122  1.0000
  C   C33       1.0  0.70438  0.88027  0.12110  1.0000
  C   C34       1.0  0.79565  0.61973  0.62110  1.0000
  C   C35       1.0  0.29565  0.11973  0.87891  1.0000
  C   C36       1.0  0.20436  0.38027  0.37890  1.0000
  C   C37       1.0  0.89933  0.92745  0.07709  1.0000
  C   C38       1.0  0.60070  0.57255  0.57708  1.0000
  C   C39       1.0  0.10069  0.07255  0.92292  1.0000
  C   C40       1.0  0.39931  0.42744  0.42291  1.0000
  C   C41       1.0  0.06017  0.04468  0.07978  1.0000
  C   C42       1.0  0.43986  0.45532  0.57977  1.0000
  C   C43       1.0  0.93986  0.95532  0.92023  1.0000
  C   C44       1.0  0.56016  0.54467  0.42022  1.0000
  C   C45       1.0  0.02275  0.11486  0.12611  1.0000
  C   C46       1.0  0.47725  0.38515  0.62610  1.0000
  C   C47       1.0  0.97727  0.88515  0.87390  1.0000
  C   C48       1.0  0.52275  0.61485  0.37390  1.0000
  I   I1        1.0  0.18543  0.82011  0.48290  1.0000
  I   I2        1.0  0.31456  0.67989  0.98290  1.0000
  I   I3        1.0  0.81455  0.17988  0.51710  1.0000
  I   I4        1.0  0.68543  0.32011  0.01710  1.0000
  N   N1        1.0  0.73977  0.01357  0.38603  1.0000
  N   N2        1.0  0.76022  0.48643  0.88603  1.0000
  N   N3        1.0  0.26022  0.98643  0.61397  1.0000
  N   N4        1.0  0.23977  0.51357  0.11397  1.0000
  O   O1        1.0  0.81186  0.25582  0.21450  1.0000
  O   O2        1.0  0.68812  0.24418  0.71450  1.0000
  O   O3        1.0  0.18813  0.74417  0.78550  1.0000
  O   O4        1.0  0.31187  0.75582  0.28550  1.0000
