data_image0
_chemical_formula_structural       Zn2H28C30N4O8
_chemical_formula_sum              "Zn2 H28 C30 N4 O8"
_cell_length_a       7.88695
_cell_length_b       9.42566
_cell_length_c       10.3815
_cell_angle_alpha    109.574
_cell_angle_beta     94.1599
_cell_angle_gamma    104.079

_space_group_name_H-M_alt    "P 1"
_space_group_IT_number       1

loop_
  _space_group_symop_operation_xyz
  'x, y, z'

loop_
  _atom_site_type_symbol
  _atom_site_label
  _atom_site_symmetry_multiplicity
  _atom_site_fract_x
  _atom_site_fract_y
  _atom_site_fract_z
  _atom_site_occupancy
  Zn  Zn1       1.0  0.84216  0.01159  0.85920  1.0000
  Zn  Zn2       1.0  0.15784  0.98841  0.14080  1.0000
  H   H1        1.0  0.63297  0.06394  0.10012  1.0000
  H   H2        1.0  0.36703  0.93605  0.89988  1.0000
  H   H3        1.0  0.67088  0.65451  0.72628  1.0000
  H   H4        1.0  0.32912  0.34549  0.27373  1.0000
  H   H5        1.0  0.03601  0.96453  0.61176  1.0000
  H   H6        1.0  0.96400  0.03547  0.38824  1.0000
  H   H7        1.0  0.04446  0.75808  0.39130  1.0000
  H   H8        1.0  0.95555  0.24192  0.60870  1.0000
  H   H9        1.0  0.62770  0.26275  0.31771  1.0000
  H   H10       1.0  0.37230  0.73724  0.68229  1.0000
  H   H11       1.0  0.03715  0.36701  0.00618  1.0000
  H   H12       1.0  0.96284  0.63299  0.99381  1.0000
  H   H13       1.0  0.51438  0.26762  0.96422  1.0000
  H   H14       1.0  0.48562  0.73238  0.03579  1.0000
  H   H15       1.0  0.39289  0.40494  0.98697  1.0000
  H   H16       1.0  0.60711  0.59506  0.01304  1.0000
  H   H17       1.0  0.65979  0.43030  0.51140  1.0000
  H   H18       1.0  0.34022  0.56970  0.48860  1.0000
  H   H19       1.0  0.05453  0.58533  0.22451  1.0000
  H   H20       1.0  0.94546  0.41467  0.77548  1.0000
  H   H21       1.0  0.51305  0.38443  0.77496  1.0000
  H   H22       1.0  0.48696  0.61557  0.22505  1.0000
  H   H23       1.0  0.28063  0.29891  0.73039  1.0000
  H   H24       1.0  0.71937  0.70109  0.26961  1.0000
  H   H25       1.0  0.43448  0.13840  0.56832  1.0000
  H   H26       1.0  0.56553  0.86160  0.43168  1.0000
  H   H27       1.0  0.32400  0.03059  0.66474  1.0000
  H   H28       1.0  0.67601  0.96941  0.33527  1.0000
  C   C1        1.0  0.84382  0.44614  0.29570  1.0000
  C   C2        1.0  0.15618  0.55386  0.70430  1.0000
  C   C3        1.0  0.84904  0.57300  0.42838  1.0000
  C   C4        1.0  0.15096  0.42700  0.57162  1.0000
  C   C5        1.0  0.72644  0.18010  0.13093  1.0000
  C   C6        1.0  0.27356  0.81990  0.86908  1.0000
  C   C7        1.0  0.74988  0.67074  0.64772  1.0000
  C   C8        1.0  0.25012  0.32926  0.35228  1.0000
  C   C9        1.0  0.95439  0.84403  0.58390  1.0000
  C   C10       1.0  0.04561  0.15598  0.41610  1.0000
  C   C11       1.0  0.95729  0.72700  0.46051  1.0000
  C   C12       1.0  0.04271  0.27300  0.53950  1.0000
  C   C13       1.0  0.72446  0.29571  0.25565  1.0000
  C   C14       1.0  0.27554  0.70428  0.74434  1.0000
  C   C15       1.0  0.95041  0.34977  0.07988  1.0000
  C   C16       1.0  0.04958  0.65023  0.92011  1.0000
  C   C17       1.0  0.39590  0.28749  0.91907  1.0000
  C   C18       1.0  0.60410  0.71250  0.08093  1.0000
  C   C19       1.0  0.23346  0.17559  0.93865  1.0000
  C   C20       1.0  0.76654  0.82441  0.06135  1.0000
  C   C21       1.0  0.74440  0.54668  0.52657  1.0000
  C   C22       1.0  0.25560  0.45332  0.47343  1.0000
  C   C23       1.0  0.95752  0.47218  0.20237  1.0000
  C   C24       1.0  0.04246  0.52782  0.79762  1.0000
  C   C25       1.0  0.60760  0.11149  0.72248  1.0000
  C   C26       1.0  0.39240  0.88851  0.27752  1.0000
  C   C27       1.0  0.40412  0.28415  0.77181  1.0000
  C   C28       1.0  0.59588  0.71585  0.22819  1.0000
  C   C29       1.0  0.43264  0.13259  0.67235  1.0000
  C   C30       1.0  0.56736  0.86741  0.32765  1.0000
  N   N1        1.0  0.83934  0.20444  0.04442  1.0000
  N   N2        1.0  0.16065  0.79556  0.95558  1.0000
  N   N3        1.0  0.85307  0.81774  0.67691  1.0000
  N   N4        1.0  0.14693  0.18226  0.32310  1.0000
  O   O1        1.0  0.09510  0.12259  0.84635  1.0000
  O   O2        1.0  0.90490  0.87742  0.15365  1.0000
  O   O3        1.0  0.24695  0.14994  0.05098  1.0000
  O   O4        1.0  0.75304  0.85005  0.94901  1.0000
  O   O5        1.0  0.59752  0.99937  0.76947  1.0000
  O   O6        1.0  0.40248  0.00062  0.23052  1.0000
  O   O7        1.0  0.75148  0.20455  0.72176  1.0000
  O   O8        1.0  0.24852  0.79545  0.27825  1.0000
