data_image0
_chemical_formula_structural       Cu2H18C24N2Cl2O2
_chemical_formula_sum              "Cu2 H18 C24 N2 Cl2 O2"
_cell_length_a       3.75897
_cell_length_b       8.50712
_cell_length_c       15.9786
_cell_angle_alpha    94.5843
_cell_angle_beta     90.3503
_cell_angle_gamma    100.41

_space_group_name_H-M_alt    "P 1"
_space_group_IT_number       1

loop_
  _space_group_symop_operation_xyz
  'x, y, z'

loop_
  _atom_site_type_symbol
  _atom_site_label
  _atom_site_symmetry_multiplicity
  _atom_site_fract_x
  _atom_site_fract_y
  _atom_site_fract_z
  _atom_site_occupancy
  Cu  Cu1       1.0  0.54324  0.34369  0.49554  1.0000
  Cu  Cu2       1.0  0.45680  0.65631  0.50446  1.0000
  H   H1        1.0  0.41888  0.43409  0.67169  1.0000
  H   H2        1.0  0.58112  0.56590  0.32830  1.0000
  H   H3        1.0  0.48046  0.31926  0.80911  1.0000
  H   H4        1.0  0.51953  0.68073  0.19089  1.0000
  H   H5        1.0  0.81601  0.91433  0.67097  1.0000
  H   H6        1.0  0.18398  0.08567  0.32903  1.0000
  H   H7        1.0  0.76624  0.04974  0.54169  1.0000
  H   H8        1.0  0.23379  0.95025  0.45831  1.0000
  H   H9        1.0  0.27577  0.81285  0.73043  1.0000
  H   H10       1.0  0.72423  0.18715  0.26957  1.0000
  H   H11       1.0  0.99796  0.54366  0.76394  1.0000
  H   H12       1.0  0.00201  0.45634  0.23606  1.0000
  H   H13       1.0  0.09098  0.45172  0.90549  1.0000
  H   H14       1.0  0.90899  0.54829  0.09451  1.0000
  H   H15       1.0  0.46974  0.63882  0.01389  1.0000
  H   H16       1.0  0.53024  0.36120  0.98611  1.0000
  H   H17       1.0  0.76063  0.90890  0.97978  1.0000
  H   H18       1.0  0.23935  0.09111  0.02023  1.0000
  C   C1        1.0  0.50911  0.32000  0.67488  1.0000
  C   C2        1.0  0.49089  0.68000  0.32512  1.0000
  C   C3        1.0  0.54396  0.25571  0.75086  1.0000
  C   C4        1.0  0.45605  0.74428  0.24914  1.0000
  C   C5        1.0  0.65275  0.10686  0.75219  1.0000
  C   C6        1.0  0.34725  0.89315  0.24781  1.0000
  C   C7        1.0  0.72709  0.02966  0.67531  1.0000
  C   C8        1.0  0.27292  0.97033  0.32469  1.0000
  C   C9        1.0  0.69728  0.10443  0.60203  1.0000
  C   C10       1.0  0.30273  0.89557  0.39797  1.0000
  C   C11       1.0  0.71012  0.04544  0.83589  1.0000
  C   C12       1.0  0.28987  0.95456  0.16411  1.0000
  C   C13       1.0  0.54209  0.88055  0.85277  1.0000
  C   C14       1.0  0.45788  0.11945  0.14723  1.0000
  C   C15       1.0  0.32511  0.77581  0.79244  1.0000
  C   C16       1.0  0.67489  0.22419  0.20756  1.0000
  C   C17       1.0  0.16725  0.62233  0.81128  1.0000
  C   C18       1.0  0.83273  0.37767  0.18872  1.0000
  C   C19       1.0  0.21881  0.57190  0.89081  1.0000
  C   C20       1.0  0.78118  0.42810  0.10919  1.0000
  C   C21       1.0  0.43092  0.67616  0.95144  1.0000
  C   C22       1.0  0.56906  0.32385  0.04856  1.0000
  C   C23       1.0  0.59271  0.82896  0.93272  1.0000
  C   C24       1.0  0.40727  0.17105  0.06728  1.0000
  N   N1        1.0  0.58725  0.24698  0.60057  1.0000
  N   N2        1.0  0.41277  0.75301  0.39943  1.0000
  Cl  Cl1       1.0  0.93467  0.65006  0.58550  1.0000
  Cl  Cl2       1.0  0.06536  0.34993  0.41450  1.0000
  O   O1        1.0  0.89697  0.13917  0.88924  1.0000
  O   O2        1.0  0.10304  0.86083  0.11076  1.0000
