data_image0
_chemical_formula_structural       Ag4H20C20Br4N4
_chemical_formula_sum              "Ag4 H20 C20 Br4 N4"
_cell_length_a       4.17041
_cell_length_b       9.10434
_cell_length_c       16.8318
_cell_angle_alpha    90.0007
_cell_angle_beta     89.9999
_cell_angle_gamma    94.6644

_space_group_name_H-M_alt    "P 1"
_space_group_IT_number       1

loop_
  _space_group_symop_operation_xyz
  'x, y, z'

loop_
  _atom_site_type_symbol
  _atom_site_label
  _atom_site_symmetry_multiplicity
  _atom_site_fract_x
  _atom_site_fract_y
  _atom_site_fract_z
  _atom_site_occupancy
  Ag  Ag1       1.0  0.26194  0.54201  0.06076  1.0000
  Ag  Ag2       1.0  0.23805  0.95798  0.56077  1.0000
  Ag  Ag3       1.0  0.73806  0.45800  0.93922  1.0000
  Ag  Ag4       1.0  0.76193  0.04201  0.43923  1.0000
  H   H1        1.0  0.85094  0.64578  0.20366  1.0000
  H   H2        1.0  0.64908  0.85422  0.70366  1.0000
  H   H3        1.0  0.14905  0.35421  0.79634  1.0000
  H   H4        1.0  0.35093  0.14578  0.29634  1.0000
  H   H5        1.0  0.67768  0.87545  0.26728  1.0000
  H   H6        1.0  0.82235  0.62455  0.76728  1.0000
  H   H7        1.0  0.32231  0.12455  0.73271  1.0000
  H   H8        1.0  0.17768  0.37544  0.23272  1.0000
  H   H9        1.0  0.85187  0.12021  0.20428  1.0000
  H   H10       1.0  0.64814  0.37979  0.70428  1.0000
  H   H11       1.0  0.14812  0.87979  0.79572  1.0000
  H   H12       1.0  0.35187  0.62022  0.29572  1.0000
  H   H13       1.0  0.19886  0.12434  0.08315  1.0000
  H   H14       1.0  0.30116  0.37566  0.58315  1.0000
  H   H15       1.0  0.80115  0.87566  0.91685  1.0000
  H   H16       1.0  0.69885  0.62434  0.41685  1.0000
  H   H17       1.0  0.35107  0.88296  0.02720  1.0000
  H   H18       1.0  0.14896  0.61703  0.52720  1.0000
  H   H19       1.0  0.64892  0.11704  0.97280  1.0000
  H   H20       1.0  0.85105  0.38297  0.47280  1.0000
  C   C1        1.0  0.92494  0.75438  0.17937  1.0000
  C   C2        1.0  0.57508  0.74561  0.67938  1.0000
  C   C3        1.0  0.07504  0.24561  0.82063  1.0000
  C   C4        1.0  0.42493  0.25438  0.32063  1.0000
  C   C5        1.0  0.82821  0.88231  0.21423  1.0000
  C   C6        1.0  0.67181  0.61769  0.71423  1.0000
  C   C7        1.0  0.17176  0.11769  0.78577  1.0000
  C   C8        1.0  0.32821  0.38231  0.28577  1.0000
  C   C9        1.0  0.92609  0.01761  0.17953  1.0000
  C   C10       1.0  0.57392  0.48239  0.67953  1.0000
  C   C11       1.0  0.07390  0.98238  0.82047  1.0000
  C   C12       1.0  0.42609  0.51761  0.32047  1.0000
  C   C13       1.0  0.11742  0.02027  0.11148  1.0000
  C   C14       1.0  0.38260  0.47972  0.61148  1.0000
  C   C15       1.0  0.88258  0.97972  0.88852  1.0000
  C   C16       1.0  0.61742  0.52028  0.38852  1.0000
  C   C17       1.0  0.20392  0.88723  0.08062  1.0000
  C   C18       1.0  0.29610  0.61277  0.58062  1.0000
  C   C19       1.0  0.79607  0.11277  0.91938  1.0000
  C   C20       1.0  0.70391  0.38724  0.41938  1.0000
  Br  Br1       1.0  0.70390  0.36339  0.09965  1.0000
  Br  Br2       1.0  0.79608  0.13661  0.59965  1.0000
  Br  Br3       1.0  0.29608  0.63664  0.90035  1.0000
  Br  Br4       1.0  0.20391  0.86337  0.40035  1.0000
  N   N1        1.0  0.11066  0.75614  0.11388  1.0000
  N   N2        1.0  0.38936  0.74385  0.61389  1.0000
  N   N3        1.0  0.88934  0.24385  0.88612  1.0000
  N   N4        1.0  0.61064  0.25615  0.38612  1.0000
