data_image0
_chemical_formula_structural       Ag4H44C32Br4N4
_chemical_formula_sum              "Ag4 H44 C32 Br4 N4"
_cell_length_a       4.24288
_cell_length_b       13.5901
_cell_length_c       15.5565
_cell_angle_alpha    89.9996
_cell_angle_beta     90.0002
_cell_angle_gamma    90.5207

_space_group_name_H-M_alt    "P 1"
_space_group_IT_number       1

loop_
  _space_group_symop_operation_xyz
  'x, y, z'

loop_
  _atom_site_type_symbol
  _atom_site_label
  _atom_site_symmetry_multiplicity
  _atom_site_fract_x
  _atom_site_fract_y
  _atom_site_fract_z
  _atom_site_occupancy
  Ag  Ag1       1.0  0.81853  0.57563  0.56127  1.0000
  Ag  Ag2       1.0  0.18147  0.92437  0.06127  1.0000
  Ag  Ag3       1.0  0.18147  0.42437  0.43873  1.0000
  Ag  Ag4       1.0  0.81852  0.07563  0.93873  1.0000
  H   H1        1.0  0.32461  0.67427  0.47095  1.0000
  H   H2        1.0  0.67539  0.82573  0.97095  1.0000
  H   H3        1.0  0.67538  0.32573  0.52905  1.0000
  H   H4        1.0  0.32461  0.17427  0.02905  1.0000
  H   H5        1.0  0.00413  0.72212  0.41343  1.0000
  H   H6        1.0  0.99587  0.77788  0.91342  1.0000
  H   H7        1.0  0.99587  0.27788  0.58657  1.0000
  H   H8        1.0  0.00413  0.22212  0.08657  1.0000
  H   H9        1.0  0.36649  0.79027  0.41975  1.0000
  H   H10       1.0  0.63351  0.70974  0.91975  1.0000
  H   H11       1.0  0.63350  0.20973  0.58025  1.0000
  H   H12       1.0  0.36650  0.29026  0.08025  1.0000
  H   H13       1.0  0.33515  0.92846  0.51185  1.0000
  H   H14       1.0  0.66484  0.57154  0.01185  1.0000
  H   H15       1.0  0.66484  0.07153  0.48814  1.0000
  H   H16       1.0  0.33515  0.42847  0.98815  1.0000
  H   H17       1.0  0.42032  0.04970  0.63423  1.0000
  H   H18       1.0  0.57968  0.45030  0.13423  1.0000
  H   H19       1.0  0.57968  0.95030  0.36577  1.0000
  H   H20       1.0  0.42032  0.54970  0.86577  1.0000
  H   H21       1.0  0.16386  0.04647  0.72472  1.0000
  H   H22       1.0  0.83615  0.45353  0.22472  1.0000
  H   H23       1.0  0.83615  0.95352  0.27528  1.0000
  H   H24       1.0  0.16386  0.54648  0.77528  1.0000
  H   H25       1.0  0.02735  0.08970  0.62310  1.0000
  H   H26       1.0  0.97265  0.41031  0.12310  1.0000
  H   H27       1.0  0.97266  0.91031  0.37690  1.0000
  H   H28       1.0  0.02735  0.58970  0.87690  1.0000
  H   H29       1.0  0.79565  0.90694  0.74585  1.0000
  H   H30       1.0  0.20434  0.59307  0.24585  1.0000
  H   H31       1.0  0.20434  0.09307  0.25415  1.0000
  H   H32       1.0  0.79565  0.40694  0.75415  1.0000
  H   H33       1.0  0.41740  0.67753  0.68271  1.0000
  H   H34       1.0  0.58261  0.82247  0.18271  1.0000
  H   H35       1.0  0.58261  0.32247  0.31729  1.0000
  H   H36       1.0  0.41740  0.17753  0.81729  1.0000
  H   H37       1.0  0.73981  0.66336  0.75295  1.0000
  H   H38       1.0  0.26019  0.83664  0.25294  1.0000
  H   H39       1.0  0.26020  0.33664  0.24705  1.0000
  H   H40       1.0  0.73982  0.16337  0.74706  1.0000
  H   H41       1.0  0.47774  0.76370  0.76866  1.0000
  H   H42       1.0  0.52226  0.73630  0.26866  1.0000
  H   H43       1.0  0.52227  0.23630  0.23134  1.0000
  H   H44       1.0  0.47774  0.26370  0.73134  1.0000
  C   C1        1.0  0.08920  0.79223  0.53541  1.0000
  C   C2        1.0  0.91079  0.70777  0.03540  1.0000
  C   C3        1.0  0.91079  0.20777  0.46459  1.0000
  C   C4        1.0  0.08921  0.29223  0.96460  1.0000
  C   C5        1.0  0.20205  0.74302  0.45549  1.0000
  C   C6        1.0  0.79795  0.75698  0.95549  1.0000
  C   C7        1.0  0.79795  0.25698  0.54451  1.0000
  C   C8        1.0  0.20205  0.24302  0.04451  1.0000
  C   C9        1.0  0.17809  0.88857  0.55538  1.0000
  C   C10       1.0  0.82189  0.61143  0.05538  1.0000
  C   C11       1.0  0.82189  0.11143  0.44462  1.0000
  C   C12       1.0  0.17810  0.38857  0.94462  1.0000
  C   C13       1.0  0.07690  0.93255  0.63168  1.0000
  C   C14       1.0  0.92309  0.56746  0.13168  1.0000
  C   C15       1.0  0.92310  0.06745  0.36832  1.0000
  C   C16       1.0  0.07690  0.43255  0.86832  1.0000
  C   C17       1.0  0.17705  0.03509  0.65503  1.0000
  C   C18       1.0  0.82295  0.46491  0.15503  1.0000
  C   C19       1.0  0.82295  0.96491  0.34496  1.0000
  C   C20       1.0  0.17705  0.53509  0.84497  1.0000
  C   C21       1.0  0.88059  0.87673  0.68521  1.0000
  C   C22       1.0  0.11940  0.62327  0.18521  1.0000
  C   C23       1.0  0.11940  0.12327  0.31479  1.0000
  C   C24       1.0  0.88059  0.37673  0.81479  1.0000
  C   C25       1.0  0.79680  0.78054  0.66234  1.0000
  C   C26       1.0  0.20321  0.71946  0.16234  1.0000
  C   C27       1.0  0.20321  0.21946  0.33766  1.0000
  C   C28       1.0  0.79679  0.28054  0.83766  1.0000
  C   C29       1.0  0.59481  0.71847  0.72003  1.0000
  C   C30       1.0  0.40520  0.78153  0.22003  1.0000
  C   C31       1.0  0.40520  0.28152  0.27997  1.0000
  C   C32       1.0  0.59480  0.21848  0.77997  1.0000
  Br  Br1       1.0  0.31833  0.46756  0.61523  1.0000
  Br  Br2       1.0  0.68169  0.03243  0.11522  1.0000
  Br  Br3       1.0  0.68167  0.53243  0.38478  1.0000
  Br  Br4       1.0  0.31833  0.96757  0.88478  1.0000
  N   N1        1.0  0.90150  0.73895  0.58875  1.0000
  N   N2        1.0  0.09850  0.76105  0.08874  1.0000
  N   N3        1.0  0.09849  0.26104  0.41126  1.0000
  N   N4        1.0  0.90151  0.23895  0.91126  1.0000
