data_image0
_chemical_formula_structural       Ag4H44C32I4N4
_chemical_formula_sum              "Ag4 H44 C32 I4 N4"
_cell_length_a       4.48408
_cell_length_b       13.4481
_cell_length_c       15.9061
_cell_angle_alpha    89.9997
_cell_angle_beta     90.0004
_cell_angle_gamma    91.4925

_space_group_name_H-M_alt    "P 1"
_space_group_IT_number       1

loop_
  _space_group_symop_operation_xyz
  'x, y, z'

loop_
  _atom_site_type_symbol
  _atom_site_label
  _atom_site_symmetry_multiplicity
  _atom_site_fract_x
  _atom_site_fract_y
  _atom_site_fract_z
  _atom_site_occupancy
  Ag  Ag1       1.0  0.82836  0.57374  0.55963  1.0000
  Ag  Ag2       1.0  0.17165  0.92627  0.05964  1.0000
  Ag  Ag3       1.0  0.17165  0.42626  0.44037  1.0000
  Ag  Ag4       1.0  0.82835  0.07373  0.94037  1.0000
  H   H1        1.0  0.16889  0.66863  0.45848  1.0000
  H   H2        1.0  0.83110  0.83137  0.95848  1.0000
  H   H3        1.0  0.83112  0.33136  0.54152  1.0000
  H   H4        1.0  0.16890  0.16864  0.04152  1.0000
  H   H5        1.0  0.16296  0.78324  0.40356  1.0000
  H   H6        1.0  0.83704  0.71676  0.90357  1.0000
  H   H7        1.0  0.83706  0.21675  0.59643  1.0000
  H   H8        1.0  0.16296  0.28324  0.09643  1.0000
  H   H9        1.0  0.48036  0.75215  0.46371  1.0000
  H   H10       1.0  0.51963  0.74785  0.96371  1.0000
  H   H11       1.0  0.51965  0.24785  0.53629  1.0000
  H   H12       1.0  0.48037  0.25215  0.03629  1.0000
  H   H13       1.0  0.33234  0.93646  0.51363  1.0000
  H   H14       1.0  0.66763  0.56354  0.01364  1.0000
  H   H15       1.0  0.66764  0.06354  0.48636  1.0000
  H   H16       1.0  0.33236  0.43647  0.98636  1.0000
  H   H17       1.0  0.27374  0.08482  0.59877  1.0000
  H   H18       1.0  0.72627  0.41517  0.09877  1.0000
  H   H19       1.0  0.72627  0.91517  0.40123  1.0000
  H   H20       1.0  0.27373  0.58483  0.90123  1.0000
  H   H21       1.0  0.31797  0.04418  0.70499  1.0000
  H   H22       1.0  0.68205  0.45582  0.20500  1.0000
  H   H23       1.0  0.68204  0.95581  0.29500  1.0000
  H   H24       1.0  0.31795  0.54418  0.79500  1.0000
  H   H25       1.0  0.97179  0.08800  0.67170  1.0000
  H   H26       1.0  0.02824  0.41200  0.17171  1.0000
  H   H27       1.0  0.02823  0.91200  0.32829  1.0000
  H   H28       1.0  0.97176  0.58800  0.82829  1.0000
  H   H29       1.0  0.78773  0.91538  0.73635  1.0000
  H   H30       1.0  0.21226  0.58462  0.23636  1.0000
  H   H31       1.0  0.21227  0.08462  0.26364  1.0000
  H   H32       1.0  0.78775  0.41538  0.76364  1.0000
  H   H33       1.0  0.40514  0.69825  0.67642  1.0000
  H   H34       1.0  0.59484  0.80175  0.17643  1.0000
  H   H35       1.0  0.59486  0.30175  0.32358  1.0000
  H   H36       1.0  0.40515  0.19825  0.82358  1.0000
  H   H37       1.0  0.71679  0.65568  0.73142  1.0000
  H   H38       1.0  0.28321  0.84432  0.23142  1.0000
  H   H39       1.0  0.28321  0.34432  0.26858  1.0000
  H   H40       1.0  0.71679  0.15568  0.76858  1.0000
  H   H41       1.0  0.53276  0.76462  0.76747  1.0000
  H   H42       1.0  0.46724  0.73539  0.26748  1.0000
  H   H43       1.0  0.46725  0.23538  0.23253  1.0000
  H   H44       1.0  0.53276  0.26461  0.73253  1.0000
  C   C1        1.0  0.10571  0.79647  0.53744  1.0000
  C   C2        1.0  0.89427  0.70353  0.03744  1.0000
  C   C3        1.0  0.89428  0.20353  0.46255  1.0000
  C   C4        1.0  0.10573  0.29647  0.96256  1.0000
  C   C5        1.0  0.23560  0.74750  0.46188  1.0000
  C   C6        1.0  0.76440  0.75249  0.96189  1.0000
  C   C7        1.0  0.76441  0.25249  0.53812  1.0000
  C   C8        1.0  0.23560  0.24751  0.03812  1.0000
  C   C9        1.0  0.18185  0.89560  0.55584  1.0000
  C   C10       1.0  0.81815  0.60441  0.05585  1.0000
  C   C11       1.0  0.81813  0.10440  0.44415  1.0000
  C   C12       1.0  0.18185  0.39560  0.94415  1.0000
  C   C13       1.0  0.07213  0.94120  0.62777  1.0000
  C   C14       1.0  0.92786  0.55880  0.12778  1.0000
  C   C15       1.0  0.92786  0.05880  0.37222  1.0000
  C   C16       1.0  0.07214  0.44120  0.87223  1.0000
  C   C17       1.0  0.16406  0.04539  0.65108  1.0000
  C   C18       1.0  0.83596  0.45462  0.15109  1.0000
  C   C19       1.0  0.83594  0.95461  0.34891  1.0000
  C   C20       1.0  0.16404  0.54538  0.84891  1.0000
  C   C21       1.0  0.87989  0.88403  0.67896  1.0000
  C   C22       1.0  0.12010  0.61596  0.17897  1.0000
  C   C23       1.0  0.12010  0.11596  0.32103  1.0000
  C   C24       1.0  0.87991  0.38404  0.82103  1.0000
  C   C25       1.0  0.80695  0.78590  0.65753  1.0000
  C   C26       1.0  0.19304  0.71411  0.15754  1.0000
  C   C27       1.0  0.19305  0.21411  0.34247  1.0000
  C   C28       1.0  0.80695  0.28589  0.84246  1.0000
  C   C29       1.0  0.60374  0.72346  0.71173  1.0000
  C   C30       1.0  0.39626  0.77655  0.21173  1.0000
  C   C31       1.0  0.39627  0.27654  0.28827  1.0000
  C   C32       1.0  0.60373  0.22346  0.78827  1.0000
  I   I1        1.0  0.31971  0.46455  0.61998  1.0000
  I   I2        1.0  0.68030  0.03546  0.11998  1.0000
  I   I3        1.0  0.68030  0.53545  0.38002  1.0000
  I   I4        1.0  0.31969  0.96455  0.88002  1.0000
  N   N1        1.0  0.91979  0.74253  0.58769  1.0000
  N   N2        1.0  0.08020  0.75748  0.08770  1.0000
  N   N3        1.0  0.08020  0.25747  0.41231  1.0000
  N   N4        1.0  0.91980  0.24253  0.91231  1.0000
