data_image0
_chemical_formula_structural       Ag4H36C40N4Cl4
_chemical_formula_sum              "Ag4 H36 C40 N4 Cl4"
_cell_length_a       4.0236
_cell_length_b       14.8994
_cell_length_c       15.2612
_cell_angle_alpha    90.0005
_cell_angle_beta     90.0004
_cell_angle_gamma    94.1302

_space_group_name_H-M_alt    "P 1"
_space_group_IT_number       1

loop_
  _space_group_symop_operation_xyz
  'x, y, z'

loop_
  _atom_site_type_symbol
  _atom_site_label
  _atom_site_symmetry_multiplicity
  _atom_site_fract_x
  _atom_site_fract_y
  _atom_site_fract_z
  _atom_site_occupancy
  Ag  Ag1       1.0  0.31383  0.92112  0.04351  1.0000
  Ag  Ag2       1.0  0.18618  0.57887  0.54351  1.0000
  Ag  Ag3       1.0  0.68617  0.07887  0.95649  1.0000
  Ag  Ag4       1.0  0.81384  0.42112  0.45649  1.0000
  H   H1        1.0  0.81329  0.77490  0.08194  1.0000
  H   H2        1.0  0.68671  0.72511  0.58194  1.0000
  H   H3        1.0  0.18670  0.22511  0.91806  1.0000
  H   H4        1.0  0.31331  0.27489  0.41806  1.0000
  H   H5        1.0  0.17462  0.71605  0.06689  1.0000
  H   H6        1.0  0.32537  0.78395  0.56689  1.0000
  H   H7        1.0  0.82537  0.28395  0.93312  1.0000
  H   H8        1.0  0.67464  0.21605  0.43311  1.0000
  H   H9        1.0  0.84705  0.66804  0.13437  1.0000
  H   H10       1.0  0.65293  0.83197  0.63437  1.0000
  H   H11       1.0  0.15294  0.33197  0.86563  1.0000
  H   H12       1.0  0.34707  0.16803  0.36563  1.0000
  H   H13       1.0  0.96433  0.67772  0.28790  1.0000
  H   H14       1.0  0.53565  0.82228  0.78790  1.0000
  H   H15       1.0  0.03564  0.32228  0.71210  1.0000
  H   H16       1.0  0.46438  0.17771  0.21210  1.0000
  H   H17       1.0  0.23564  0.75674  0.41331  1.0000
  H   H18       1.0  0.26436  0.74326  0.91331  1.0000
  H   H19       1.0  0.76434  0.24326  0.58669  1.0000
  H   H20       1.0  0.73565  0.25674  0.08669  1.0000
  H   H21       1.0  0.58628  0.89318  0.46958  1.0000
  H   H22       1.0  0.91374  0.60682  0.96958  1.0000
  H   H23       1.0  0.41373  0.10682  0.53042  1.0000
  H   H24       1.0  0.08624  0.39319  0.03042  1.0000
  H   H25       1.0  0.91031  0.03800  0.43837  1.0000
  H   H26       1.0  0.58971  0.46200  0.93836  1.0000
  H   H27       1.0  0.08971  0.96200  0.56163  1.0000
  H   H28       1.0  0.41027  0.53800  0.06164  1.0000
  H   H29       1.0  0.96397  0.09404  0.28399  1.0000
  H   H30       1.0  0.53604  0.40596  0.78398  1.0000
  H   H31       1.0  0.03604  0.90595  0.71601  1.0000
  H   H32       1.0  0.46395  0.59405  0.21602  1.0000
  H   H33       1.0  0.68508  0.00928  0.16305  1.0000
  H   H34       1.0  0.81493  0.49072  0.66304  1.0000
  H   H35       1.0  0.31491  0.99072  0.83696  1.0000
  H   H36       1.0  0.18509  0.50928  0.33696  1.0000
  C   C1        1.0  0.14394  0.77855  0.19256  1.0000
  C   C2        1.0  0.35605  0.72145  0.69256  1.0000
  C   C3        1.0  0.85603  0.22145  0.80744  1.0000
  C   C4        1.0  0.64397  0.27855  0.30744  1.0000
  C   C5        1.0  0.98338  0.73128  0.11514  1.0000
  C   C6        1.0  0.51662  0.76873  0.61514  1.0000
  C   C7        1.0  0.01660  0.26872  0.88486  1.0000
  C   C8        1.0  0.48340  0.23127  0.38486  1.0000
  C   C9        1.0  0.11097  0.74116  0.27765  1.0000
  C   C10       1.0  0.38903  0.75884  0.77765  1.0000
  C   C11       1.0  0.88901  0.25884  0.72236  1.0000
  C   C12       1.0  0.61099  0.24116  0.22235  1.0000
  C   C13       1.0  0.26032  0.78576  0.34781  1.0000
  C   C14       1.0  0.23968  0.71424  0.84781  1.0000
  C   C15       1.0  0.73966  0.21424  0.65219  1.0000
  C   C16       1.0  0.76033  0.28576  0.15219  1.0000
  C   C17       1.0  0.44746  0.86856  0.33422  1.0000
  C   C18       1.0  0.05255  0.63144  0.83422  1.0000
  C   C19       1.0  0.55254  0.13144  0.66578  1.0000
  C   C20       1.0  0.94745  0.36856  0.16578  1.0000
  C   C21       1.0  0.60770  0.91915  0.40284  1.0000
  C   C22       1.0  0.89233  0.58085  0.90284  1.0000
  C   C23       1.0  0.39232  0.08085  0.59716  1.0000
  C   C24       1.0  0.10766  0.41915  0.09716  1.0000
  C   C25       1.0  0.78738  0.99945  0.38533  1.0000
  C   C26       1.0  0.71263  0.50055  0.88533  1.0000
  C   C27       1.0  0.21262  0.00055  0.61467  1.0000
  C   C28       1.0  0.28736  0.49945  0.11467  1.0000
  C   C29       1.0  0.81674  0.03152  0.29828  1.0000
  C   C30       1.0  0.68328  0.46848  0.79827  1.0000
  C   C31       1.0  0.18327  0.96848  0.70172  1.0000
  C   C32       1.0  0.31672  0.53153  0.20173  1.0000
  C   C33       1.0  0.66180  0.98437  0.23016  1.0000
  C   C34       1.0  0.83821  0.51563  0.73015  1.0000
  C   C35       1.0  0.33820  0.01563  0.76984  1.0000
  C   C36       1.0  0.16180  0.48437  0.26984  1.0000
  C   C37       1.0  0.47255  0.90234  0.24641  1.0000
  C   C38       1.0  0.02747  0.59766  0.74641  1.0000
  C   C39       1.0  0.52745  0.09766  0.75359  1.0000
  C   C40       1.0  0.97254  0.40234  0.25359  1.0000
  N   N1        1.0  0.31828  0.85678  0.17780  1.0000
  N   N2        1.0  0.18173  0.64322  0.67780  1.0000
  N   N3        1.0  0.68171  0.14321  0.82220  1.0000
  N   N4        1.0  0.81828  0.35678  0.32220  1.0000
  Cl  Cl1       1.0  0.80444  0.89820  0.93829  1.0000
  Cl  Cl2       1.0  0.69556  0.60180  0.43829  1.0000
  Cl  Cl3       1.0  0.19556  0.10180  0.06171  1.0000
  Cl  Cl4       1.0  0.30445  0.39819  0.56171  1.0000
