data_image0
_chemical_formula_structural       Ag8H40C40I8N8
_chemical_formula_sum              "Ag8 H40 C40 I8 N8"
_cell_length_a       9.1035
_cell_length_b       9.29179
_cell_length_c       16.7411
_cell_angle_alpha    90.0005
_cell_angle_beta     89.9999
_cell_angle_gamma    106.379

_space_group_name_H-M_alt    "P 1"
_space_group_IT_number       1

loop_
  _space_group_symop_operation_xyz
  'x, y, z'

loop_
  _atom_site_type_symbol
  _atom_site_label
  _atom_site_symmetry_multiplicity
  _atom_site_fract_x
  _atom_site_fract_y
  _atom_site_fract_z
  _atom_site_occupancy
  Ag  Ag1       1.0  0.35476  0.93007  0.95598  1.0000
  Ag  Ag2       1.0  0.14523  0.56993  0.45598  1.0000
  Ag  Ag3       1.0  0.64523  0.06995  0.04402  1.0000
  Ag  Ag4       1.0  0.85477  0.43005  0.54402  1.0000
  Ag  Ag5       1.0  0.85430  0.93446  0.95733  1.0000
  Ag  Ag6       1.0  0.64571  0.56554  0.45732  1.0000
  Ag  Ag7       1.0  0.14569  0.06554  0.04268  1.0000
  Ag  Ag8       1.0  0.35430  0.43446  0.54268  1.0000
  H   H1        1.0  0.05368  0.04971  0.80075  1.0000
  H   H2        1.0  0.44633  0.45030  0.30074  1.0000
  H   H3        1.0  0.94632  0.95029  0.19926  1.0000
  H   H4        1.0  0.55368  0.54972  0.69926  1.0000
  H   H5        1.0  0.59005  0.84124  0.82510  1.0000
  H   H6        1.0  0.90997  0.65876  0.32510  1.0000
  H   H7        1.0  0.40995  0.15876  0.17490  1.0000
  H   H8        1.0  0.09004  0.34124  0.67490  1.0000
  H   H9        1.0  0.77403  0.95632  0.58827  1.0000
  H   H10       1.0  0.72598  0.54368  0.08827  1.0000
  H   H11       1.0  0.22599  0.04369  0.41173  1.0000
  H   H12       1.0  0.27402  0.45631  0.91173  1.0000
  H   H13       1.0  0.54903  0.84243  0.67641  1.0000
  H   H14       1.0  0.95097  0.65758  0.17641  1.0000
  H   H15       1.0  0.45097  0.15757  0.32359  1.0000
  H   H16       1.0  0.04903  0.34243  0.82359  1.0000
  H   H17       1.0  0.41464  0.17155  0.81531  1.0000
  H   H18       1.0  0.08536  0.32845  0.31531  1.0000
  H   H19       1.0  0.58535  0.82846  0.18468  1.0000
  H   H20       1.0  0.91464  0.67154  0.68469  1.0000
  H   H21       1.0  0.03143  0.06154  0.65163  1.0000
  H   H22       1.0  0.46858  0.43847  0.15163  1.0000
  H   H23       1.0  0.96858  0.93846  0.34837  1.0000
  H   H24       1.0  0.53143  0.56154  0.84837  1.0000
  H   H25       1.0  0.21901  0.71202  0.80923  1.0000
  H   H26       1.0  0.28099  0.78798  0.30923  1.0000
  H   H27       1.0  0.78099  0.28799  0.19077  1.0000
  H   H28       1.0  0.71901  0.21201  0.69077  1.0000
  H   H29       1.0  0.39424  0.19171  0.66622  1.0000
  H   H30       1.0  0.10576  0.30829  0.16622  1.0000
  H   H31       1.0  0.60575  0.80829  0.33378  1.0000
  H   H32       1.0  0.89424  0.69171  0.83378  1.0000
  H   H33       1.0  0.19171  0.71290  0.65990  1.0000
  H   H34       1.0  0.30829  0.78710  0.15991  1.0000
  H   H35       1.0  0.80829  0.28709  0.34010  1.0000
  H   H36       1.0  0.69171  0.21290  0.84010  1.0000
  H   H37       1.0  0.27973  0.95795  0.58723  1.0000
  H   H38       1.0  0.22027  0.54205  0.08724  1.0000
  H   H39       1.0  0.72026  0.04204  0.41276  1.0000
  H   H40       1.0  0.77974  0.45795  0.91277  1.0000
  C   C1        1.0  0.94369  0.00546  0.77082  1.0000
  C   C2        1.0  0.55632  0.49456  0.27081  1.0000
  C   C3        1.0  0.05632  0.99455  0.22919  1.0000
  C   C4        1.0  0.44368  0.50545  0.72919  1.0000
  C   C5        1.0  0.68474  0.88890  0.78425  1.0000
  C   C6        1.0  0.81526  0.61111  0.28425  1.0000
  C   C7        1.0  0.31526  0.11110  0.21575  1.0000
  C   C8        1.0  0.18474  0.38890  0.71575  1.0000
  C   C9        1.0  0.78771  0.95303  0.65287  1.0000
  C   C10       1.0  0.71229  0.54698  0.15287  1.0000
  C   C11       1.0  0.21229  0.04698  0.34713  1.0000
  C   C12       1.0  0.28771  0.45302  0.84713  1.0000
  C   C13       1.0  0.66237  0.89008  0.70192  1.0000
  C   C14       1.0  0.83764  0.60993  0.20192  1.0000
  C   C15       1.0  0.33764  0.10992  0.29808  1.0000
  C   C16       1.0  0.16237  0.39008  0.79808  1.0000
  C   C17       1.0  0.36624  0.07258  0.77846  1.0000
  C   C18       1.0  0.13376  0.42742  0.27846  1.0000
  C   C19       1.0  0.63376  0.92743  0.22154  1.0000
  C   C20       1.0  0.86623  0.57257  0.72154  1.0000
  C   C21       1.0  0.93103  0.01162  0.68809  1.0000
  C   C22       1.0  0.56898  0.48840  0.18808  1.0000
  C   C23       1.0  0.06898  0.98839  0.31192  1.0000
  C   C24       1.0  0.43102  0.51161  0.81192  1.0000
  C   C25       1.0  0.25693  0.81587  0.77510  1.0000
  C   C26       1.0  0.24307  0.68412  0.27511  1.0000
  C   C27       1.0  0.74307  0.18413  0.22490  1.0000
  C   C28       1.0  0.75692  0.31587  0.72490  1.0000
  C   C29       1.0  0.35375  0.08346  0.69590  1.0000
  C   C30       1.0  0.14625  0.41654  0.19590  1.0000
  C   C31       1.0  0.64624  0.91654  0.30410  1.0000
  C   C32       1.0  0.85375  0.58346  0.80410  1.0000
  C   C33       1.0  0.24064  0.81694  0.69238  1.0000
  C   C34       1.0  0.25936  0.68306  0.19238  1.0000
  C   C35       1.0  0.75936  0.18306  0.30762  1.0000
  C   C36       1.0  0.74064  0.31693  0.80762  1.0000
  C   C37       1.0  0.29008  0.95336  0.65199  1.0000
  C   C38       1.0  0.20991  0.54664  0.15199  1.0000
  C   C39       1.0  0.70991  0.04664  0.34801  1.0000
  C   C40       1.0  0.79009  0.45336  0.84801  1.0000
  I   I1        1.0  0.54878  0.75502  0.00306  1.0000
  I   I2        1.0  0.95122  0.74499  0.50307  1.0000
  I   I3        1.0  0.45122  0.24500  0.99694  1.0000
  I   I4        1.0  0.04878  0.25499  0.49694  1.0000
  I   I5        1.0  0.04774  0.75324  0.99801  1.0000
  I   I6        1.0  0.45226  0.74676  0.49801  1.0000
  I   I7        1.0  0.95226  0.24677  0.00199  1.0000
  I   I8        1.0  0.54774  0.25323  0.50198  1.0000
  N   N1        1.0  0.31953  0.94122  0.81770  1.0000
  N   N2        1.0  0.18046  0.55877  0.31771  1.0000
  N   N3        1.0  0.68046  0.05878  0.18229  1.0000
  N   N4        1.0  0.81953  0.44122  0.68229  1.0000
  N   N5        1.0  0.82274  0.94529  0.81849  1.0000
  N   N6        1.0  0.67727  0.55473  0.31849  1.0000
  N   N7        1.0  0.17726  0.05471  0.18151  1.0000
  N   N8        1.0  0.32273  0.44528  0.68151  1.0000
