data_image0
_chemical_formula_structural       Ag4H40C32S4N8O12
_chemical_formula_sum              "Ag4 H40 C32 S4 N8 O12"
_cell_length_a       7.12116
_cell_length_b       9.33889
_cell_length_c       15.815
_cell_angle_alpha    90.0001
_cell_angle_beta     90
_cell_angle_gamma    104.644

_space_group_name_H-M_alt    "P 1"
_space_group_IT_number       1

loop_
  _space_group_symop_operation_xyz
  'x, y, z'

loop_
  _atom_site_type_symbol
  _atom_site_label
  _atom_site_symmetry_multiplicity
  _atom_site_fract_x
  _atom_site_fract_y
  _atom_site_fract_z
  _atom_site_occupancy
  Ag  Ag1       1.0  0.29565  0.00010  0.02378  1.0000
  Ag  Ag2       1.0  0.70435  0.49990  0.52378  1.0000
  Ag  Ag3       1.0  0.70435  0.99990  0.97622  1.0000
  Ag  Ag4       1.0  0.29565  0.50010  0.47622  1.0000
  H   H1        1.0  0.17007  0.03225  0.20779  1.0000
  H   H2        1.0  0.82994  0.46775  0.70779  1.0000
  H   H3        1.0  0.82994  0.96775  0.79221  1.0000
  H   H4        1.0  0.17006  0.53225  0.29221  1.0000
  H   H5        1.0  0.28025  0.99624  0.35421  1.0000
  H   H6        1.0  0.71976  0.50376  0.85421  1.0000
  H   H7        1.0  0.71975  0.00375  0.64579  1.0000
  H   H8        1.0  0.28025  0.49624  0.14579  1.0000
  H   H9        1.0  0.54456  0.85974  0.37349  1.0000
  H   H10       1.0  0.45544  0.64026  0.87349  1.0000
  H   H11       1.0  0.45544  0.14026  0.62651  1.0000
  H   H12       1.0  0.54457  0.35974  0.12651  1.0000
  H   H13       1.0  0.68317  0.76957  0.24830  1.0000
  H   H14       1.0  0.31683  0.73043  0.74830  1.0000
  H   H15       1.0  0.31683  0.23043  0.75169  1.0000
  H   H16       1.0  0.68317  0.26957  0.25170  1.0000
  H   H17       1.0  0.72773  0.63203  0.15085  1.0000
  H   H18       1.0  0.27228  0.86797  0.65085  1.0000
  H   H19       1.0  0.27228  0.36797  0.84915  1.0000
  H   H20       1.0  0.72773  0.13203  0.34916  1.0000
  H   H21       1.0  0.89121  0.79592  0.11069  1.0000
  H   H22       1.0  0.10879  0.70408  0.61069  1.0000
  H   H23       1.0  0.10879  0.20408  0.88931  1.0000
  H   H24       1.0  0.89121  0.29592  0.38931  1.0000
  H   H25       1.0  0.67988  0.52430  0.00524  1.0000
  H   H26       1.0  0.32011  0.97570  0.50525  1.0000
  H   H27       1.0  0.32011  0.47570  0.99476  1.0000
  H   H28       1.0  0.67988  0.02430  0.49476  1.0000
  H   H29       1.0  0.84015  0.68561  0.96375  1.0000
  H   H30       1.0  0.15985  0.81439  0.46376  1.0000
  H   H31       1.0  0.15985  0.31439  0.03624  1.0000
  H   H32       1.0  0.84015  0.18561  0.53625  1.0000
  H   H33       1.0  0.11129  0.63641  0.04983  1.0000
  H   H34       1.0  0.88871  0.86359  0.54984  1.0000
  H   H35       1.0  0.88871  0.36359  0.95017  1.0000
  H   H36       1.0  0.11129  0.13641  0.45017  1.0000
  H   H37       1.0  0.94993  0.47753  0.09436  1.0000
  H   H38       1.0  0.05007  0.02246  0.59437  1.0000
  H   H39       1.0  0.05007  0.52247  0.90564  1.0000
  H   H40       1.0  0.94993  0.97753  0.40564  1.0000
  C   C1        1.0  0.28152  0.97312  0.21940  1.0000
  C   C2        1.0  0.71848  0.52689  0.71940  1.0000
  C   C3        1.0  0.71848  0.02688  0.78060  1.0000
  C   C4        1.0  0.28152  0.47311  0.28060  1.0000
  C   C5        1.0  0.34452  0.95291  0.30075  1.0000
  C   C6        1.0  0.65549  0.54709  0.80075  1.0000
  C   C7        1.0  0.65549  0.04709  0.69925  1.0000
  C   C8        1.0  0.34451  0.45291  0.19925  1.0000
  C   C9        1.0  0.49009  0.87905  0.31121  1.0000
  C   C10       1.0  0.50991  0.62095  0.81121  1.0000
  C   C11       1.0  0.50992  0.12095  0.68879  1.0000
  C   C12       1.0  0.49009  0.37905  0.18879  1.0000
  C   C13       1.0  0.56834  0.82630  0.24049  1.0000
  C   C14       1.0  0.43166  0.67370  0.74049  1.0000
  C   C15       1.0  0.43167  0.17370  0.75951  1.0000
  C   C16       1.0  0.56834  0.32630  0.25951  1.0000
  C   C17       1.0  0.49462  0.84865  0.16122  1.0000
  C   C18       1.0  0.50538  0.65135  0.66122  1.0000
  C   C19       1.0  0.50539  0.15136  0.83877  1.0000
  C   C20       1.0  0.49461  0.34864  0.33878  1.0000
  C   C21       1.0  0.76764  0.70291  0.09500  1.0000
  C   C22       1.0  0.23236  0.79708  0.59500  1.0000
  C   C23       1.0  0.23237  0.29709  0.90500  1.0000
  C   C24       1.0  0.76764  0.20291  0.40500  1.0000
  C   C25       1.0  0.80975  0.61384  0.01986  1.0000
  C   C26       1.0  0.19025  0.88616  0.51986  1.0000
  C   C27       1.0  0.19025  0.38616  0.98014  1.0000
  C   C28       1.0  0.80975  0.11384  0.48014  1.0000
  C   C29       1.0  0.98044  0.54669  0.03707  1.0000
  C   C30       1.0  0.01956  0.95331  0.53707  1.0000
  C   C31       1.0  0.01956  0.45331  0.96293  1.0000
  C   C32       1.0  0.98043  0.04669  0.46293  1.0000
  S   S1        1.0  0.56294  0.77609  0.06616  1.0000
  S   S2        1.0  0.43706  0.72391  0.56616  1.0000
  S   S3        1.0  0.43706  0.22391  0.93384  1.0000
  S   S4        1.0  0.56294  0.27609  0.43384  1.0000
  N   N1        1.0  0.35523  0.92215  0.15062  1.0000
  N   N2        1.0  0.64478  0.57785  0.65063  1.0000
  N   N3        1.0  0.64478  0.07786  0.84937  1.0000
  N   N4        1.0  0.35522  0.42214  0.34938  1.0000
  N   N5        1.0  0.10802  0.85549  0.86656  1.0000
  N   N6        1.0  0.89198  0.64451  0.36656  1.0000
  N   N7        1.0  0.89198  0.14451  0.13344  1.0000
  N   N8        1.0  0.10802  0.35549  0.63344  1.0000
  O   O1        1.0  0.03240  0.94171  0.91151  1.0000
  O   O2        1.0  0.96761  0.55829  0.41151  1.0000
  O   O3        1.0  0.96761  0.05829  0.08849  1.0000
  O   O4        1.0  0.03240  0.44172  0.58849  1.0000
  O   O5        1.0  0.24935  0.81294  0.89777  1.0000
  O   O6        1.0  0.75065  0.68706  0.39777  1.0000
  O   O7        1.0  0.75064  0.18706  0.10222  1.0000
  O   O8        1.0  0.24935  0.31293  0.60223  1.0000
  O   O9        1.0  0.04314  0.81575  0.79431  1.0000
  O   O10       1.0  0.95686  0.68426  0.29431  1.0000
  O   O11       1.0  0.95685  0.18426  0.20569  1.0000
  O   O12       1.0  0.04314  0.31574  0.70569  1.0000
