data_image0
_chemical_formula_structural       Ag4H44C32N4Cl4
_chemical_formula_sum              "Ag4 H44 C32 N4 Cl4"
_cell_length_a       4.06786
_cell_length_b       13.9861
_cell_length_c       15.2816
_cell_angle_alpha    90.0003
_cell_angle_beta     89.9994
_cell_angle_gamma    94.2153

_space_group_name_H-M_alt    "P 1"
_space_group_IT_number       1

loop_
  _space_group_symop_operation_xyz
  'x, y, z'

loop_
  _atom_site_type_symbol
  _atom_site_label
  _atom_site_symmetry_multiplicity
  _atom_site_fract_x
  _atom_site_fract_y
  _atom_site_fract_z
  _atom_site_occupancy
  Ag  Ag1       1.0  0.67770  0.98289  0.91086  1.0000
  Ag  Ag2       1.0  0.32232  0.51711  0.41087  1.0000
  Ag  Ag3       1.0  0.32234  0.01711  0.08913  1.0000
  Ag  Ag4       1.0  0.67767  0.48289  0.58914  1.0000
  H   H1        1.0  0.73234  0.85017  0.74508  1.0000
  H   H2        1.0  0.26761  0.64983  0.24509  1.0000
  H   H3        1.0  0.26768  0.14983  0.25492  1.0000
  H   H4        1.0  0.73234  0.35017  0.75492  1.0000
  H   H5        1.0  0.04747  0.87864  0.66640  1.0000
  H   H6        1.0  0.95249  0.62136  0.16641  1.0000
  H   H7        1.0  0.95256  0.12137  0.33360  1.0000
  H   H8        1.0  0.04746  0.37864  0.83360  1.0000
  H   H9        1.0  0.10283  0.91331  0.77847  1.0000
  H   H10       1.0  0.89715  0.58668  0.27848  1.0000
  H   H11       1.0  0.89719  0.08670  0.22153  1.0000
  H   H12       1.0  0.10282  0.41331  0.72153  1.0000
  H   H13       1.0  0.86743  0.99400  0.56718  1.0000
  H   H14       1.0  0.13253  0.50600  0.06719  1.0000
  H   H15       1.0  0.13257  0.00600  0.43282  1.0000
  H   H16       1.0  0.86742  0.49400  0.93282  1.0000
  H   H17       1.0  0.35922  0.18082  0.49869  1.0000
  H   H18       1.0  0.64077  0.31918  0.99870  1.0000
  H   H19       1.0  0.64075  0.81918  0.50130  1.0000
  H   H20       1.0  0.35922  0.68083  0.00131  1.0000
  H   H21       1.0  0.76966  0.22827  0.50980  1.0000
  H   H22       1.0  0.23033  0.27173  0.00981  1.0000
  H   H23       1.0  0.23034  0.77173  0.49019  1.0000
  H   H24       1.0  0.76967  0.72827  0.99019  1.0000
  H   H25       1.0  0.68616  0.11080  0.46460  1.0000
  H   H26       1.0  0.31384  0.38920  0.96460  1.0000
  H   H27       1.0  0.31384  0.88920  0.53540  1.0000
  H   H28       1.0  0.68617  0.61080  0.03541  1.0000
  H   H29       1.0  0.38083  0.23460  0.66604  1.0000
  H   H30       1.0  0.61919  0.26540  0.16604  1.0000
  H   H31       1.0  0.61919  0.76540  0.33395  1.0000
  H   H32       1.0  0.38084  0.73460  0.83396  1.0000
  H   H33       1.0  0.58205  0.19853  0.88400  1.0000
  H   H34       1.0  0.41797  0.30147  0.38401  1.0000
  H   H35       1.0  0.41796  0.80147  0.11599  1.0000
  H   H36       1.0  0.58205  0.69853  0.61600  1.0000
  H   H37       1.0  0.25545  0.24010  0.81896  1.0000
  H   H38       1.0  0.74456  0.25990  0.31896  1.0000
  H   H39       1.0  0.74457  0.75990  0.18104  1.0000
  H   H40       1.0  0.25546  0.74010  0.68104  1.0000
  H   H41       1.0  0.20805  0.12765  0.87392  1.0000
  H   H42       1.0  0.79195  0.37235  0.37392  1.0000
  H   H43       1.0  0.79196  0.87235  0.12608  1.0000
  H   H44       1.0  0.20806  0.62765  0.62608  1.0000
  C   C1        1.0  0.77816  0.99789  0.70562  1.0000
  C   C2        1.0  0.22182  0.50210  0.20563  1.0000
  C   C3        1.0  0.22185  0.00211  0.29438  1.0000
  C   C4        1.0  0.77816  0.49790  0.79438  1.0000
  C   C5        1.0  0.92443  0.90499  0.72445  1.0000
  C   C6        1.0  0.07554  0.59500  0.22447  1.0000
  C   C7        1.0  0.07559  0.09500  0.27554  1.0000
  C   C8        1.0  0.92442  0.40499  0.77554  1.0000
  C   C9        1.0  0.76532  0.03402  0.62065  1.0000
  C   C10       1.0  0.23466  0.46598  0.12065  1.0000
  C   C11       1.0  0.23468  0.96598  0.37935  1.0000
  C   C12       1.0  0.76531  0.53403  0.87935  1.0000
  C   C13       1.0  0.62439  0.12028  0.60421  1.0000
  C   C14       1.0  0.37561  0.37972  0.10421  1.0000
  C   C15       1.0  0.37560  0.87972  0.39578  1.0000
  C   C16       1.0  0.62439  0.62028  0.89579  1.0000
  C   C17       1.0  0.60953  0.16140  0.51410  1.0000
  C   C18       1.0  0.39046  0.33860  0.01411  1.0000
  C   C19       1.0  0.39046  0.83860  0.48589  1.0000
  C   C20       1.0  0.60953  0.66140  0.98590  1.0000
  C   C21       1.0  0.49799  0.16770  0.67600  1.0000
  C   C22       1.0  0.50201  0.33230  0.17600  1.0000
  C   C23       1.0  0.50202  0.83230  0.32400  1.0000
  C   C24       1.0  0.49800  0.66770  0.82401  1.0000
  C   C25       1.0  0.51558  0.12875  0.75972  1.0000
  C   C26       1.0  0.48442  0.37125  0.25973  1.0000
  C   C27       1.0  0.48443  0.87125  0.24027  1.0000
  C   C28       1.0  0.51558  0.62875  0.74028  1.0000
  C   C29       1.0  0.38270  0.17697  0.83791  1.0000
  C   C30       1.0  0.61732  0.32302  0.33791  1.0000
  C   C31       1.0  0.61732  0.82303  0.16208  1.0000
  C   C32       1.0  0.38270  0.67698  0.66209  1.0000
  N   N1        1.0  0.65498  0.04497  0.77400  1.0000
  N   N2        1.0  0.34503  0.45503  0.27401  1.0000
  N   N3        1.0  0.34504  0.95504  0.22600  1.0000
  N   N4        1.0  0.65496  0.54496  0.72600  1.0000
  Cl  Cl1       1.0  0.15420  0.88144  0.96173  1.0000
  Cl  Cl2       1.0  0.84580  0.61856  0.46173  1.0000
  Cl  Cl3       1.0  0.84583  0.11856  0.03827  1.0000
  Cl  Cl4       1.0  0.15418  0.38144  0.53827  1.0000
