data_image0
_chemical_formula_structural       Cu3H18C14N6O14
_chemical_formula_sum              "Cu3 H18 C14 N6 O14"
_cell_length_a       7.25696
_cell_length_b       8.59908
_cell_length_c       9.39086
_cell_angle_alpha    72.9762
_cell_angle_beta     76.8041
_cell_angle_gamma    82.4538

_space_group_name_H-M_alt    "P 1"
_space_group_IT_number       1

loop_
  _space_group_symop_operation_xyz
  'x, y, z'

loop_
  _atom_site_type_symbol
  _atom_site_label
  _atom_site_symmetry_multiplicity
  _atom_site_fract_x
  _atom_site_fract_y
  _atom_site_fract_z
  _atom_site_occupancy
  Cu  Cu1       1.0  0.49887  0.99863  0.99863  1.0000
  Cu  Cu2       1.0  0.63836  0.71315  0.67668  1.0000
  Cu  Cu3       1.0  0.36053  0.28203  0.32786  1.0000
  H   H1        1.0  0.03087  0.58278  0.72322  1.0000
  H   H2        1.0  0.97561  0.41532  0.28419  1.0000
  H   H3        1.0  0.70119  0.56717  0.41955  1.0000
  H   H4        1.0  0.30407  0.43227  0.58820  1.0000
  H   H5        1.0  0.05765  0.09874  0.63361  1.0000
  H   H6        1.0  0.94307  0.90172  0.36198  1.0000
  H   H7        1.0  0.80493  0.82284  0.83177  1.0000
  H   H8        1.0  0.19442  0.18013  0.16608  1.0000
  H   H9        1.0  0.82994  0.93785  0.65928  1.0000
  H   H10       1.0  0.16865  0.06591  0.33869  1.0000
  H   H11       1.0  0.56810  0.39954  0.82767  1.0000
  H   H12       1.0  0.40698  0.60667  0.15414  1.0000
  H   H13       1.0  0.17005  0.76476  0.15377  1.0000
  H   H14       1.0  0.81790  0.22987  0.85027  1.0000
  H   H15       1.0  0.27601  0.79195  0.27751  1.0000
  H   H16       1.0  0.72002  0.20407  0.72279  1.0000
  H   H17       1.0  0.46701  0.50720  0.93862  1.0000
  H   H18       1.0  0.60491  0.50488  0.12055  1.0000
  C   C1        1.0  0.23904  0.06421  0.80546  1.0000
  C   C2        1.0  0.75771  0.93296  0.19321  1.0000
  C   C3        1.0  0.17799  0.03950  0.68345  1.0000
  C   C4        1.0  0.82232  0.96050  0.31242  1.0000
  C   C5        1.0  0.30952  0.91982  0.63911  1.0000
  C   C6        1.0  0.69343  0.08264  0.35426  1.0000
  C   C7        1.0  0.16540  0.16683  0.91011  1.0000
  C   C8        1.0  0.82731  0.82541  0.09319  1.0000
  C   C9        1.0  0.33404  0.83481  0.51995  1.0000
  C   C10       1.0  0.67170  0.17183  0.46938  1.0000
  C   C11       1.0  0.01775  0.54465  0.62568  1.0000
  C   C12       1.0  0.98748  0.45395  0.38173  1.0000
  C   C13       1.0  0.83646  0.53678  0.45617  1.0000
  C   C14       1.0  0.16907  0.46188  0.55105  1.0000
  N   N1        1.0  0.39889  0.96549  0.83014  1.0000
  N   N2        1.0  0.59818  0.03162  0.16798  1.0000
  N   N3        1.0  0.44044  0.87799  0.73029  1.0000
  N   N4        1.0  0.56046  0.12320  0.26491  1.0000
  N   N5        1.0  0.85216  0.58201  0.57788  1.0000
  N   N6        1.0  0.15293  0.41621  0.42952  1.0000
  O   O1        1.0  0.27473  0.15860  0.00566  1.0000
  O   O2        1.0  0.71694  0.83024  0.99893  1.0000
  O   O3        1.0  0.01253  0.25237  0.90923  1.0000
  O   O4        1.0  0.97742  0.73631  0.09756  1.0000
  O   O5        1.0  0.47238  0.72621  0.51629  1.0000
  O   O6        1.0  0.53845  0.28732  0.46563  1.0000
  O   O7        1.0  0.22041  0.87086  0.42782  1.0000
  O   O8        1.0  0.77980  0.13558  0.56469  1.0000
  O   O9        1.0  0.49736  0.50784  0.83019  1.0000
  O   O10       1.0  0.46892  0.49882  0.13286  1.0000
  O   O11       1.0  0.84163  0.82203  0.72129  1.0000
  O   O12       1.0  0.15793  0.18255  0.27682  1.0000
  O   O13       1.0  0.29727  0.76638  0.17739  1.0000
  O   O14       1.0  0.69280  0.22513  0.82465  1.0000
