data_image0
_chemical_formula_structural       Ag4H36C40Br4N4
_chemical_formula_sum              "Ag4 H36 C40 Br4 N4"
_cell_length_a       4.13951
_cell_length_b       14.8836
_cell_length_c       15.4817
_cell_angle_alpha    89.9997
_cell_angle_beta     90.0008
_cell_angle_gamma    93.4647

_space_group_name_H-M_alt    "P 1"
_space_group_IT_number       1

loop_
  _space_group_symop_operation_xyz
  'x, y, z'

loop_
  _atom_site_type_symbol
  _atom_site_label
  _atom_site_symmetry_multiplicity
  _atom_site_fract_x
  _atom_site_fract_y
  _atom_site_fract_z
  _atom_site_occupancy
  Ag  Ag1       1.0  0.32915  0.92481  0.04630  1.0000
  Ag  Ag2       1.0  0.17085  0.57519  0.54631  1.0000
  Ag  Ag3       1.0  0.67086  0.07520  0.95370  1.0000
  Ag  Ag4       1.0  0.82915  0.42481  0.45369  1.0000
  H   H1        1.0  0.82769  0.77556  0.08847  1.0000
  H   H2        1.0  0.67229  0.72444  0.58848  1.0000
  H   H3        1.0  0.17231  0.22445  0.91153  1.0000
  H   H4        1.0  0.32771  0.27556  0.41152  1.0000
  H   H5        1.0  0.19307  0.72419  0.06815  1.0000
  H   H6        1.0  0.30691  0.77581  0.56815  1.0000
  H   H7        1.0  0.80693  0.27582  0.93185  1.0000
  H   H8        1.0  0.69307  0.22419  0.43185  1.0000
  H   H9        1.0  0.89728  0.66911  0.13709  1.0000
  H   H10       1.0  0.60270  0.83089  0.63709  1.0000
  H   H11       1.0  0.10272  0.33090  0.86291  1.0000
  H   H12       1.0  0.39729  0.16911  0.36291  1.0000
  H   H13       1.0  0.97581  0.68511  0.28876  1.0000
  H   H14       1.0  0.52418  0.81489  0.78877  1.0000
  H   H15       1.0  0.02419  0.31489  0.71124  1.0000
  H   H16       1.0  0.47584  0.18510  0.21124  1.0000
  H   H17       1.0  0.22542  0.76617  0.41298  1.0000
  H   H18       1.0  0.27456  0.73384  0.91299  1.0000
  H   H19       1.0  0.77457  0.23384  0.58702  1.0000
  H   H20       1.0  0.72543  0.26616  0.08701  1.0000
  H   H21       1.0  0.57342  0.90013  0.46788  1.0000
  H   H22       1.0  0.92659  0.59987  0.96788  1.0000
  H   H23       1.0  0.42657  0.09987  0.53212  1.0000
  H   H24       1.0  0.07340  0.40013  0.03211  1.0000
  H   H25       1.0  0.90699  0.04084  0.43619  1.0000
  H   H26       1.0  0.59303  0.45915  0.93619  1.0000
  H   H27       1.0  0.09301  0.95915  0.56382  1.0000
  H   H28       1.0  0.40695  0.54085  0.06381  1.0000
  H   H29       1.0  0.97663  0.09338  0.28330  1.0000
  H   H30       1.0  0.52340  0.40662  0.78330  1.0000
  H   H31       1.0  0.02339  0.90663  0.71672  1.0000
  H   H32       1.0  0.47659  0.59338  0.21670  1.0000
  H   H33       1.0  0.70858  0.00873  0.16405  1.0000
  H   H34       1.0  0.79143  0.49127  0.66405  1.0000
  H   H35       1.0  0.29143  0.99128  0.83596  1.0000
  H   H36       1.0  0.20857  0.50873  0.33594  1.0000
  C   C1        1.0  0.16386  0.78272  0.19416  1.0000
  C   C2        1.0  0.33613  0.71728  0.69417  1.0000
  C   C3        1.0  0.83615  0.21729  0.80584  1.0000
  C   C4        1.0  0.66386  0.28272  0.30583  1.0000
  C   C5        1.0  0.01054  0.73463  0.11823  1.0000
  C   C6        1.0  0.48943  0.76537  0.61823  1.0000
  C   C7        1.0  0.98946  0.26538  0.88178  1.0000
  C   C8        1.0  0.51057  0.23463  0.38177  1.0000
  C   C9        1.0  0.12141  0.74760  0.27859  1.0000
  C   C10       1.0  0.37859  0.75240  0.77860  1.0000
  C   C11       1.0  0.87860  0.25240  0.72141  1.0000
  C   C12       1.0  0.62141  0.24759  0.22140  1.0000
  C   C13       1.0  0.26006  0.79303  0.34788  1.0000
  C   C14       1.0  0.23993  0.70697  0.84788  1.0000
  C   C15       1.0  0.73994  0.20698  0.65212  1.0000
  C   C16       1.0  0.76007  0.29302  0.15212  1.0000
  C   C17       1.0  0.44908  0.87398  0.33397  1.0000
  C   C18       1.0  0.05092  0.62602  0.83397  1.0000
  C   C19       1.0  0.55093  0.12602  0.66603  1.0000
  C   C20       1.0  0.94907  0.37398  0.16603  1.0000
  C   C21       1.0  0.60285  0.92448  0.40168  1.0000
  C   C22       1.0  0.89716  0.57551  0.90168  1.0000
  C   C23       1.0  0.39715  0.07552  0.59833  1.0000
  C   C24       1.0  0.10283  0.42448  0.09831  1.0000
  C   C25       1.0  0.78748  0.00254  0.38394  1.0000
  C   C26       1.0  0.71254  0.49745  0.88394  1.0000
  C   C27       1.0  0.21253  0.99746  0.61606  1.0000
  C   C28       1.0  0.28744  0.50254  0.11605  1.0000
  C   C29       1.0  0.82634  0.03255  0.29766  1.0000
  C   C30       1.0  0.67369  0.46744  0.79766  1.0000
  C   C31       1.0  0.17366  0.96745  0.70235  1.0000
  C   C32       1.0  0.32632  0.53256  0.20233  1.0000
  C   C33       1.0  0.67714  0.98545  0.23054  1.0000
  C   C34       1.0  0.82287  0.51454  0.73054  1.0000
  C   C35       1.0  0.32287  0.01455  0.76946  1.0000
  C   C36       1.0  0.17712  0.48546  0.26945  1.0000
  C   C37       1.0  0.48465  0.90547  0.24686  1.0000
  C   C38       1.0  0.01535  0.59453  0.74686  1.0000
  C   C39       1.0  0.51536  0.09454  0.75314  1.0000
  C   C40       1.0  0.98465  0.40547  0.25313  1.0000
  Br  Br1       1.0  0.81457  0.89222  0.93665  1.0000
  Br  Br2       1.0  0.68541  0.60778  0.43665  1.0000
  Br  Br3       1.0  0.18542  0.10778  0.06335  1.0000
  Br  Br4       1.0  0.31458  0.39222  0.56335  1.0000
  N   N1        1.0  0.33807  0.85965  0.17914  1.0000
  N   N2        1.0  0.16193  0.64035  0.67914  1.0000
  N   N3        1.0  0.66194  0.14036  0.82087  1.0000
  N   N4        1.0  0.83807  0.35964  0.32086  1.0000
