data_image0
_chemical_formula_structural       Li4Cu4P4H16C12O20
_chemical_formula_sum              "Li4 Cu4 P4 H16 C12 O20"
_cell_length_a       4.96499
_cell_length_b       11.0279
_cell_length_c       11.1321
_cell_angle_alpha    80.8814
_cell_angle_beta     77.1137
_cell_angle_gamma    76.9225

_space_group_name_H-M_alt    "P 1"
_space_group_IT_number       1

loop_
  _space_group_symop_operation_xyz
  'x, y, z'

loop_
  _atom_site_type_symbol
  _atom_site_label
  _atom_site_symmetry_multiplicity
  _atom_site_fract_x
  _atom_site_fract_y
  _atom_site_fract_z
  _atom_site_occupancy
  Li  Li1       1.0  0.04319  0.50578  0.34395  1.0000
  Li  Li2       1.0  0.89491  0.99393  0.15540  1.0000
  Li  Li3       1.0  0.95680  0.49422  0.65606  1.0000
  Li  Li4       1.0  0.10509  0.00607  0.84459  1.0000
  Cu  Cu1       1.0  0.49999  0.50000  0.50000  1.0000
  Cu  Cu2       1.0  0.50000  0.00000  1.00000  1.0000
  Cu  Cu3       1.0  0.40856  0.25030  0.74988  1.0000
  Cu  Cu4       1.0  0.59145  0.74970  0.25012  1.0000
  P   P1        1.0  0.81454  0.22699  0.94409  1.0000
  P   P2        1.0  0.98547  0.27301  0.55577  1.0000
  P   P3        1.0  0.18545  0.77301  0.05591  1.0000
  P   P4        1.0  0.01454  0.72698  0.44423  1.0000
  H   H1        1.0  0.02697  0.28332  0.08997  1.0000
  H   H2        1.0  0.40160  0.21652  0.41037  1.0000
  H   H3        1.0  0.97303  0.71668  0.91003  1.0000
  H   H4        1.0  0.59840  0.78348  0.58962  1.0000
  H   H5        1.0  0.41108  0.42791  0.10150  1.0000
  H   H6        1.0  0.94214  0.07215  0.39842  1.0000
  H   H7        1.0  0.58892  0.57209  0.89850  1.0000
  H   H8        1.0  0.05786  0.92785  0.60157  1.0000
  H   H9        1.0  0.91672  0.41338  0.98619  1.0000
  H   H10       1.0  0.31728  0.08659  0.51431  1.0000
  H   H11       1.0  0.08328  0.58662  0.01381  1.0000
  H   H12       1.0  0.68273  0.91341  0.48568  1.0000
  H   H13       1.0  0.50660  0.28775  0.19475  1.0000
  H   H14       1.0  0.99050  0.21231  0.30534  1.0000
  H   H15       1.0  0.49339  0.71225  0.80524  1.0000
  H   H16       1.0  0.00950  0.78769  0.69466  1.0000
  C   C1        1.0  0.64460  0.44286  0.23668  1.0000
  C   C2        1.0  0.32583  0.05725  0.26323  1.0000
  C   C3        1.0  0.35539  0.55714  0.76332  1.0000
  C   C4        1.0  0.67415  0.94275  0.73677  1.0000
  C   C5        1.0  0.58582  0.37033  0.14321  1.0000
  C   C6        1.0  0.10093  0.12964  0.35688  1.0000
  C   C7        1.0  0.41419  0.62967  0.85680  1.0000
  C   C8        1.0  0.89907  0.87036  0.64312  1.0000
  C   C9        1.0  0.84879  0.33188  0.04574  1.0000
  C   C10       1.0  0.22787  0.16798  0.45443  1.0000
  C   C11       1.0  0.15121  0.66812  0.95426  1.0000
  C   C12       1.0  0.77212  0.83202  0.54556  1.0000
  O   O1        1.0  0.73303  0.10719  0.02544  1.0000
  O   O2        1.0  0.86506  0.39217  0.47351  1.0000
  O   O3        1.0  0.26697  0.89281  0.97456  1.0000
  O   O4        1.0  0.13493  0.60783  0.52649  1.0000
  O   O5        1.0  0.87543  0.47666  0.21778  1.0000
  O   O6        1.0  0.57197  0.02359  0.28188  1.0000
  O   O7        1.0  0.12458  0.52335  0.78222  1.0000
  O   O8        1.0  0.42807  0.97640  0.71812  1.0000
  O   O9        1.0  0.11377  0.17991  0.86892  1.0000
  O   O10       1.0  0.16087  0.32057  0.63124  1.0000
  O   O11       1.0  0.88623  0.82009  0.13109  1.0000
  O   O12       1.0  0.83915  0.67943  0.36876  1.0000
  O   O13       1.0  0.59153  0.29605  0.86900  1.0000
  O   O14       1.0  0.75650  0.20398  0.63073  1.0000
  O   O15       1.0  0.40847  0.70395  0.13100  1.0000
  O   O16       1.0  0.24350  0.79602  0.36927  1.0000
  O   O17       1.0  0.44566  0.46251  0.33438  1.0000
  O   O18       1.0  0.24382  0.03768  0.16561  1.0000
  O   O19       1.0  0.55434  0.53749  0.66562  1.0000
  O   O20       1.0  0.75619  0.96232  0.83439  1.0000
