data_image0
_chemical_formula_structural       Ag2H22C22Br2N4
_chemical_formula_sum              "Ag2 H22 C22 Br2 N4"
_cell_length_a       5.84754
_cell_length_b       8.19901
_cell_length_c       12.4693
_cell_angle_alpha    103.556
_cell_angle_beta     99.2215
_cell_angle_gamma    93.8837

_space_group_name_H-M_alt    "P 1"
_space_group_IT_number       1

loop_
  _space_group_symop_operation_xyz
  'x, y, z'

loop_
  _atom_site_type_symbol
  _atom_site_label
  _atom_site_symmetry_multiplicity
  _atom_site_fract_x
  _atom_site_fract_y
  _atom_site_fract_z
  _atom_site_occupancy
  Ag  Ag1       1.0  0.30380  0.09408  0.52533  1.0000
  Ag  Ag2       1.0  0.69623  0.90590  0.47466  1.0000
  H   H1        1.0  0.99505  0.42863  0.84362  1.0000
  H   H2        1.0  0.00495  0.57138  0.15639  1.0000
  H   H3        1.0  0.95704  0.60651  0.67720  1.0000
  H   H4        1.0  0.04294  0.39350  0.32280  1.0000
  H   H5        1.0  0.56182  0.33714  0.42410  1.0000
  H   H6        1.0  0.43814  0.66287  0.57591  1.0000
  H   H7        1.0  0.74761  0.53097  0.47648  1.0000
  H   H8        1.0  0.25236  0.46903  0.52353  1.0000
  H   H9        1.0  0.55054  0.03396  0.72486  1.0000
  H   H10       1.0  0.44948  0.96604  0.27514  1.0000
  H   H11       1.0  0.84933  0.06744  0.78803  1.0000
  H   H12       1.0  0.15069  0.93257  0.21197  1.0000
  H   H13       1.0  0.31147  0.28936  0.83055  1.0000
  H   H14       1.0  0.68856  0.71063  0.16944  1.0000
  H   H15       1.0  0.19410  0.37764  0.01814  1.0000
  H   H16       1.0  0.80590  0.62235  0.98186  1.0000
  H   H17       1.0  0.43242  0.32045  0.18559  1.0000
  H   H18       1.0  0.56758  0.67955  0.81441  1.0000
  H   H19       1.0  0.79323  0.17793  0.16743  1.0000
  H   H20       1.0  0.20677  0.82207  0.83256  1.0000
  H   H21       1.0  0.91446  0.09822  0.98105  1.0000
  H   H22       1.0  0.08556  0.90177  0.01895  1.0000
  C   C1        1.0  0.59768  0.25721  0.61916  1.0000
  C   C2        1.0  0.40233  0.74280  0.38085  1.0000
  C   C3        1.0  0.88261  0.40152  0.76232  1.0000
  C   C4        1.0  0.11739  0.59849  0.23769  1.0000
  C   C5        1.0  0.86489  0.48907  0.68133  1.0000
  C   C6        1.0  0.13509  0.51094  0.31867  1.0000
  C   C7        1.0  0.60616  0.45113  0.49343  1.0000
  C   C8        1.0  0.39379  0.54887  0.50657  1.0000
  C   C9        1.0  0.68754  0.12787  0.78120  1.0000
  C   C10       1.0  0.31247  0.87213  0.21880  1.0000
  C   C11       1.0  0.62030  0.18825  0.89432  1.0000
  C   C12       1.0  0.37969  0.81175  0.10568  1.0000
  C   C13       1.0  0.41686  0.26665  0.90504  1.0000
  C   C14       1.0  0.58316  0.73334  0.09495  1.0000
  C   C15       1.0  0.35120  0.31495  0.00960  1.0000
  C   C16       1.0  0.64880  0.68503  0.99041  1.0000
  C   C17       1.0  0.48611  0.28350  0.10427  1.0000
  C   C18       1.0  0.51389  0.71650  0.89573  1.0000
  C   C19       1.0  0.68884  0.20503  0.09417  1.0000
  C   C20       1.0  0.31116  0.79498  0.90583  1.0000
  C   C21       1.0  0.75573  0.15884  0.98955  1.0000
  C   C22       1.0  0.24428  0.84115  0.01045  1.0000
  Br  Br1       1.0  0.05945  0.88863  0.62466  1.0000
  Br  Br2       1.0  0.94055  0.11137  0.37535  1.0000
  N   N1        1.0  0.71827  0.26124  0.72290  1.0000
  N   N2        1.0  0.28174  0.73876  0.27710  1.0000
  N   N3        1.0  0.69031  0.39881  0.59509  1.0000
  N   N4        1.0  0.30968  0.60120  0.40491  1.0000
