data_image0
_chemical_formula_structural       Ag4H20C28O12
_chemical_formula_sum              "Ag4 H20 C28 O12"
_cell_length_a       7.46385
_cell_length_b       8.69662
_cell_length_c       10.6808
_cell_angle_alpha    90
_cell_angle_beta     108.233
_cell_angle_gamma    90.0001

_space_group_name_H-M_alt    "P 1"
_space_group_IT_number       1

loop_
  _space_group_symop_operation_xyz
  'x, y, z'

loop_
  _atom_site_type_symbol
  _atom_site_label
  _atom_site_symmetry_multiplicity
  _atom_site_fract_x
  _atom_site_fract_y
  _atom_site_fract_z
  _atom_site_occupancy
  Ag  Ag1       1.0  0.56485  0.87589  0.08437  1.0000
  Ag  Ag2       1.0  0.43515  0.37589  0.41563  1.0000
  Ag  Ag3       1.0  0.43515  0.12411  0.91563  1.0000
  Ag  Ag4       1.0  0.56485  0.62411  0.58437  1.0000
  H   H1        1.0  0.00895  0.64968  0.04004  1.0000
  H   H2        1.0  0.99105  0.14968  0.45995  1.0000
  H   H3        1.0  0.99105  0.35032  0.95996  1.0000
  H   H4        1.0  0.00895  0.85032  0.54004  1.0000
  H   H5        1.0  0.49590  0.90825  0.68930  1.0000
  H   H6        1.0  0.50410  0.40825  0.81070  1.0000
  H   H7        1.0  0.50410  0.09175  0.31071  1.0000
  H   H8        1.0  0.49590  0.59175  0.18929  1.0000
  H   H9        1.0  0.41862  0.69194  0.81529  1.0000
  H   H10       1.0  0.58138  0.19193  0.68471  1.0000
  H   H11       1.0  0.58138  0.30806  0.18471  1.0000
  H   H12       1.0  0.41862  0.80806  0.31529  1.0000
  H   H13       1.0  0.67822  0.56002  0.99321  1.0000
  H   H14       1.0  0.32178  0.06002  0.50679  1.0000
  H   H15       1.0  0.32178  0.43998  0.00679  1.0000
  H   H16       1.0  0.67822  0.93998  0.49321  1.0000
  H   H17       1.0  0.97425  0.03297  0.75873  1.0000
  H   H18       1.0  0.02575  0.53297  0.74127  1.0000
  H   H19       1.0  0.02575  0.96703  0.24127  1.0000
  H   H20       1.0  0.97425  0.46703  0.25873  1.0000
  C   C1        1.0  0.14101  0.87643  0.92496  1.0000
  C   C2        1.0  0.85899  0.37642  0.57504  1.0000
  C   C3        1.0  0.85898  0.12357  0.07504  1.0000
  C   C4        1.0  0.14101  0.62358  0.42496  1.0000
  C   C5        1.0  0.79646  0.89825  0.79062  1.0000
  C   C6        1.0  0.20355  0.39825  0.70938  1.0000
  C   C7        1.0  0.20355  0.10175  0.20938  1.0000
  C   C8        1.0  0.79646  0.60175  0.29062  1.0000
  C   C9        1.0  0.89512  0.70363  0.96256  1.0000
  C   C10       1.0  0.10488  0.20363  0.53744  1.0000
  C   C11       1.0  0.10488  0.29637  0.03745  1.0000
  C   C12       1.0  0.89512  0.79637  0.46256  1.0000
  C   C13       1.0  0.60833  0.84778  0.76301  1.0000
  C   C14       1.0  0.39166  0.34778  0.73699  1.0000
  C   C15       1.0  0.39166  0.15222  0.23699  1.0000
  C   C16       1.0  0.60834  0.65222  0.26301  1.0000
  C   C17       1.0  0.94201  0.82409  0.89124  1.0000
  C   C18       1.0  0.05799  0.32408  0.60876  1.0000
  C   C19       1.0  0.05799  0.17592  0.10877  1.0000
  C   C20       1.0  0.94201  0.67592  0.39124  1.0000
  C   C21       1.0  0.56522  0.72798  0.83659  1.0000
  C   C22       1.0  0.43478  0.22798  0.66341  1.0000
  C   C23       1.0  0.43478  0.27202  0.16341  1.0000
  C   C24       1.0  0.56522  0.77202  0.33659  1.0000
  C   C25       1.0  0.70915  0.65526  0.93697  1.0000
  C   C26       1.0  0.29085  0.15525  0.56303  1.0000
  C   C27       1.0  0.29084  0.34475  0.06303  1.0000
  C   C28       1.0  0.70915  0.84475  0.43697  1.0000
  O   O1        1.0  0.26443  0.81085  0.01853  1.0000
  O   O2        1.0  0.73556  0.31085  0.48147  1.0000
  O   O3        1.0  0.73557  0.18914  0.98148  1.0000
  O   O4        1.0  0.26444  0.68916  0.51853  1.0000
  O   O5        1.0  0.17316  0.98903  0.85508  1.0000
  O   O6        1.0  0.82684  0.48903  0.64493  1.0000
  O   O7        1.0  0.82684  0.01097  0.14493  1.0000
  O   O8        1.0  0.17317  0.51098  0.35508  1.0000
  O   O9        1.0  0.83219  0.01683  0.72113  1.0000
  O   O10       1.0  0.16781  0.51682  0.77887  1.0000
  O   O11       1.0  0.16781  0.98317  0.27887  1.0000
  O   O12       1.0  0.83219  0.48317  0.22113  1.0000
