data_image0
_chemical_formula_structural       K6P2H40C28O28
_chemical_formula_sum              "K6 P2 H40 C28 O28"
_cell_length_a       10.0072
_cell_length_b       11.3255
_cell_length_c       11.6247
_cell_angle_alpha    64.1536
_cell_angle_beta     69.9495
_cell_angle_gamma    75.8446

_space_group_name_H-M_alt    "P 1"
_space_group_IT_number       1

loop_
  _space_group_symop_operation_xyz
  'x, y, z'

loop_
  _atom_site_type_symbol
  _atom_site_label
  _atom_site_symmetry_multiplicity
  _atom_site_fract_x
  _atom_site_fract_y
  _atom_site_fract_z
  _atom_site_occupancy
  K   K1        1.0  0.39031  0.05099  0.27005  1.0000
  K   K2        1.0  0.60969  0.94900  0.72995  1.0000
  K   K3        1.0  0.55384  0.28395  0.88508  1.0000
  K   K4        1.0  0.44616  0.71605  0.11492  1.0000
  K   K5        1.0  0.58074  0.65941  0.39624  1.0000
  K   K6        1.0  0.41926  0.34059  0.60376  1.0000
  P   P1        1.0  0.85580  0.17424  0.23479  1.0000
  P   P2        1.0  0.14420  0.82576  0.76521  1.0000
  H   H1        1.0  0.84708  0.54253  0.51145  1.0000
  H   H2        1.0  0.15292  0.45747  0.48855  1.0000
  H   H3        1.0  0.93517  0.47955  0.40773  1.0000
  H   H4        1.0  0.06483  0.52044  0.59227  1.0000
  H   H5        1.0  0.19737  0.23567  0.46379  1.0000
  H   H6        1.0  0.80263  0.76433  0.53621  1.0000
  H   H7        1.0  0.20125  0.07987  0.54667  1.0000
  H   H8        1.0  0.79875  0.92013  0.45333  1.0000
  H   H9        1.0  0.75158  0.37541  0.55981  1.0000
  H   H10       1.0  0.24842  0.62459  0.44019  1.0000
  H   H11       1.0  0.75787  0.22150  0.61174  1.0000
  H   H12       1.0  0.24213  0.77849  0.38826  1.0000
  H   H13       1.0  0.05642  0.96917  0.38441  1.0000
  H   H14       1.0  0.94358  0.03084  0.61559  1.0000
  H   H15       1.0  0.13178  0.92549  0.49887  1.0000
  H   H16       1.0  0.86822  0.07451  0.50113  1.0000
  H   H17       1.0  0.54604  0.53785  0.70001  1.0000
  H   H18       1.0  0.45396  0.46215  0.30000  1.0000
  H   H19       1.0  0.39035  0.60515  0.69345  1.0000
  H   H20       1.0  0.60965  0.39485  0.30656  1.0000
  H   H21       1.0  0.41160  0.83146  0.56885  1.0000
  H   H22       1.0  0.58840  0.16854  0.43116  1.0000
  H   H23       1.0  0.57234  0.86354  0.50123  1.0000
  H   H24       1.0  0.42766  0.13646  0.49877  1.0000
  H   H25       1.0  0.45271  0.36394  0.14828  1.0000
  H   H26       1.0  0.54729  0.63606  0.85172  1.0000
  H   H27       1.0  0.59445  0.27666  0.17548  1.0000
  H   H28       1.0  0.40555  0.72334  0.82452  1.0000
  H   H29       1.0  0.99533  0.28384  0.33941  1.0000
  H   H30       1.0  0.00467  0.71616  0.66059  1.0000
  H   H31       1.0  0.29672  0.51194  0.99100  1.0000
  H   H32       1.0  0.70328  0.48806  0.00900  1.0000
  H   H33       1.0  0.21376  0.44296  0.85188  1.0000
  H   H34       1.0  0.78624  0.55704  0.14812  1.0000
  H   H35       1.0  0.70945  0.98651  0.22869  1.0000
  H   H36       1.0  0.29055  0.01349  0.77131  1.0000
  H   H37       1.0  0.82930  0.05844  0.81526  1.0000
  H   H38       1.0  0.17070  0.94156  0.18475  1.0000
  H   H39       1.0  0.98929  0.22345  0.76665  1.0000
  H   H40       1.0  0.01071  0.77655  0.23334  1.0000
  C   C1        1.0  0.99700  0.27769  0.15601  1.0000
  C   C2        1.0  0.00300  0.72231  0.84399  1.0000
  C   C3        1.0  0.04364  0.31840  0.23237  1.0000
  C   C4        1.0  0.95636  0.68160  0.76763  1.0000
  C   C5        1.0  0.15241  0.40030  0.17509  1.0000
  C   C6        1.0  0.84759  0.59969  0.82491  1.0000
  C   C7        1.0  0.21369  0.44554  0.03670  1.0000
  C   C8        1.0  0.78631  0.55446  0.96329  1.0000
  C   C9        1.0  0.16819  0.40765  0.95911  1.0000
  C   C10       1.0  0.83181  0.59235  0.04089  1.0000
  C   C11       1.0  0.06179  0.32200  0.01860  1.0000
  C   C12       1.0  0.93821  0.67801  0.98140  1.0000
  C   C13       1.0  0.20498  0.43412  0.26189  1.0000
  C   C14       1.0  0.79502  0.56588  0.73811  1.0000
  C   C15       1.0  0.85657  0.13334  0.10232  1.0000
  C   C16       1.0  0.14343  0.86667  0.89768  1.0000
  C   C17       1.0  0.76926  0.04036  0.12701  1.0000
  C   C18       1.0  0.23074  0.95965  0.87299  1.0000
  C   C19       1.0  0.75766  0.01307  0.02511  1.0000
  C   C20       1.0  0.24234  0.98693  0.97489  1.0000
  C   C21       1.0  0.83778  0.08017  0.89474  1.0000
  C   C22       1.0  0.16222  0.91983  0.10526  1.0000
  C   C23       1.0  0.92606  0.17175  0.86729  1.0000
  C   C24       1.0  0.07394  0.82825  0.13271  1.0000
  C   C25       1.0  0.93600  0.19820  0.97106  1.0000
  C   C26       1.0  0.06400  0.80180  0.02894  1.0000
  C   C27       1.0  0.66049  0.91427  0.05383  1.0000
  C   C28       1.0  0.33951  0.08572  0.94617  1.0000
  O   O1        1.0  0.83694  0.51566  0.44352  1.0000
  O   O2        1.0  0.16306  0.48434  0.55648  1.0000
  O   O3        1.0  0.25980  0.15163  0.47756  1.0000
  O   O4        1.0  0.74019  0.84837  0.52244  1.0000
  O   O5        1.0  0.69797  0.29966  0.62720  1.0000
  O   O6        1.0  0.30204  0.70034  0.37280  1.0000
  O   O7        1.0  0.14533  0.92311  0.41138  1.0000
  O   O8        1.0  0.85466  0.07689  0.58862  1.0000
  O   O9        1.0  0.46152  0.53252  0.67699  1.0000
  O   O10       1.0  0.53849  0.46748  0.32301  1.0000
  O   O11       1.0  0.48278  0.86434  0.48198  1.0000
  O   O12       1.0  0.51722  0.13566  0.51802  1.0000
  O   O13       1.0  0.52225  0.29200  0.12824  1.0000
  O   O14       1.0  0.47775  0.70800  0.87177  1.0000
  O   O15       1.0  0.89320  0.05212  0.35150  1.0000
  O   O16       1.0  0.10680  0.94788  0.64850  1.0000
  O   O17       1.0  0.71103  0.25137  0.27381  1.0000
  O   O18       1.0  0.28897  0.74863  0.72619  1.0000
  O   O19       1.0  0.02902  0.28843  0.93223  1.0000
  O   O20       1.0  0.97098  0.71157  0.06777  1.0000
  O   O21       1.0  0.12531  0.41300  0.38052  1.0000
  O   O22       1.0  0.87469  0.58700  0.61948  1.0000
  O   O23       1.0  0.32715  0.47608  0.21614  1.0000
  O   O24       1.0  0.67286  0.52393  0.78386  1.0000
  O   O25       1.0  0.58840  0.86022  0.17402  1.0000
  O   O26       1.0  0.41159  0.13978  0.82598  1.0000
  O   O27       1.0  0.65602  0.89219  0.95743  1.0000
  O   O28       1.0  0.34398  0.10781  0.04257  1.0000
