data_image0
_chemical_formula_structural       Zn4H36C64N4O16F4
_chemical_formula_sum              "Zn4 H36 C64 N4 O16 F4"
_cell_length_a       9.69814
_cell_length_b       10.4922
_cell_length_c       14.6175
_cell_angle_alpha    98.4622
_cell_angle_beta     94.9304
_cell_angle_gamma    102.048

_space_group_name_H-M_alt    "P 1"
_space_group_IT_number       1

loop_
  _space_group_symop_operation_xyz
  'x, y, z'

loop_
  _atom_site_type_symbol
  _atom_site_label
  _atom_site_symmetry_multiplicity
  _atom_site_fract_x
  _atom_site_fract_y
  _atom_site_fract_z
  _atom_site_occupancy
  Zn  Zn1       1.0  0.54901  0.73454  0.60794  1.0000
  Zn  Zn2       1.0  0.45098  0.26546  0.39206  1.0000
  Zn  Zn3       1.0  0.54023  0.77556  0.84152  1.0000
  Zn  Zn4       1.0  0.45976  0.22444  0.15848  1.0000
  H   H1        1.0  0.23868  0.63714  0.75606  1.0000
  H   H2        1.0  0.76131  0.36286  0.24394  1.0000
  H   H3        1.0  0.04749  0.62592  0.86148  1.0000
  H   H4        1.0  0.95251  0.37408  0.13852  1.0000
  H   H5        1.0  0.84676  0.86722  0.70528  1.0000
  H   H6        1.0  0.15323  0.13278  0.29472  1.0000
  H   H7        1.0  0.03243  0.87100  0.59600  1.0000
  H   H8        1.0  0.96756  0.12901  0.40400  1.0000
  H   H9        1.0  0.66170  0.36969  0.59910  1.0000
  H   H10       1.0  0.33830  0.63031  0.40090  1.0000
  H   H11       1.0  0.66586  0.13469  0.60010  1.0000
  H   H12       1.0  0.33414  0.86531  0.39990  1.0000
  H   H13       1.0  0.47048  0.14798  0.85403  1.0000
  H   H14       1.0  0.52952  0.85202  0.14597  1.0000
  H   H15       1.0  0.46499  0.38486  0.85187  1.0000
  H   H16       1.0  0.53501  0.61514  0.14813  1.0000
  H   H17       1.0  0.67823  0.54142  0.49411  1.0000
  H   H18       1.0  0.32176  0.45858  0.50589  1.0000
  H   H19       1.0  0.81143  0.53722  0.35889  1.0000
  H   H20       1.0  0.18856  0.46277  0.64111  1.0000
  H   H21       1.0  0.78813  0.94655  0.35851  1.0000
  H   H22       1.0  0.21187  0.05345  0.64149  1.0000
  H   H23       1.0  0.65230  0.93157  0.49084  1.0000
  H   H24       1.0  0.34770  0.06843  0.50916  1.0000
  H   H25       1.0  0.01181  0.59972  0.31044  1.0000
  H   H26       1.0  0.98818  0.40028  0.68956  1.0000
  H   H27       1.0  0.16253  0.59991  0.18519  1.0000
  H   H28       1.0  0.83747  0.40009  0.81481  1.0000
  H   H29       1.0  0.20322  0.54833  0.04451  1.0000
  H   H30       1.0  0.79679  0.45167  0.95549  1.0000
  H   H31       1.0  0.39157  0.57187  0.93993  1.0000
  H   H32       1.0  0.60843  0.42813  0.06007  1.0000
  H   H33       1.0  0.38584  0.96395  0.93325  1.0000
  H   H34       1.0  0.61415  0.03605  0.06675  1.0000
  H   H35       1.0  0.20326  0.96246  0.04229  1.0000
  H   H36       1.0  0.79673  0.03754  0.95771  1.0000
  C   C1        1.0  0.14768  0.75517  0.66959  1.0000
  C   C2        1.0  0.85232  0.24483  0.33041  1.0000
  C   C3        1.0  0.15133  0.68575  0.74451  1.0000
  C   C4        1.0  0.84867  0.31425  0.25549  1.0000
  C   C5        1.0  0.04623  0.68086  0.80386  1.0000
  C   C6        1.0  0.95377  0.31914  0.19613  1.0000
  C   C7        1.0  0.93666  0.74696  0.79065  1.0000
  C   C8        1.0  0.06334  0.25305  0.20935  1.0000
  C   C9        1.0  0.93257  0.81641  0.71571  1.0000
  C   C10       1.0  0.06743  0.18359  0.28429  1.0000
  C   C11       1.0  0.03613  0.81902  0.65520  1.0000
  C   C12       1.0  0.96387  0.18099  0.34479  1.0000
  C   C13       1.0  0.26640  0.76822  0.60927  1.0000
  C   C14       1.0  0.73360  0.23179  0.39073  1.0000
  C   C15       1.0  0.82023  0.73554  0.85285  1.0000
  C   C16       1.0  0.17977  0.26446  0.14715  1.0000
  C   C17       1.0  0.56193  0.39121  0.72520  1.0000
  C   C18       1.0  0.43807  0.60879  0.27480  1.0000
  C   C19       1.0  0.62030  0.32092  0.65507  1.0000
  C   C20       1.0  0.37971  0.67908  0.34494  1.0000
  C   C21       1.0  0.62314  0.18914  0.65600  1.0000
  C   C22       1.0  0.37687  0.81086  0.34400  1.0000
  C   C23       1.0  0.56789  0.12667  0.72765  1.0000
  C   C24       1.0  0.43212  0.87334  0.27235  1.0000
  C   C25       1.0  0.51248  0.19774  0.79881  1.0000
  C   C26       1.0  0.48753  0.80226  0.20119  1.0000
  C   C27       1.0  0.50907  0.32892  0.79751  1.0000
  C   C28       1.0  0.49093  0.67108  0.20249  1.0000
  C   C29       1.0  0.55348  0.53095  0.72306  1.0000
  C   C30       1.0  0.44652  0.46906  0.27694  1.0000
  C   C31       1.0  0.56218  0.98357  0.72700  1.0000
  C   C32       1.0  0.43782  0.01643  0.27299  1.0000
  C   C33       1.0  0.70528  0.62902  0.46185  1.0000
  C   C34       1.0  0.29472  0.37098  0.53815  1.0000
  C   C35       1.0  0.78243  0.62876  0.38648  1.0000
  C   C36       1.0  0.21757  0.37124  0.61352  1.0000
  C   C37       1.0  0.81625  0.74316  0.34586  1.0000
  C   C38       1.0  0.18375  0.25684  0.65415  1.0000
  C   C39       1.0  0.76744  0.85368  0.38472  1.0000
  C   C40       1.0  0.23257  0.14633  0.61528  1.0000
  C   C41       1.0  0.69020  0.84641  0.46005  1.0000
  C   C42       1.0  0.30980  0.15359  0.53995  1.0000
  C   C43       1.0  0.90265  0.74451  0.26764  1.0000
  C   C44       1.0  0.09735  0.25549  0.73236  1.0000
  C   C45       1.0  0.00044  0.66258  0.25861  1.0000
  C   C46       1.0  0.99956  0.33742  0.74139  1.0000
  C   C47       1.0  0.08653  0.66309  0.18783  1.0000
  C   C48       1.0  0.91347  0.33690  0.81217  1.0000
  C   C49       1.0  0.08254  0.74740  0.12165  1.0000
  C   C50       1.0  0.91746  0.25260  0.87835  1.0000
  C   C51       1.0  0.98298  0.82681  0.12877  1.0000
  C   C52       1.0  0.01702  0.17318  0.87124  1.0000
  C   C53       1.0  0.89567  0.82541  0.19976  1.0000
  C   C54       1.0  0.10433  0.17459  0.80024  1.0000
  C   C55       1.0  0.18512  0.75434  0.05303  1.0000
  C   C56       1.0  0.81488  0.24565  0.94697  1.0000
  C   C57       1.0  0.23994  0.64341  0.02247  1.0000
  C   C58       1.0  0.76007  0.35659  0.97753  1.0000
  C   C59       1.0  0.34605  0.65531  0.96456  1.0000
  C   C60       1.0  0.65395  0.34469  0.03544  1.0000
  C   C61       1.0  0.34375  0.87529  0.96146  1.0000
  C   C62       1.0  0.65624  0.12471  0.03854  1.0000
  C   C63       1.0  0.23895  0.87223  0.02042  1.0000
  C   C64       1.0  0.76105  0.12777  0.97959  1.0000
  N   N1        1.0  0.65932  0.73608  0.49841  1.0000
  N   N2        1.0  0.34068  0.26392  0.50159  1.0000
  N   N3        1.0  0.39865  0.76955  0.93469  1.0000
  N   N4        1.0  0.60135  0.23045  0.06531  1.0000
  O   O1        1.0  0.28458  0.85594  0.55979  1.0000
  O   O2        1.0  0.71542  0.14406  0.44021  1.0000
  O   O3        1.0  0.34739  0.68366  0.61627  1.0000
  O   O4        1.0  0.65260  0.31634  0.38373  1.0000
  O   O5        1.0  0.74450  0.82515  0.85030  1.0000
  O   O6        1.0  0.25550  0.17485  0.14970  1.0000
  O   O7        1.0  0.79894  0.64413  0.89920  1.0000
  O   O8        1.0  0.20105  0.35587  0.10080  1.0000
  O   O9        1.0  0.61128  0.58693  0.65971  1.0000
  O   O10       1.0  0.38872  0.41307  0.34029  1.0000
  O   O11       1.0  0.48815  0.58525  0.78451  1.0000
  O   O12       1.0  0.51185  0.41474  0.21549  1.0000
  O   O13       1.0  0.62023  0.92361  0.66400  1.0000
  O   O14       1.0  0.37977  0.07639  0.33599  1.0000
  O   O15       1.0  0.49720  0.92951  0.78873  1.0000
  O   O16       1.0  0.50280  0.07049  0.21127  1.0000
  F   F1        1.0  0.80147  0.90443  0.19888  1.0000
  F   F2        1.0  0.19853  0.09558  0.80112  1.0000
  F   F3        1.0  0.96565  0.90651  0.06590  1.0000
  F   F4        1.0  0.03434  0.09349  0.93409  1.0000
