data_image0
_chemical_formula_structural       Mn2H38C44N4O14
_chemical_formula_sum              "Mn2 H38 C44 N4 O14"
_cell_length_a       10.1223
_cell_length_b       9.91333
_cell_length_c       12.7678
_cell_angle_alpha    100.554
_cell_angle_beta     105.954
_cell_angle_gamma    115.109

_space_group_name_H-M_alt    "P 1"
_space_group_IT_number       1

loop_
  _space_group_symop_operation_xyz
  'x, y, z'

loop_
  _atom_site_type_symbol
  _atom_site_label
  _atom_site_symmetry_multiplicity
  _atom_site_fract_x
  _atom_site_fract_y
  _atom_site_fract_z
  _atom_site_occupancy
  Mn  Mn1       1.0  0.91226  0.74600  0.02887  1.0000
  Mn  Mn2       1.0  0.08773  0.25400  0.97113  1.0000
  H   H1        1.0  0.64493  0.48229  0.92977  1.0000
  H   H2        1.0  0.35507  0.51771  0.07023  1.0000
  H   H3        1.0  0.76169  0.41124  0.93972  1.0000
  H   H4        1.0  0.23831  0.58876  0.06028  1.0000
  H   H5        1.0  0.12527  0.05795  0.13923  1.0000
  H   H6        1.0  0.87473  0.94205  0.86077  1.0000
  H   H7        1.0  0.96371  0.04284  0.12037  1.0000
  H   H8        1.0  0.03628  0.95716  0.87963  1.0000
  H   H9        1.0  0.42538  0.73447  0.02127  1.0000
  H   H10       1.0  0.57462  0.26553  0.97873  1.0000
  H   H11       1.0  0.18876  0.91099  0.79717  1.0000
  H   H12       1.0  0.81124  0.08901  0.20282  1.0000
  H   H13       1.0  0.60544  0.90461  0.77804  1.0000
  H   H14       1.0  0.39455  0.09539  0.22196  1.0000
  H   H15       1.0  0.59281  0.02170  0.65215  1.0000
  H   H16       1.0  0.40719  0.97830  0.34785  1.0000
  H   H17       1.0  0.63026  0.18706  0.76323  1.0000
  H   H18       1.0  0.36975  0.81294  0.23677  1.0000
  H   H19       1.0  0.10561  0.06798  0.43369  1.0000
  H   H20       1.0  0.89440  0.93202  0.56631  1.0000
  H   H21       1.0  0.25664  0.24986  0.34420  1.0000
  H   H22       1.0  0.74336  0.75014  0.65580  1.0000
  H   H23       1.0  0.54790  0.36900  0.41224  1.0000
  H   H24       1.0  0.45211  0.63101  0.58776  1.0000
  H   H25       1.0  0.69689  0.30402  0.56717  1.0000
  H   H26       1.0  0.30311  0.69598  0.43283  1.0000
  H   H27       1.0  0.82642  0.78321  0.23763  1.0000
  H   H28       1.0  0.17358  0.21680  0.76237  1.0000
  H   H29       1.0  0.81122  0.67599  0.39898  1.0000
  H   H30       1.0  0.18878  0.32402  0.60102  1.0000
  H   H31       1.0  0.05164  0.43808  0.29687  1.0000
  H   H32       1.0  0.94835  0.56191  0.70312  1.0000
  H   H33       1.0  0.06273  0.56056  0.14438  1.0000
  H   H34       1.0  0.93726  0.43943  0.85561  1.0000
  H   H35       1.0  0.84743  0.50206  0.49593  1.0000
  H   H36       1.0  0.15257  0.49794  0.50407  1.0000
  H   H37       1.0  0.85571  0.34243  0.41381  1.0000
  H   H38       1.0  0.14429  0.65757  0.58619  1.0000
  C   C1        1.0  0.17259  0.78046  0.96711  1.0000
  C   C2        1.0  0.82741  0.21954  0.03289  1.0000
  C   C3        1.0  0.65264  0.77384  0.94318  1.0000
  C   C4        1.0  0.34736  0.22616  0.05681  1.0000
  C   C5        1.0  0.41290  0.78158  0.95113  1.0000
  C   C6        1.0  0.58710  0.21841  0.04887  1.0000
  C   C7        1.0  0.29168  0.81600  0.91338  1.0000
  C   C8        1.0  0.70832  0.18400  0.08662  1.0000
  C   C9        1.0  0.28277  0.88377  0.82649  1.0000
  C   C10       1.0  0.71722  0.11622  0.17351  1.0000
  C   C11       1.0  0.39663  0.91805  0.77768  1.0000
  C   C12       1.0  0.60337  0.08195  0.22232  1.0000
  C   C13       1.0  0.51646  0.88041  0.81495  1.0000
  C   C14       1.0  0.48354  0.11959  0.18505  1.0000
  C   C15       1.0  0.52400  0.81183  0.90111  1.0000
  C   C16       1.0  0.47600  0.18816  0.09888  1.0000
  C   C17       1.0  0.26146  0.98651  0.61831  1.0000
  C   C18       1.0  0.73854  0.01349  0.38169  1.0000
  C   C19       1.0  0.54102  0.09215  0.68025  1.0000
  C   C20       1.0  0.45898  0.90785  0.31975  1.0000
  C   C21       1.0  0.48422  0.15212  0.58806  1.0000
  C   C22       1.0  0.51579  0.84788  0.41195  1.0000
  C   C23       1.0  0.31962  0.08726  0.55063  1.0000
  C   C24       1.0  0.68038  0.91275  0.44937  1.0000
  C   C25       1.0  0.23397  0.11964  0.46256  1.0000
  C   C26       1.0  0.76603  0.88037  0.53745  1.0000
  C   C27       1.0  0.31912  0.22258  0.41382  1.0000
  C   C28       1.0  0.68088  0.77742  0.58618  1.0000
  C   C29       1.0  0.48457  0.28946  0.45218  1.0000
  C   C30       1.0  0.51543  0.71054  0.54782  1.0000
  C   C31       1.0  0.56887  0.25397  0.53906  1.0000
  C   C32       1.0  0.43113  0.74603  0.46093  1.0000
  C   C33       1.0  0.87549  0.70676  0.25455  1.0000
  C   C34       1.0  0.12452  0.29324  0.74546  1.0000
  C   C35       1.0  0.86640  0.64535  0.34357  1.0000
  C   C36       1.0  0.13361  0.35465  0.65643  1.0000
  C   C37       1.0  0.92828  0.54535  0.36131  1.0000
  C   C38       1.0  0.07172  0.45466  0.63870  1.0000
  C   C39       1.0  0.00173  0.51573  0.28870  1.0000
  C   C40       1.0  0.99827  0.48427  0.71130  1.0000
  C   C41       1.0  0.00740  0.58245  0.20234  1.0000
  C   C42       1.0  0.99260  0.41755  0.79766  1.0000
  C   C43       1.0  0.91754  0.47232  0.45394  1.0000
  C   C44       1.0  0.08246  0.52768  0.54606  1.0000
  N   N1        1.0  0.94349  0.67496  0.18356  1.0000
  N   N2        1.0  0.05652  0.32505  0.81644  1.0000
  N   N3        1.0  0.39498  0.99297  0.69412  1.0000
  N   N4        1.0  0.60503  0.00703  0.30588  1.0000
  O   O1        1.0  0.06590  0.81954  0.93630  1.0000
  O   O2        1.0  0.93410  0.18046  0.06370  1.0000
  O   O3        1.0  0.73953  0.49422  0.91708  1.0000
  O   O4        1.0  0.26047  0.50578  0.08291  1.0000
  O   O5        1.0  0.17587  0.71117  0.04135  1.0000
  O   O6        1.0  0.82412  0.28883  0.95865  1.0000
  O   O7        1.0  0.02344  0.98858  0.14481  1.0000
  O   O8        1.0  0.97655  0.01142  0.85519  1.0000
  O   O9        1.0  0.66259  0.71998  0.02638  1.0000
  O   O10       1.0  0.33740  0.28002  0.97362  1.0000
  O   O11       1.0  0.75183  0.79684  0.89451  1.0000
  O   O12       1.0  0.24816  0.20316  0.10549  1.0000
  O   O13       1.0  0.12376  0.90998  0.61087  1.0000
  O   O14       1.0  0.87625  0.09003  0.38914  1.0000
