data_image0
_chemical_formula_structural       Cd2H20C22N6O10
_chemical_formula_sum              "Cd2 H20 C22 N6 O10"
_cell_length_a       6.73822
_cell_length_b       9.90303
_cell_length_c       9.69197
_cell_angle_alpha    85.0892
_cell_angle_beta     73.9915
_cell_angle_gamma    72.7923

_space_group_name_H-M_alt    "P 1"
_space_group_IT_number       1

loop_
  _space_group_symop_operation_xyz
  'x, y, z'

loop_
  _atom_site_type_symbol
  _atom_site_label
  _atom_site_symmetry_multiplicity
  _atom_site_fract_x
  _atom_site_fract_y
  _atom_site_fract_z
  _atom_site_occupancy
  Cd  Cd1       1.0  0.03049  0.29519  0.42326  1.0000
  Cd  Cd2       1.0  0.96950  0.70481  0.57675  1.0000
  H   H1        1.0  0.70773  0.19062  0.31369  1.0000
  H   H2        1.0  0.29227  0.80938  0.68632  1.0000
  H   H3        1.0  0.93601  0.07731  0.73402  1.0000
  H   H4        1.0  0.06398  0.92269  0.26597  1.0000
  H   H5        1.0  0.89108  0.85901  0.91536  1.0000
  H   H6        1.0  0.10889  0.14098  0.08462  1.0000
  H   H7        1.0  0.54896  0.80107  0.43263  1.0000
  H   H8        1.0  0.45108  0.19894  0.56738  1.0000
  H   H9        1.0  0.97681  0.62397  0.03255  1.0000
  H   H10       1.0  0.02316  0.37603  0.96745  1.0000
  H   H11       1.0  0.37175  0.39003  0.04898  1.0000
  H   H12       1.0  0.62826  0.60998  0.95102  1.0000
  H   H13       1.0  0.31900  0.52922  0.92273  1.0000
  H   H14       1.0  0.68099  0.47078  0.07728  1.0000
  H   H15       1.0  0.63214  0.06721  0.05751  1.0000
  H   H16       1.0  0.36784  0.93279  0.94248  1.0000
  H   H17       1.0  0.62428  0.50451  0.66824  1.0000
  H   H18       1.0  0.37572  0.49551  0.33176  1.0000
  H   H19       1.0  0.79157  0.08863  0.43251  1.0000
  H   H20       1.0  0.20844  0.91136  0.56750  1.0000
  C   C1        1.0  0.83035  0.18447  0.75284  1.0000
  C   C2        1.0  0.16961  0.81556  0.24716  1.0000
  C   C3        1.0  0.81560  0.84727  0.02891  1.0000
  C   C4        1.0  0.18440  0.15272  0.97109  1.0000
  C   C5        1.0  0.39345  0.06650  0.33377  1.0000
  C   C6        1.0  0.60654  0.93351  0.66624  1.0000
  C   C7        1.0  0.62309  0.81533  0.31965  1.0000
  C   C8        1.0  0.37692  0.18466  0.68035  1.0000
  C   C9        1.0  0.86492  0.71519  0.09438  1.0000
  C   C10       1.0  0.13507  0.28481  0.90563  1.0000
  C   C11       1.0  0.77357  0.69969  0.24138  1.0000
  C   C12       1.0  0.22643  0.30030  0.75862  1.0000
  C   C13       1.0  0.56916  0.94700  0.25353  1.0000
  C   C14       1.0  0.43085  0.05299  0.74647  1.0000
  C   C15       1.0  0.84037  0.56370  0.31803  1.0000
  C   C16       1.0  0.15963  0.43631  0.68198  1.0000
  C   C17       1.0  0.44452  0.45799  0.96804  1.0000
  C   C18       1.0  0.55547  0.54201  0.03197  1.0000
  C   C19       1.0  0.67088  0.96377  0.10844  1.0000
  C   C20       1.0  0.32912  0.03622  0.89155  1.0000
  C   C21       1.0  0.67471  0.40144  0.71655  1.0000
  C   C22       1.0  0.32528  0.59856  0.28345  1.0000
  N   N1        1.0  0.69778  0.22944  0.87953  1.0000
  N   N2        1.0  0.30221  0.77057  0.12045  1.0000
  N   N3        1.0  0.60009  0.36708  0.85410  1.0000
  N   N4        1.0  0.39992  0.63292  0.14589  1.0000
  N   N5        1.0  0.82122  0.28742  0.64935  1.0000
  N   N6        1.0  0.17879  0.71259  0.35064  1.0000
  O   O1        1.0  0.38310  0.19340  0.28751  1.0000
  O   O2        1.0  0.61690  0.80661  0.71248  1.0000
  O   O3        1.0  0.25159  0.04096  0.44245  1.0000
  O   O4        1.0  0.74843  0.95902  0.55755  1.0000
  O   O5        1.0  0.83404  0.15260  0.35137  1.0000
  O   O6        1.0  0.16597  0.84740  0.64864  1.0000
  O   O7        1.0  0.79943  0.56434  0.45468  1.0000
  O   O8        1.0  0.20061  0.43565  0.54531  1.0000
  O   O9        1.0  0.94212  0.45060  0.24422  1.0000
  O   O10       1.0  0.05787  0.54940  0.75579  1.0000
