data_image0
_chemical_formula_structural       Hg2H12C14S2N4Cl4
_chemical_formula_sum              "Hg2 H12 C14 S2 N4 Cl4"
_cell_length_a       7.28952
_cell_length_b       7.71306
_cell_length_c       9.75926
_cell_angle_alpha    68.3455
_cell_angle_beta     91.011
_cell_angle_gamma    86.68

_space_group_name_H-M_alt    "P 1"
_space_group_IT_number       1

loop_
  _space_group_symop_operation_xyz
  'x, y, z'

loop_
  _atom_site_type_symbol
  _atom_site_label
  _atom_site_symmetry_multiplicity
  _atom_site_fract_x
  _atom_site_fract_y
  _atom_site_fract_z
  _atom_site_occupancy
  Hg  Hg1       1.0  0.24617  0.55499  0.43259  1.0000
  Hg  Hg2       1.0  0.75381  0.44499  0.56741  1.0000
  H   H1        1.0  0.15329  0.90367  0.47326  1.0000
  H   H2        1.0  0.84671  0.09632  0.52675  1.0000
  H   H3        1.0  0.11843  0.14467  0.37840  1.0000
  H   H4        1.0  0.88157  0.85532  0.62161  1.0000
  H   H5        1.0  0.27293  0.20596  0.76831  1.0000
  H   H6        1.0  0.72707  0.79405  0.23170  1.0000
  H   H7        1.0  0.36186  0.94086  0.69079  1.0000
  H   H8        1.0  0.63813  0.05916  0.30920  1.0000
  H   H9        1.0  0.37694  0.61436  0.87038  1.0000
  H   H10       1.0  0.62306  0.38566  0.12962  1.0000
  H   H11       1.0  0.31461  0.54556  0.13550  1.0000
  H   H12       1.0  0.68541  0.45445  0.86449  1.0000
  C   C1        1.0  0.25728  0.83773  0.09973  1.0000
  C   C2        1.0  0.74273  0.16226  0.90026  1.0000
  C   C3        1.0  0.24367  0.02320  0.99568  1.0000
  C   C4        1.0  0.75633  0.97679  0.00434  1.0000
  C   C5        1.0  0.28088  0.06265  0.84794  1.0000
  C   C6        1.0  0.71912  0.93735  0.15205  1.0000
  C   C7        1.0  0.32975  0.91292  0.80521  1.0000
  C   C8        1.0  0.67025  0.08711  0.19479  1.0000
  C   C9        1.0  0.34066  0.72839  0.90746  1.0000
  C   C10       1.0  0.65934  0.27163  0.09251  1.0000
  C   C11       1.0  0.30577  0.68899  0.05540  1.0000
  C   C12       1.0  0.69424  0.31102  0.94461  1.0000
  C   C13       1.0  0.17647  0.99085  0.25041  1.0000
  C   C14       1.0  0.82353  0.00915  0.74959  1.0000
  S   S1        1.0  0.17798  0.17823  0.08174  1.0000
  S   S2        1.0  0.82202  0.82177  0.91827  1.0000
  N   N1        1.0  0.21852  0.82522  0.24183  1.0000
  N   N2        1.0  0.78149  0.17478  0.75817  1.0000
  N   N3        1.0  0.13389  0.01411  0.37553  1.0000
  N   N4        1.0  0.86611  0.98587  0.62448  1.0000
  Cl  Cl1       1.0  0.44316  0.27637  0.46198  1.0000
  Cl  Cl2       1.0  0.55684  0.72363  0.53801  1.0000
  Cl  Cl3       1.0  0.07815  0.57397  0.65661  1.0000
  Cl  Cl4       1.0  0.92184  0.42602  0.34340  1.0000
