data_image0
_chemical_formula_structural       U2H24C34S2N4O12
_chemical_formula_sum              "U2 H24 C34 S2 N4 O12"
_cell_length_a       8.40573
_cell_length_b       9.49623
_cell_length_c       11.0985
_cell_angle_alpha    106.436
_cell_angle_beta     97.5146
_cell_angle_gamma    98.7492

_space_group_name_H-M_alt    "P 1"
_space_group_IT_number       1

loop_
  _space_group_symop_operation_xyz
  'x, y, z'

loop_
  _atom_site_type_symbol
  _atom_site_label
  _atom_site_symmetry_multiplicity
  _atom_site_fract_x
  _atom_site_fract_y
  _atom_site_fract_z
  _atom_site_occupancy
  U   U1        1.0  0.19594  0.62372  0.48565  1.0000
  U   U2        1.0  0.80406  0.37628  0.51434  1.0000
  H   H1        1.0  0.98061  0.38045  0.29350  1.0000
  H   H2        1.0  0.01939  0.61955  0.70650  1.0000
  H   H3        1.0  0.05849  0.39933  0.94097  1.0000
  H   H4        1.0  0.94151  0.60066  0.05902  1.0000
  H   H5        1.0  0.15479  0.46746  0.75767  1.0000
  H   H6        1.0  0.84521  0.53254  0.24233  1.0000
  H   H7        1.0  0.44587  0.55090  0.76320  1.0000
  H   H8        1.0  0.55413  0.44910  0.23681  1.0000
  H   H9        1.0  0.05278  0.84785  0.73997  1.0000
  H   H10       1.0  0.94722  0.15216  0.26003  1.0000
  H   H11       1.0  0.14817  0.04590  0.95157  1.0000
  H   H12       1.0  0.85183  0.95410  0.04843  1.0000
  H   H13       1.0  0.44075  0.17532  0.01323  1.0000
  H   H14       1.0  0.55926  0.82468  0.98678  1.0000
  H   H15       1.0  0.89765  0.14814  0.79255  1.0000
  H   H16       1.0  0.10236  0.85186  0.20745  1.0000
  H   H17       1.0  0.71782  0.21662  0.95141  1.0000
  H   H18       1.0  0.28218  0.78338  0.04859  1.0000
  H   H19       1.0  0.93464  0.99055  0.58050  1.0000
  H   H20       1.0  0.06536  0.00945  0.41950  1.0000
  H   H21       1.0  0.80867  0.79682  0.36947  1.0000
  H   H22       1.0  0.19133  0.20317  0.63053  1.0000
  H   H23       1.0  0.51173  0.68245  0.33013  1.0000
  H   H24       1.0  0.48827  0.31755  0.66987  1.0000
  C   C1        1.0  0.30075  0.43612  0.04676  1.0000
  C   C2        1.0  0.69924  0.56388  0.95324  1.0000
  C   C3        1.0  0.18871  0.43281  0.94289  1.0000
  C   C4        1.0  0.81128  0.56719  0.05711  1.0000
  C   C5        1.0  0.24356  0.47324  0.84034  1.0000
  C   C6        1.0  0.75643  0.52676  0.15966  1.0000
  C   C7        1.0  0.40802  0.51804  0.84295  1.0000
  C   C8        1.0  0.59198  0.48196  0.15705  1.0000
  C   C9        1.0  0.52686  0.52103  0.94738  1.0000
  C   C10       1.0  0.47314  0.47897  0.05262  1.0000
  C   C11       1.0  0.17969  0.90746  0.76801  1.0000
  C   C12       1.0  0.82031  0.09254  0.23199  1.0000
  C   C13       1.0  0.23327  0.01933  0.88640  1.0000
  C   C14       1.0  0.76673  0.98067  0.11360  1.0000
  C   C15       1.0  0.39561  0.09161  0.92008  1.0000
  C   C16       1.0  0.60438  0.90839  0.07992  1.0000
  C   C17       1.0  0.50256  0.05550  0.83326  1.0000
  C   C18       1.0  0.49744  0.94450  0.16674  1.0000
  C   C19       1.0  0.43792  0.94062  0.71537  1.0000
  C   C20       1.0  0.56208  0.05938  0.28463  1.0000
  C   C21       1.0  0.54172  0.90315  0.62307  1.0000
  C   C22       1.0  0.45828  0.09685  0.37693  1.0000
  C   C23       1.0  0.70813  0.97798  0.65269  1.0000
  C   C24       1.0  0.29187  0.02201  0.34731  1.0000
  C   C25       1.0  0.77001  0.09109  0.77316  1.0000
  C   C26       1.0  0.23000  0.90891  0.22684  1.0000
  C   C27       1.0  0.67086  0.12926  0.86015  1.0000
  C   C28       1.0  0.32914  0.87074  0.13985  1.0000
  C   C29       1.0  0.80583  0.93707  0.55941  1.0000
  C   C30       1.0  0.19417  0.06293  0.44059  1.0000
  C   C31       1.0  0.73644  0.83195  0.44303  1.0000
  C   C32       1.0  0.26356  0.16804  0.55697  1.0000
  C   C33       1.0  0.57003  0.76586  0.42078  1.0000
  C   C34       1.0  0.42997  0.23414  0.57922  1.0000
  S   S1        1.0  0.22427  0.37673  0.17096  1.0000
  S   S2        1.0  0.77573  0.62327  0.82904  1.0000
  N   N1        1.0  0.27904  0.86596  0.68541  1.0000
  N   N2        1.0  0.72097  0.13404  0.31459  1.0000
  N   N3        1.0  0.47517  0.79823  0.50824  1.0000
  N   N4        1.0  0.52483  0.20177  0.49176  1.0000
  O   O1        1.0  0.07953  0.72838  0.40604  1.0000
  O   O2        1.0  0.92047  0.27162  0.59396  1.0000
  O   O3        1.0  0.32248  0.53049  0.56881  1.0000
  O   O4        1.0  0.67752  0.46950  0.43119  1.0000
  O   O5        1.0  0.27641  0.51304  0.28757  1.0000
  O   O6        1.0  0.72359  0.48696  0.71243  1.0000
  O   O7        1.0  0.04496  0.33922  0.13487  1.0000
  O   O8        1.0  0.95505  0.66078  0.86513  1.0000
  O   O9        1.0  0.30112  0.25412  0.18562  1.0000
  O   O10       1.0  0.69888  0.74589  0.81438  1.0000
  O   O11       1.0  0.99688  0.40487  0.38753  1.0000
  O   O12       1.0  0.00312  0.59513  0.61247  1.0000
