data_image0
_chemical_formula_structural       Cd12H32C32N48Cl8
_chemical_formula_sum              "Cd12 H32 C32 N48 Cl8"
_cell_length_a       8.33645
_cell_length_b       13.1733
_cell_length_c       17.0334
_cell_angle_alpha    90
_cell_angle_beta     90
_cell_angle_gamma    90

_space_group_name_H-M_alt    "P 1"
_space_group_IT_number       1

loop_
  _space_group_symop_operation_xyz
  'x, y, z'

loop_
  _atom_site_type_symbol
  _atom_site_label
  _atom_site_symmetry_multiplicity
  _atom_site_fract_x
  _atom_site_fract_y
  _atom_site_fract_z
  _atom_site_occupancy
  Cd  Cd1       1.0  0.25000  0.68040  0.56360  1.0000
  Cd  Cd2       1.0  0.75000  0.18040  0.93640  1.0000
  Cd  Cd3       1.0  0.75000  0.31960  0.43640  1.0000
  Cd  Cd4       1.0  0.25000  0.81960  0.06360  1.0000
  Cd  Cd5       1.0  0.99719  0.56142  0.75425  1.0000
  Cd  Cd6       1.0  0.00281  0.06142  0.74575  1.0000
  Cd  Cd7       1.0  0.49719  0.43858  0.24575  1.0000
  Cd  Cd8       1.0  0.50281  0.93858  0.25425  1.0000
  Cd  Cd9       1.0  0.00281  0.43858  0.24575  1.0000
  Cd  Cd10      1.0  0.99719  0.93858  0.25425  1.0000
  Cd  Cd11      1.0  0.50281  0.56142  0.75425  1.0000
  Cd  Cd12      1.0  0.49719  0.06142  0.74575  1.0000
  H   H1        1.0  0.99755  0.55564  0.43188  1.0000
  H   H2        1.0  0.00245  0.05564  0.06812  1.0000
  H   H3        1.0  0.49755  0.44436  0.56812  1.0000
  H   H4        1.0  0.50245  0.94436  0.93188  1.0000
  H   H5        1.0  0.00245  0.44436  0.56812  1.0000
  H   H6        1.0  0.99755  0.94436  0.93188  1.0000
  H   H7        1.0  0.50245  0.55564  0.43188  1.0000
  H   H8        1.0  0.49755  0.05564  0.06812  1.0000
  H   H9        1.0  0.99755  0.66996  0.93991  1.0000
  H   H10       1.0  0.00245  0.16996  0.56009  1.0000
  H   H11       1.0  0.49755  0.33004  0.06009  1.0000
  H   H12       1.0  0.50245  0.83004  0.43991  1.0000
  H   H13       1.0  0.00245  0.33004  0.06009  1.0000
  H   H14       1.0  0.99755  0.83004  0.43991  1.0000
  H   H15       1.0  0.50245  0.66996  0.93991  1.0000
  H   H16       1.0  0.49755  0.16996  0.56009  1.0000
  H   H17       1.0  0.91297  0.80676  0.80397  1.0000
  H   H18       1.0  0.08703  0.30676  0.69603  1.0000
  H   H19       1.0  0.41297  0.19324  0.19603  1.0000
  H   H20       1.0  0.58703  0.69324  0.30397  1.0000
  H   H21       1.0  0.08703  0.19324  0.19603  1.0000
  H   H22       1.0  0.91297  0.69324  0.30397  1.0000
  H   H23       1.0  0.58703  0.80676  0.80397  1.0000
  H   H24       1.0  0.41297  0.30676  0.69603  1.0000
  H   H25       1.0  0.07630  0.90856  0.58492  1.0000
  H   H26       1.0  0.92371  0.40856  0.91508  1.0000
  H   H27       1.0  0.57629  0.09144  0.41508  1.0000
  H   H28       1.0  0.42371  0.59144  0.08492  1.0000
  H   H29       1.0  0.92371  0.09144  0.41508  1.0000
  H   H30       1.0  0.07630  0.59144  0.08492  1.0000
  H   H31       1.0  0.42370  0.90856  0.58492  1.0000
  H   H32       1.0  0.57629  0.40856  0.91508  1.0000
  C   C1        1.0  0.12238  0.54394  0.41608  1.0000
  C   C2        1.0  0.87762  0.04394  0.08392  1.0000
  C   C3        1.0  0.62238  0.45606  0.58392  1.0000
  C   C4        1.0  0.37762  0.95606  0.91608  1.0000
  C   C5        1.0  0.87762  0.45606  0.58392  1.0000
  C   C6        1.0  0.12238  0.95606  0.91609  1.0000
  C   C7        1.0  0.37762  0.54394  0.41608  1.0000
  C   C8        1.0  0.62238  0.04394  0.08392  1.0000
  C   C9        1.0  0.12271  0.65969  0.92391  1.0000
  C   C10       1.0  0.87729  0.15969  0.57609  1.0000
  C   C11       1.0  0.62271  0.34031  0.07609  1.0000
  C   C12       1.0  0.37729  0.84031  0.42391  1.0000
  C   C13       1.0  0.87729  0.34031  0.07609  1.0000
  C   C14       1.0  0.12271  0.84031  0.42391  1.0000
  C   C15       1.0  0.37729  0.65969  0.92392  1.0000
  C   C16       1.0  0.62271  0.15969  0.57609  1.0000
  C   C17       1.0  0.95938  0.80893  0.74452  1.0000
  C   C18       1.0  0.04062  0.30893  0.75548  1.0000
  C   C19       1.0  0.45938  0.19107  0.25548  1.0000
  C   C20       1.0  0.54062  0.69107  0.24452  1.0000
  C   C21       1.0  0.04062  0.19107  0.25548  1.0000
  C   C22       1.0  0.95938  0.69107  0.24452  1.0000
  C   C23       1.0  0.54062  0.80893  0.74452  1.0000
  C   C24       1.0  0.45938  0.30893  0.75548  1.0000
  C   C25       1.0  0.03985  0.86023  0.63330  1.0000
  C   C26       1.0  0.96015  0.36023  0.86670  1.0000
  C   C27       1.0  0.53985  0.13977  0.36670  1.0000
  C   C28       1.0  0.46015  0.63977  0.13330  1.0000
  C   C29       1.0  0.96015  0.13977  0.36670  1.0000
  C   C30       1.0  0.03985  0.63977  0.13330  1.0000
  C   C31       1.0  0.46015  0.86023  0.63330  1.0000
  C   C32       1.0  0.53985  0.36023  0.86670  1.0000
  N   N1        1.0  0.98278  0.89480  0.70236  1.0000
  N   N2        1.0  0.01722  0.39480  0.79764  1.0000
  N   N3        1.0  0.48278  0.10520  0.29764  1.0000
  N   N4        1.0  0.51722  0.60520  0.20236  1.0000
  N   N5        1.0  0.01722  0.10520  0.29764  1.0000
  N   N6        1.0  0.98278  0.60520  0.20236  1.0000
  N   N7        1.0  0.51722  0.89480  0.70235  1.0000
  N   N8        1.0  0.48278  0.39480  0.79764  1.0000
  N   N9        1.0  0.25000  0.57448  0.45946  1.0000
  N   N10       1.0  0.75000  0.07448  0.04054  1.0000
  N   N11       1.0  0.75000  0.42552  0.54054  1.0000
  N   N12       1.0  0.25000  0.92552  0.95946  1.0000
  N   N13       1.0  0.99962  0.72608  0.70437  1.0000
  N   N14       1.0  0.00038  0.22608  0.79563  1.0000
  N   N15       1.0  0.49962  0.27392  0.29563  1.0000
  N   N16       1.0  0.50038  0.77392  0.20437  1.0000
  N   N17       1.0  0.00038  0.27392  0.29563  1.0000
  N   N18       1.0  0.99962  0.77392  0.20437  1.0000
  N   N19       1.0  0.50038  0.72608  0.70437  1.0000
  N   N20       1.0  0.49962  0.22608  0.79563  1.0000
  N   N21       1.0  0.16789  0.49717  0.35038  1.0000
  N   N22       1.0  0.83211  0.99717  0.14962  1.0000
  N   N23       1.0  0.66789  0.50283  0.64962  1.0000
  N   N24       1.0  0.33211  0.00283  0.85038  1.0000
  N   N25       1.0  0.83211  0.50283  0.64962  1.0000
  N   N26       1.0  0.16789  0.00283  0.85038  1.0000
  N   N27       1.0  0.33211  0.49717  0.35038  1.0000
  N   N28       1.0  0.66789  0.99717  0.14962  1.0000
  N   N29       1.0  0.05125  0.75889  0.63219  1.0000
  N   N30       1.0  0.94875  0.25889  0.86781  1.0000
  N   N31       1.0  0.55125  0.24111  0.36781  1.0000
  N   N32       1.0  0.44875  0.74111  0.13219  1.0000
  N   N33       1.0  0.94875  0.24111  0.36781  1.0000
  N   N34       1.0  0.05125  0.74111  0.13219  1.0000
  N   N35       1.0  0.44875  0.75889  0.63219  1.0000
  N   N36       1.0  0.55125  0.25889  0.86781  1.0000
  N   N37       1.0  0.25000  0.68806  0.96841  1.0000
  N   N38       1.0  0.75000  0.18806  0.53159  1.0000
  N   N39       1.0  0.75000  0.31194  0.03159  1.0000
  N   N40       1.0  0.25000  0.81194  0.46841  1.0000
  N   N41       1.0  0.16790  0.61641  0.85667  1.0000
  N   N42       1.0  0.83210  0.11641  0.64333  1.0000
  N   N43       1.0  0.66790  0.38359  0.14333  1.0000
  N   N44       1.0  0.33210  0.88359  0.35667  1.0000
  N   N45       1.0  0.83210  0.38359  0.14333  1.0000
  N   N46       1.0  0.16790  0.88359  0.35667  1.0000
  N   N47       1.0  0.33210  0.61641  0.85667  1.0000
  N   N48       1.0  0.66790  0.11641  0.64333  1.0000
  Cl  Cl1       1.0  0.25000  0.51611  0.65506  1.0000
  Cl  Cl2       1.0  0.75000  0.01611  0.84494  1.0000
  Cl  Cl3       1.0  0.75000  0.48389  0.34494  1.0000
  Cl  Cl4       1.0  0.25000  0.98389  0.15506  1.0000
  Cl  Cl5       1.0  0.75000  0.60261  0.84899  1.0000
  Cl  Cl6       1.0  0.25000  0.10261  0.65102  1.0000
  Cl  Cl7       1.0  0.25000  0.39739  0.15101  1.0000
  Cl  Cl8       1.0  0.75000  0.89739  0.34898  1.0000
