data_image0
_chemical_formula_structural       U4H36C56N4O24
_chemical_formula_sum              "U4 H36 C56 N4 O24"
_cell_length_a       9.30716
_cell_length_b       12.1625
_cell_length_c       12.1624
_cell_angle_alpha    96.4232
_cell_angle_beta     91.5035
_cell_angle_gamma    91.5034

_space_group_name_H-M_alt    "P 1"
_space_group_IT_number       1

loop_
  _space_group_symop_operation_xyz
  'x, y, z'

loop_
  _atom_site_type_symbol
  _atom_site_label
  _atom_site_symmetry_multiplicity
  _atom_site_fract_x
  _atom_site_fract_y
  _atom_site_fract_z
  _atom_site_occupancy
  U   U1        1.0  0.09245  0.63862  0.85807  1.0000
  U   U2        1.0  0.40755  0.14193  0.36138  1.0000
  U   U3        1.0  0.90754  0.36139  0.14193  1.0000
  U   U4        1.0  0.59245  0.85807  0.63862  1.0000
  H   H1        1.0  0.04582  0.59029  0.55242  1.0000
  H   H2        1.0  0.45418  0.44758  0.40970  1.0000
  H   H3        1.0  0.95418  0.40971  0.44758  1.0000
  H   H4        1.0  0.54582  0.55242  0.59029  1.0000
  H   H5        1.0  0.89307  0.58665  0.38068  1.0000
  H   H6        1.0  0.60693  0.61932  0.41334  1.0000
  H   H7        1.0  0.10693  0.41334  0.61932  1.0000
  H   H8        1.0  0.39307  0.38068  0.58665  1.0000
  H   H9        1.0  0.94276  0.72223  0.24721  1.0000
  H   H10       1.0  0.55724  0.75280  0.27777  1.0000
  H   H11       1.0  0.05724  0.27777  0.75279  1.0000
  H   H12       1.0  0.44276  0.24721  0.72223  1.0000
  H   H13       1.0  0.14576  0.85965  0.28664  1.0000
  H   H14       1.0  0.35424  0.71336  0.14035  1.0000
  H   H15       1.0  0.85424  0.14035  0.71336  1.0000
  H   H16       1.0  0.64576  0.28663  0.85965  1.0000
  H   H17       1.0  0.83421  0.80966  0.02961  1.0000
  H   H18       1.0  0.66579  0.97039  0.19035  1.0000
  H   H19       1.0  0.16579  0.19034  0.97039  1.0000
  H   H20       1.0  0.33421  0.02961  0.80965  1.0000
  H   H21       1.0  0.47491  0.94864  0.08322  1.0000
  H   H22       1.0  0.02509  0.91678  0.05136  1.0000
  H   H23       1.0  0.52509  0.05135  0.91678  1.0000
  H   H24       1.0  0.97491  0.08322  0.94864  1.0000
  H   H25       1.0  0.24875  0.86915  0.98839  1.0000
  H   H26       1.0  0.25125  0.01161  0.13085  1.0000
  H   H27       1.0  0.75125  0.13085  0.01161  1.0000
  H   H28       1.0  0.74875  0.98839  0.86914  1.0000
  H   H29       1.0  0.45034  0.58789  0.85501  1.0000
  H   H30       1.0  0.04966  0.14499  0.41212  1.0000
  H   H31       1.0  0.54967  0.41211  0.14499  1.0000
  H   H32       1.0  0.95033  0.85501  0.58789  1.0000
  H   H33       1.0  0.68815  0.65761  0.94037  1.0000
  H   H34       1.0  0.81185  0.05964  0.34239  1.0000
  H   H35       1.0  0.31185  0.34239  0.05963  1.0000
  H   H36       1.0  0.18815  0.94036  0.65761  1.0000
  C   C1        1.0  0.18459  0.72387  0.51469  1.0000
  C   C2        1.0  0.31542  0.48531  0.27613  1.0000
  C   C3        1.0  0.81542  0.27613  0.48531  1.0000
  C   C4        1.0  0.68459  0.51469  0.72387  1.0000
  C   C5        1.0  0.06844  0.64809  0.49259  1.0000
  C   C6        1.0  0.43156  0.50742  0.35191  1.0000
  C   C7        1.0  0.93156  0.35191  0.50741  1.0000
  C   C8        1.0  0.56844  0.49259  0.64809  1.0000
  C   C9        1.0  0.98171  0.64700  0.39735  1.0000
  C   C10       1.0  0.51829  0.60265  0.35300  1.0000
  C   C11       1.0  0.01829  0.35299  0.60265  1.0000
  C   C12       1.0  0.48171  0.39735  0.64700  1.0000
  C   C13       1.0  0.00939  0.72308  0.32233  1.0000
  C   C14       1.0  0.49061  0.67767  0.27692  1.0000
  C   C15       1.0  0.99061  0.27692  0.67767  1.0000
  C   C16       1.0  0.50939  0.32233  0.72308  1.0000
  C   C17       1.0  0.12318  0.79956  0.34404  1.0000
  C   C18       1.0  0.37682  0.65596  0.20044  1.0000
  C   C19       1.0  0.87682  0.20044  0.65596  1.0000
  C   C20       1.0  0.62318  0.34404  0.79956  1.0000
  C   C21       1.0  0.21208  0.80215  0.43931  1.0000
  C   C22       1.0  0.28792  0.56069  0.19785  1.0000
  C   C23       1.0  0.78792  0.19785  0.56069  1.0000
  C   C24       1.0  0.71208  0.43931  0.80215  1.0000
  C   C25       1.0  0.27188  0.71298  0.61827  1.0000
  C   C26       1.0  0.22812  0.38173  0.28702  1.0000
  C   C27       1.0  0.72812  0.28702  0.38173  1.0000
  C   C28       1.0  0.77188  0.61827  0.71298  1.0000
  C   C29       1.0  0.32274  0.89459  0.45856  1.0000
  C   C30       1.0  0.17726  0.54144  0.10541  1.0000
  C   C31       1.0  0.67726  0.10541  0.54144  1.0000
  C   C32       1.0  0.82274  0.45856  0.89459  1.0000
  C   C33       1.0  0.74083  0.85039  0.06646  1.0000
  C   C34       1.0  0.75917  0.93354  0.14961  1.0000
  C   C35       1.0  0.25917  0.14961  0.93354  1.0000
  C   C36       1.0  0.24083  0.06646  0.85039  1.0000
  C   C37       1.0  0.60193  0.80872  0.01956  1.0000
  C   C38       1.0  0.89807  0.98044  0.19129  1.0000
  C   C39       1.0  0.39807  0.19128  0.98044  1.0000
  C   C40       1.0  0.10193  0.01956  0.80872  1.0000
  C   C41       1.0  0.47486  0.86837  0.03347  1.0000
  C   C42       1.0  0.02514  0.96653  0.13164  1.0000
  C   C43       1.0  0.52514  0.13163  0.96652  1.0000
  C   C44       1.0  0.97486  0.03347  0.86836  1.0000
  C   C45       1.0  0.34865  0.82473  0.98134  1.0000
  C   C46       1.0  0.15135  0.01866  0.17527  1.0000
  C   C47       1.0  0.65135  0.17527  0.01866  1.0000
  C   C48       1.0  0.84865  0.98134  0.82473  1.0000
  C   C49       1.0  0.46079  0.66743  0.90600  1.0000
  C   C50       1.0  0.03921  0.09400  0.33257  1.0000
  C   C51       1.0  0.53921  0.33257  0.09400  1.0000
  C   C52       1.0  0.96079  0.90600  0.66743  1.0000
  C   C53       1.0  0.59229  0.70631  0.95357  1.0000
  C   C54       1.0  0.90770  0.04644  0.29370  1.0000
  C   C55       1.0  0.40771  0.29369  0.04644  1.0000
  C   C56       1.0  0.09229  0.95356  0.70631  1.0000
  N   N1        1.0  0.34005  0.72542  0.91936  1.0000
  N   N2        1.0  0.15994  0.08065  0.27458  1.0000
  N   N3        1.0  0.65995  0.27458  0.08064  1.0000
  N   N4        1.0  0.84005  0.91935  0.72542  1.0000
  O   O1        1.0  0.16856  0.50498  0.81931  1.0000
  O   O2        1.0  0.33144  0.18069  0.49502  1.0000
  O   O3        1.0  0.83144  0.49502  0.18069  1.0000
  O   O4        1.0  0.66856  0.81931  0.50497  1.0000
  O   O5        1.0  0.02515  0.77398  0.90567  1.0000
  O   O6        1.0  0.47485  0.09433  0.22603  1.0000
  O   O7        1.0  0.97485  0.22602  0.09433  1.0000
  O   O8        1.0  0.52514  0.90567  0.77398  1.0000
  O   O9        1.0  0.20132  0.69551  0.70335  1.0000
  O   O10       1.0  0.29868  0.29665  0.30449  1.0000
  O   O11       1.0  0.79868  0.30449  0.29665  1.0000
  O   O12       1.0  0.70132  0.70335  0.69551  1.0000
  O   O13       1.0  0.40827  0.71539  0.61732  1.0000
  O   O14       1.0  0.09173  0.38269  0.28461  1.0000
  O   O15       1.0  0.59173  0.28461  0.38268  1.0000
  O   O16       1.0  0.90827  0.61732  0.71539  1.0000
  O   O17       1.0  0.38368  0.91669  0.55457  1.0000
  O   O18       1.0  0.11632  0.44543  0.08331  1.0000
  O   O19       1.0  0.61632  0.08331  0.44543  1.0000
  O   O20       1.0  0.88368  0.55457  0.91669  1.0000
  O   O21       1.0  0.34772  0.95172  0.37946  1.0000
  O   O22       1.0  0.15228  0.62054  0.04828  1.0000
  O   O23       1.0  0.65228  0.04828  0.62054  1.0000
  O   O24       1.0  0.84772  0.37946  0.95172  1.0000
