data_image0
_chemical_formula_structural       U4H32C40N4O28
_chemical_formula_sum              "U4 H32 C40 N4 O28"
_cell_length_a       10.0835
_cell_length_b       10.4838
_cell_length_c       12.1319
_cell_angle_alpha    104.713
_cell_angle_beta     90.0005
_cell_angle_gamma    89.9998

_space_group_name_H-M_alt    "P 1"
_space_group_IT_number       1

loop_
  _space_group_symop_operation_xyz
  'x, y, z'

loop_
  _atom_site_type_symbol
  _atom_site_label
  _atom_site_symmetry_multiplicity
  _atom_site_fract_x
  _atom_site_fract_y
  _atom_site_fract_z
  _atom_site_occupancy
  U   U1        1.0  0.53036  0.26115  0.84194  1.0000
  U   U2        1.0  0.03036  0.23885  0.65805  1.0000
  U   U3        1.0  0.46963  0.73883  0.15806  1.0000
  U   U4        1.0  0.96965  0.76115  0.34194  1.0000
  H   H1        1.0  0.45647  0.27373  0.60220  1.0000
  H   H2        1.0  0.95647  0.22628  0.89780  1.0000
  H   H3        1.0  0.54353  0.72627  0.39780  1.0000
  H   H4        1.0  0.04354  0.77373  0.10221  1.0000
  H   H5        1.0  0.34448  0.18685  0.65268  1.0000
  H   H6        1.0  0.84447  0.31316  0.84732  1.0000
  H   H7        1.0  0.65552  0.81316  0.34732  1.0000
  H   H8        1.0  0.15552  0.68684  0.15268  1.0000
  H   H9        1.0  0.94915  0.67429  0.61732  1.0000
  H   H10       1.0  0.44914  0.82571  0.88268  1.0000
  H   H11       1.0  0.05087  0.32571  0.38268  1.0000
  H   H12       1.0  0.55086  0.17428  0.11732  1.0000
  H   H13       1.0  0.88573  0.54362  0.75350  1.0000
  H   H14       1.0  0.38572  0.95639  0.74649  1.0000
  H   H15       1.0  0.11429  0.45638  0.24649  1.0000
  H   H16       1.0  0.61428  0.04361  0.25351  1.0000
  H   H17       1.0  0.74737  0.64728  0.92355  1.0000
  H   H18       1.0  0.24736  0.85274  0.57645  1.0000
  H   H19       1.0  0.25265  0.35271  0.07644  1.0000
  H   H20       1.0  0.75265  0.14728  0.42355  1.0000
  H   H21       1.0  0.66617  0.87632  0.95010  1.0000
  H   H22       1.0  0.16617  0.62369  0.54989  1.0000
  H   H23       1.0  0.33382  0.12367  0.04990  1.0000
  H   H24       1.0  0.83384  0.37632  0.45009  1.0000
  H   H25       1.0  0.62093  0.47767  0.66792  1.0000
  H   H26       1.0  0.12093  0.02234  0.83209  1.0000
  H   H27       1.0  0.37908  0.52234  0.33208  1.0000
  H   H28       1.0  0.87906  0.97767  0.16792  1.0000
  H   H29       1.0  0.36096  0.31574  0.40349  1.0000
  H   H30       1.0  0.86096  0.18426  0.09651  1.0000
  H   H31       1.0  0.63905  0.68426  0.59652  1.0000
  H   H32       1.0  0.13906  0.81576  0.90350  1.0000
  C   C1        1.0  0.68842  0.03183  0.81190  1.0000
  C   C2        1.0  0.18842  0.46818  0.68809  1.0000
  C   C3        1.0  0.31158  0.96817  0.18809  1.0000
  C   C4        1.0  0.81158  0.53183  0.31191  1.0000
  C   C5        1.0  0.75915  0.90393  0.79803  1.0000
  C   C6        1.0  0.25915  0.59608  0.70196  1.0000
  C   C7        1.0  0.24084  0.09607  0.20197  1.0000
  C   C8        1.0  0.74085  0.40392  0.29803  1.0000
  C   C9        1.0  0.84270  0.84783  0.70470  1.0000
  C   C10       1.0  0.34269  0.65218  0.79530  1.0000
  C   C11       1.0  0.15730  0.15216  0.29531  1.0000
  C   C12       1.0  0.65731  0.34782  0.20469  1.0000
  C   C13       1.0  0.89840  0.92524  0.62777  1.0000
  C   C14       1.0  0.39840  0.57476  0.87222  1.0000
  C   C15       1.0  0.10159  0.07475  0.37223  1.0000
  C   C16       1.0  0.60159  0.42524  0.12777  1.0000
  C   C17       1.0  0.88621  0.71758  0.68998  1.0000
  C   C18       1.0  0.38621  0.78242  0.81001  1.0000
  C   C19       1.0  0.11379  0.28241  0.31002  1.0000
  C   C20       1.0  0.61379  0.21757  0.18998  1.0000
  C   C21       1.0  0.85128  0.64477  0.76718  1.0000
  C   C22       1.0  0.35127  0.85524  0.73281  1.0000
  C   C23       1.0  0.14872  0.35523  0.23281  1.0000
  C   C24       1.0  0.64872  0.14476  0.26719  1.0000
  C   C25       1.0  0.77342  0.70245  0.86168  1.0000
  C   C26       1.0  0.27341  0.79756  0.63831  1.0000
  C   C27       1.0  0.22659  0.29754  0.13832  1.0000
  C   C28       1.0  0.72658  0.20245  0.36169  1.0000
  C   C29       1.0  0.72780  0.83148  0.87673  1.0000
  C   C30       1.0  0.22779  0.66853  0.62326  1.0000
  C   C31       1.0  0.27221  0.16852  0.12328  1.0000
  C   C32       1.0  0.77221  0.33148  0.37673  1.0000
  C   C33       1.0  0.56637  0.48842  0.59311  1.0000
  C   C34       1.0  0.06637  0.01159  0.90690  1.0000
  C   C35       1.0  0.43364  0.51159  0.40690  1.0000
  C   C36       1.0  0.93363  0.98842  0.09310  1.0000
  C   C37       1.0  0.42351  0.39810  0.44631  1.0000
  C   C38       1.0  0.92350  0.10190  0.05370  1.0000
  C   C39       1.0  0.57650  0.60191  0.55369  1.0000
  C   C40       1.0  0.07650  0.89810  0.94631  1.0000
  N   N1        1.0  0.48983  0.38714  0.53908  1.0000
  N   N2        1.0  0.98984  0.11287  0.96093  1.0000
  N   N3        1.0  0.51017  0.61286  0.46093  1.0000
  N   N4        1.0  0.01017  0.88714  0.03908  1.0000
  O   O1        1.0  0.62827  0.05712  0.72735  1.0000
  O   O2        1.0  0.12826  0.44288  0.77264  1.0000
  O   O3        1.0  0.37173  0.94286  0.27264  1.0000
  O   O4        1.0  0.87173  0.55712  0.22735  1.0000
  O   O5        1.0  0.67775  0.11223  0.91094  1.0000
  O   O6        1.0  0.17777  0.38776  0.58906  1.0000
  O   O7        1.0  0.32223  0.88774  0.08907  1.0000
  O   O8        1.0  0.82223  0.61225  0.41093  1.0000
  O   O9        1.0  0.90569  0.04989  0.66278  1.0000
  O   O10       1.0  0.40569  0.45011  0.83722  1.0000
  O   O11       1.0  0.09432  0.95011  0.33723  1.0000
  O   O12       1.0  0.59431  0.54989  0.16278  1.0000
  O   O13       1.0  0.94424  0.86183  0.53127  1.0000
  O   O14       1.0  0.44424  0.63817  0.96873  1.0000
  O   O15       1.0  0.05575  0.13818  0.46873  1.0000
  O   O16       1.0  0.55575  0.36182  0.03127  1.0000
  O   O17       1.0  0.43917  0.21139  0.65432  1.0000
  O   O18       1.0  0.93917  0.28861  0.84569  1.0000
  O   O19       1.0  0.56083  0.78861  0.34568  1.0000
  O   O20       1.0  0.06083  0.71139  0.15432  1.0000
  O   O21       1.0  0.38782  0.17375  0.87651  1.0000
  O   O22       1.0  0.88785  0.32626  0.62346  1.0000
  O   O23       1.0  0.61215  0.82626  0.12347  1.0000
  O   O24       1.0  0.11216  0.67373  0.37653  1.0000
  O   O25       1.0  0.67581  0.34946  0.81021  1.0000
  O   O26       1.0  0.17582  0.15054  0.68980  1.0000
  O   O27       1.0  0.32418  0.65053  0.18980  1.0000
  O   O28       1.0  0.82419  0.84946  0.31021  1.0000
