data_image0
_chemical_formula_structural       Cu4H20C24I4N12
_chemical_formula_sum              "Cu4 H20 C24 I4 N12"
_cell_length_a       4.23112
_cell_length_b       9.44801
_cell_length_c       18.9186
_cell_angle_alpha    90.0005
_cell_angle_beta     90.0003
_cell_angle_gamma    97.0461

_space_group_name_H-M_alt    "P 1"
_space_group_IT_number       1

loop_
  _space_group_symop_operation_xyz
  'x, y, z'

loop_
  _atom_site_type_symbol
  _atom_site_label
  _atom_site_symmetry_multiplicity
  _atom_site_fract_x
  _atom_site_fract_y
  _atom_site_fract_z
  _atom_site_occupancy
  Cu  Cu1       1.0  0.70318  0.90783  0.49373  1.0000
  Cu  Cu2       1.0  0.29679  0.59216  0.99373  1.0000
  Cu  Cu3       1.0  0.29682  0.09217  0.50627  1.0000
  Cu  Cu4       1.0  0.70321  0.40784  0.00626  1.0000
  H   H1        1.0  0.86227  0.41480  0.55601  1.0000
  H   H2        1.0  0.13774  0.08520  0.05601  1.0000
  H   H3        1.0  0.13772  0.58520  0.44399  1.0000
  H   H4        1.0  0.86228  0.91480  0.94398  1.0000
  H   H5        1.0  0.24656  0.85409  0.63569  1.0000
  H   H6        1.0  0.75344  0.64591  0.13569  1.0000
  H   H7        1.0  0.75346  0.14592  0.36432  1.0000
  H   H8        1.0  0.24654  0.35408  0.86431  1.0000
  H   H9        1.0  0.00716  0.72002  0.74209  1.0000
  H   H10       1.0  0.99283  0.77998  0.24209  1.0000
  H   H11       1.0  0.99284  0.27998  0.25792  1.0000
  H   H12       1.0  0.00716  0.22002  0.75791  1.0000
  H   H13       1.0  0.11969  0.47835  0.76823  1.0000
  H   H14       1.0  0.88030  0.02165  0.26823  1.0000
  H   H15       1.0  0.88029  0.52164  0.23177  1.0000
  H   H16       1.0  0.11972  0.97835  0.73177  1.0000
  H   H17       1.0  0.46803  0.35006  0.68921  1.0000
  H   H18       1.0  0.53198  0.14994  0.18921  1.0000
  H   H19       1.0  0.53195  0.64993  0.31079  1.0000
  H   H20       1.0  0.46805  0.85007  0.81079  1.0000
  C   C1        1.0  0.29746  0.74681  0.64859  1.0000
  C   C2        1.0  0.70254  0.75318  0.14858  1.0000
  C   C3        1.0  0.70256  0.25319  0.35142  1.0000
  C   C4        1.0  0.29746  0.24681  0.85142  1.0000
  C   C5        1.0  0.16716  0.67172  0.70673  1.0000
  C   C6        1.0  0.83283  0.82828  0.20673  1.0000
  C   C7        1.0  0.83284  0.32828  0.29327  1.0000
  C   C8        1.0  0.16717  0.17172  0.79327  1.0000
  C   C9        1.0  0.22970  0.53074  0.72151  1.0000
  C   C10       1.0  0.77028  0.96926  0.22151  1.0000
  C   C11       1.0  0.77028  0.46926  0.27850  1.0000
  C   C12       1.0  0.22973  0.03074  0.77849  1.0000
  C   C13       1.0  0.42141  0.45875  0.67838  1.0000
  C   C14       1.0  0.57859  0.04125  0.17839  1.0000
  C   C15       1.0  0.57858  0.54125  0.32161  1.0000
  C   C16       1.0  0.42142  0.95875  0.82161  1.0000
  C   C17       1.0  0.55483  0.53497  0.61983  1.0000
  C   C18       1.0  0.44518  0.96503  0.11983  1.0000
  C   C19       1.0  0.44516  0.46503  0.38017  1.0000
  C   C20       1.0  0.55482  0.03498  0.88017  1.0000
  C   C21       1.0  0.49635  0.67625  0.60505  1.0000
  C   C22       1.0  0.50365  0.82375  0.10505  1.0000
  C   C23       1.0  0.50366  0.32375  0.39495  1.0000
  C   C24       1.0  0.49635  0.17625  0.89495  1.0000
  I   I1        1.0  0.79893  0.10343  0.59336  1.0000
  I   I2        1.0  0.20109  0.39657  0.09336  1.0000
  I   I3        1.0  0.20108  0.89657  0.40664  1.0000
  I   I4        1.0  0.79891  0.60343  0.90664  1.0000
  N   N1        1.0  0.66483  0.71972  0.54482  1.0000
  N   N2        1.0  0.33517  0.78027  0.04482  1.0000
  N   N3        1.0  0.33517  0.28028  0.45518  1.0000
  N   N4        1.0  0.66483  0.21973  0.95518  1.0000
  N   N5        1.0  0.81938  0.61560  0.52310  1.0000
  N   N6        1.0  0.18062  0.88440  0.02310  1.0000
  N   N7        1.0  0.18061  0.38440  0.47690  1.0000
  N   N8        1.0  0.81938  0.11560  0.97690  1.0000
  N   N9        1.0  0.75591  0.50457  0.56732  1.0000
  N   N10       1.0  0.24409  0.99543  0.06732  1.0000
  N   N11       1.0  0.24408  0.49543  0.43268  1.0000
  N   N12       1.0  0.75592  0.00457  0.93268  1.0000
