data_image0
_chemical_formula_structural       Cu2Ag2H32C48I6N8
_chemical_formula_sum              "Cu2 Ag2 H32 C48 I6 N8"
_cell_length_a       10.1886
_cell_length_b       10.6918
_cell_length_c       12.5322
_cell_angle_alpha    96.9518
_cell_angle_beta     100.66
_cell_angle_gamma    91.3983

_space_group_name_H-M_alt    "P 1"
_space_group_IT_number       1

loop_
  _space_group_symop_operation_xyz
  'x, y, z'

loop_
  _atom_site_type_symbol
  _atom_site_label
  _atom_site_symmetry_multiplicity
  _atom_site_fract_x
  _atom_site_fract_y
  _atom_site_fract_z
  _atom_site_occupancy
  Cu  Cu1       1.0  0.72898  0.99425  0.22333  1.0000
  Cu  Cu2       1.0  0.27104  0.00575  0.77667  1.0000
  Ag  Ag1       1.0  0.56355  0.58942  0.13621  1.0000
  Ag  Ag2       1.0  0.43644  0.41056  0.86379  1.0000
  H   H1        1.0  0.80781  0.71499  0.17513  1.0000
  H   H2        1.0  0.19220  0.28500  0.82489  1.0000
  H   H3        1.0  0.01036  0.61628  0.11997  1.0000
  H   H4        1.0  0.98967  0.38373  0.88004  1.0000
  H   H5        1.0  0.19429  0.75277  0.08323  1.0000
  H   H6        1.0  0.80573  0.24724  0.91676  1.0000
  H   H7        1.0  0.27972  0.97548  0.06811  1.0000
  H   H8        1.0  0.72027  0.02454  0.93189  1.0000
  H   H9        1.0  0.24955  0.20579  0.08976  1.0000
  H   H10       1.0  0.75043  0.79422  0.91025  1.0000
  H   H11       1.0  0.11511  0.38912  0.14916  1.0000
  H   H12       1.0  0.88489  0.61089  0.85086  1.0000
  H   H13       1.0  0.90069  0.46000  0.20943  1.0000
  H   H14       1.0  0.09931  0.54002  0.79057  1.0000
  H   H15       1.0  0.73381  0.30172  0.23212  1.0000
  H   H16       1.0  0.26618  0.69828  0.76787  1.0000
  H   H17       1.0  0.50812  0.17868  0.14951  1.0000
  H   H18       1.0  0.49187  0.82128  0.85046  1.0000
  H   H19       1.0  0.38860  0.34040  0.25148  1.0000
  H   H20       1.0  0.61139  0.65960  0.74848  1.0000
  H   H21       1.0  0.41102  0.34593  0.45662  1.0000
  H   H22       1.0  0.58900  0.65408  0.54337  1.0000
  H   H23       1.0  0.51059  0.25210  0.62749  1.0000
  H   H24       1.0  0.48943  0.74792  0.37250  1.0000
  H   H25       1.0  0.65729  0.09766  0.71461  1.0000
  H   H26       1.0  0.34271  0.90235  0.28539  1.0000
  H   H27       1.0  0.81475  0.91828  0.69468  1.0000
  H   H28       1.0  0.18522  0.08171  0.30533  1.0000
  H   H29       1.0  0.94055  0.78292  0.57353  1.0000
  H   H30       1.0  0.05943  0.21705  0.42649  1.0000
  H   H31       1.0  0.91381  0.81392  0.37651  1.0000
  H   H32       1.0  0.08619  0.18605  0.62350  1.0000
  C   C1        1.0  0.89034  0.77306  0.15958  1.0000
  C   C2        1.0  0.10968  0.22694  0.84043  1.0000
  C   C3        1.0  0.00431  0.71847  0.12901  1.0000
  C   C4        1.0  0.99570  0.28154  0.87100  1.0000
  C   C5        1.0  0.10588  0.79444  0.10798  1.0000
  C   C6        1.0  0.89413  0.20558  0.89201  1.0000
  C   C7        1.0  0.09319  0.92644  0.11737  1.0000
  C   C8        1.0  0.90681  0.07358  0.88263  1.0000
  C   C9        1.0  0.19111  0.01329  0.09527  1.0000
  C   C10       1.0  0.80888  0.98672  0.90473  1.0000
  C   C11       1.0  0.17532  0.14063  0.10846  1.0000
  C   C12       1.0  0.82467  0.85938  0.89153  1.0000
  C   C13       1.0  0.05983  0.19123  0.14452  1.0000
  C   C14       1.0  0.94016  0.80878  0.85549  1.0000
  C   C15       1.0  0.03918  0.32178  0.16250  1.0000
  C   C16       1.0  0.96081  0.67823  0.83751  1.0000
  C   C17       1.0  0.92233  0.36094  0.19388  1.0000
  C   C18       1.0  0.07766  0.63907  0.80612  1.0000
  C   C19       1.0  0.82632  0.27060  0.20770  1.0000
  C   C20       1.0  0.17368  0.72940  0.79231  1.0000
  C   C21       1.0  0.95903  0.10711  0.16300  1.0000
  C   C22       1.0  0.04097  0.89290  0.83701  1.0000
  C   C23       1.0  0.97609  0.97405  0.15017  1.0000
  C   C24       1.0  0.02392  0.02595  0.84985  1.0000
  C   C25       1.0  0.51982  0.18663  0.23862  1.0000
  C   C26       1.0  0.48018  0.81334  0.76136  1.0000
  C   C27       1.0  0.45078  0.27530  0.29657  1.0000
  C   C28       1.0  0.54922  0.72470  0.70342  1.0000
  C   C29       1.0  0.46434  0.27934  0.40894  1.0000
  C   C30       1.0  0.53568  0.72065  0.59105  1.0000
  C   C31       1.0  0.54917  0.19520  0.46379  1.0000
  C   C32       1.0  0.45084  0.80479  0.53622  1.0000
  C   C33       1.0  0.56639  0.18878  0.57919  1.0000
  C   C34       1.0  0.43360  0.81122  0.42080  1.0000
  C   C35       1.0  0.64848  0.10383  0.62730  1.0000
  C   C36       1.0  0.35150  0.89618  0.37270  1.0000
  C   C37       1.0  0.72274  0.02127  0.56466  1.0000
  C   C38       1.0  0.27724  0.97872  0.43534  1.0000
  C   C39       1.0  0.80723  0.92992  0.60879  1.0000
  C   C40       1.0  0.19276  0.07009  0.39121  1.0000
  C   C41       1.0  0.87595  0.85519  0.54216  1.0000
  C   C42       1.0  0.12404  0.14480  0.45785  1.0000
  C   C43       1.0  0.86020  0.87116  0.43073  1.0000
  C   C44       1.0  0.13981  0.12883  0.56928  1.0000
  C   C45       1.0  0.71047  0.02792  0.45103  1.0000
  C   C46       1.0  0.28953  0.97208  0.54897  1.0000
  C   C47       1.0  0.61980  0.11261  0.39973  1.0000
  C   C48       1.0  0.38022  0.88739  0.60027  1.0000
  I   I1        1.0  0.53347  0.84867  0.09468  1.0000
  I   I2        1.0  0.46653  0.15134  0.90532  1.0000
  I   I3        1.0  0.69815  0.56348  0.34353  1.0000
  I   I4        1.0  0.30183  0.43652  0.65648  1.0000
  I   I5        1.0  0.69976  0.50254  0.95525  1.0000
  I   I6        1.0  0.30025  0.49744  0.04474  1.0000
  N   N1        1.0  0.87723  0.89755  0.17059  1.0000
  N   N2        1.0  0.12278  0.10244  0.82942  1.0000
  N   N3        1.0  0.84417  0.14722  0.19361  1.0000
  N   N4        1.0  0.15582  0.85279  0.80640  1.0000
  N   N5        1.0  0.60317  0.10858  0.28908  1.0000
  N   N6        1.0  0.39684  0.89141  0.71092  1.0000
  N   N7        1.0  0.77959  0.95476  0.38636  1.0000
  N   N8        1.0  0.22043  0.04525  0.61364  1.0000
