data_image0
_chemical_formula_structural       H8Rh4C32N4O16F24
_chemical_formula_sum              "H8 Rh4 C32 N4 O16 F24"
_cell_length_a       8.29041
_cell_length_b       12.858
_cell_length_c       12.858
_cell_angle_alpha    81.8552
_cell_angle_beta     71.4891
_cell_angle_gamma    71.4897

_space_group_name_H-M_alt    "P 1"
_space_group_IT_number       1

loop_
  _space_group_symop_operation_xyz
  'x, y, z'

loop_
  _atom_site_type_symbol
  _atom_site_label
  _atom_site_symmetry_multiplicity
  _atom_site_fract_x
  _atom_site_fract_y
  _atom_site_fract_z
  _atom_site_occupancy
  H   H1        1.0  0.75000  0.15608  0.84393  1.0000
  H   H2        1.0  0.25000  0.84393  0.15608  1.0000
  H   H3        1.0  0.70835  0.83149  0.96381  1.0000
  H   H4        1.0  0.79165  0.03619  0.16852  1.0000
  H   H5        1.0  0.29165  0.16852  0.03619  1.0000
  H   H6        1.0  0.20834  0.96381  0.83149  1.0000
  H   H7        1.0  0.75000  0.85996  0.14004  1.0000
  H   H8        1.0  0.25000  0.14004  0.85996  1.0000
  Rh  Rh1       1.0  0.44997  0.01041  0.41809  1.0000
  Rh  Rh2       1.0  0.05002  0.58190  0.98960  1.0000
  Rh  Rh3       1.0  0.55003  0.98959  0.58191  1.0000
  Rh  Rh4       1.0  0.94996  0.41809  0.01041  1.0000
  C   C1        1.0  0.21759  0.15334  0.59024  1.0000
  C   C2        1.0  0.28241  0.40976  0.84667  1.0000
  C   C3        1.0  0.78241  0.84666  0.40977  1.0000
  C   C4        1.0  0.71758  0.59024  0.15334  1.0000
  C   C5        1.0  0.32441  0.85887  0.58563  1.0000
  C   C6        1.0  0.17559  0.41437  0.14114  1.0000
  C   C7        1.0  0.67560  0.14114  0.41438  1.0000
  C   C8        1.0  0.82441  0.58561  0.85887  1.0000
  C   C9        1.0  0.04253  0.24145  0.64344  1.0000
  C   C10       1.0  0.45746  0.35657  0.75855  1.0000
  C   C11       1.0  0.95746  0.75855  0.35656  1.0000
  C   C12       1.0  0.54253  0.64344  0.24145  1.0000
  C   C13       1.0  0.21286  0.77881  0.64161  1.0000
  C   C14       1.0  0.28715  0.35839  0.22119  1.0000
  C   C15       1.0  0.78715  0.22119  0.35838  1.0000
  C   C16       1.0  0.71288  0.64161  0.77881  1.0000
  C   C17       1.0  0.68299  0.98134  0.79789  1.0000
  C   C18       1.0  0.81701  0.20211  0.01866  1.0000
  C   C19       1.0  0.31700  0.01866  0.20211  1.0000
  C   C20       1.0  0.18300  0.79789  0.98134  1.0000
  C   C21       1.0  0.75000  0.09152  0.90848  1.0000
  C   C22       1.0  0.25000  0.90848  0.09152  1.0000
  C   C23       1.0  0.72241  0.99285  0.89460  1.0000
  C   C24       1.0  0.77759  0.10540  0.00715  1.0000
  C   C25       1.0  0.27759  0.00715  0.10540  1.0000
  C   C26       1.0  0.22241  0.89460  0.99285  1.0000
  C   C27       1.0  0.77468  0.02263  0.09150  1.0000
  C   C28       1.0  0.72532  0.90850  0.97737  1.0000
  C   C29       1.0  0.22532  0.97737  0.90850  1.0000
  C   C30       1.0  0.27468  0.09150  0.02263  1.0000
  C   C31       1.0  0.75000  0.92453  0.07547  1.0000
  C   C32       1.0  0.25000  0.07547  0.92453  1.0000
  N   N1        1.0  0.64094  0.97590  0.72102  1.0000
  N   N2        1.0  0.85906  0.27898  0.02409  1.0000
  N   N3        1.0  0.35905  0.02408  0.27899  1.0000
  N   N4        1.0  0.14095  0.72101  0.97590  1.0000
  O   O1        1.0  0.23262  0.13184  0.49394  1.0000
  O   O2        1.0  0.26738  0.50606  0.86816  1.0000
  O   O3        1.0  0.76737  0.86817  0.50606  1.0000
  O   O4        1.0  0.73263  0.49394  0.13183  1.0000
  O   O5        1.0  0.67762  0.88814  0.35129  1.0000
  O   O6        1.0  0.82237  0.64871  0.11187  1.0000
  O   O7        1.0  0.32238  0.11187  0.64870  1.0000
  O   O8        1.0  0.17762  0.35130  0.88815  1.0000
  O   O9        1.0  0.31731  0.89672  0.49026  1.0000
  O   O10       1.0  0.18269  0.50974  0.10328  1.0000
  O   O11       1.0  0.68267  0.10329  0.50974  1.0000
  O   O12       1.0  0.81733  0.49025  0.89672  1.0000
  O   O13       1.0  0.59184  0.12160  0.35551  1.0000
  O   O14       1.0  0.90817  0.64448  0.87840  1.0000
  O   O15       1.0  0.40817  0.87841  0.64448  1.0000
  O   O16       1.0  0.09182  0.35552  0.12160  1.0000
  F   F1        1.0  0.03094  0.26106  0.74677  1.0000
  F   F2        1.0  0.46905  0.25323  0.73895  1.0000
  F   F3        1.0  0.96906  0.73895  0.25322  1.0000
  F   F4        1.0  0.53093  0.74678  0.26106  1.0000
  F   F5        1.0  0.90207  0.20523  0.64919  1.0000
  F   F6        1.0  0.59792  0.35082  0.79477  1.0000
  F   F7        1.0  0.09791  0.79476  0.35082  1.0000
  F   F8        1.0  0.40208  0.64919  0.20523  1.0000
  F   F9        1.0  0.02807  0.33747  0.58328  1.0000
  F   F10       1.0  0.47191  0.41672  0.66254  1.0000
  F   F11       1.0  0.97191  0.66254  0.41671  1.0000
  F   F12       1.0  0.52805  0.58329  0.33746  1.0000
  F   F13       1.0  0.12793  0.75931  0.57648  1.0000
  F   F14       1.0  0.37209  0.42350  0.24069  1.0000
  F   F15       1.0  0.87208  0.24070  0.42350  1.0000
  F   F16       1.0  0.62794  0.57650  0.75930  1.0000
  F   F17       1.0  0.08822  0.82420  0.73492  1.0000
  F   F18       1.0  0.41179  0.26507  0.17578  1.0000
  F   F19       1.0  0.91180  0.17579  0.26507  1.0000
  F   F20       1.0  0.58822  0.73492  0.82420  1.0000
  F   F21       1.0  0.31713  0.68188  0.67106  1.0000
  F   F22       1.0  0.18289  0.32891  0.31811  1.0000
  F   F23       1.0  0.68289  0.31813  0.32892  1.0000
  F   F24       1.0  0.81714  0.67107  0.68187  1.0000
