data_image0
_chemical_formula_structural       Cd2P4H36C40N4O12
_chemical_formula_sum              "Cd2 P4 H36 C40 N4 O12"
_cell_length_a       7.64052
_cell_length_b       12.247
_cell_length_c       12.3753
_cell_angle_alpha    119.657
_cell_angle_beta     98.0867
_cell_angle_gamma    89.9998

_space_group_name_H-M_alt    "P 1"
_space_group_IT_number       1

loop_
  _space_group_symop_operation_xyz
  'x, y, z'

loop_
  _atom_site_type_symbol
  _atom_site_label
  _atom_site_symmetry_multiplicity
  _atom_site_fract_x
  _atom_site_fract_y
  _atom_site_fract_z
  _atom_site_occupancy
  Cd  Cd1       1.0  0.75000  0.15665  0.00000  1.0000
  Cd  Cd2       1.0  0.25000  0.84335  1.00000  1.0000
  P   P1        1.0  0.56961  0.83463  0.81760  1.0000
  P   P2        1.0  0.93039  0.01703  0.18240  1.0000
  P   P3        1.0  0.43039  0.16537  0.18240  1.0000
  P   P4        1.0  0.06961  0.98297  0.81760  1.0000
  H   H1        1.0  0.87439  0.84673  0.86232  1.0000
  H   H2        1.0  0.62561  0.98441  0.13768  1.0000
  H   H3        1.0  0.12561  0.15327  0.13768  1.0000
  H   H4        1.0  0.37439  0.01559  0.86231  1.0000
  H   H5        1.0  0.49035  0.10042  0.73551  1.0000
  H   H6        1.0  0.00965  0.36492  0.26449  1.0000
  H   H7        1.0  0.50965  0.89958  0.26449  1.0000
  H   H8        1.0  0.99035  0.63508  0.73551  1.0000
  H   H9        1.0  0.38715  0.21275  0.61823  1.0000
  H   H10       1.0  0.11285  0.59452  0.38177  1.0000
  H   H11       1.0  0.61285  0.78725  0.38177  1.0000
  H   H12       1.0  0.88715  0.40548  0.61823  1.0000
  H   H13       1.0  0.48289  0.44379  0.71686  1.0000
  H   H14       1.0  0.01711  0.72693  0.28314  1.0000
  H   H15       1.0  0.51711  0.55621  0.28314  1.0000
  H   H16       1.0  0.98289  0.27307  0.71686  1.0000
  H   H17       1.0  0.64999  0.63770  0.89788  1.0000
  H   H18       1.0  0.85001  0.73983  0.10212  1.0000
  H   H19       1.0  0.35002  0.36229  0.10212  1.0000
  H   H20       1.0  0.14999  0.26018  0.89788  1.0000
  H   H21       1.0  0.40584  0.81395  0.62997  1.0000
  H   H22       1.0  0.09416  0.18398  0.37003  1.0000
  H   H23       1.0  0.59416  0.18605  0.37003  1.0000
  H   H24       1.0  0.90584  0.81602  0.62997  1.0000
  H   H25       1.0  0.63521  0.81724  0.62556  1.0000
  H   H26       1.0  0.86479  0.19169  0.37444  1.0000
  H   H27       1.0  0.36479  0.18276  0.37444  1.0000
  H   H28       1.0  0.13521  0.80831  0.62556  1.0000
  H   H29       1.0  0.25825  0.61314  0.61542  1.0000
  H   H30       1.0  0.24176  0.99772  0.38458  1.0000
  H   H31       1.0  0.74176  0.38686  0.38458  1.0000
  H   H32       1.0  0.75824  0.00228  0.61542  1.0000
  H   H33       1.0  0.76859  0.62003  0.50869  1.0000
  H   H34       1.0  0.73141  0.11134  0.49131  1.0000
  H   H35       1.0  0.23142  0.37997  0.49131  1.0000
  H   H36       1.0  0.26859  0.88866  0.50869  1.0000
  C   C1        1.0  0.53268  0.19952  0.77365  1.0000
  C   C2        1.0  0.96733  0.42587  0.22635  1.0000
  C   C3        1.0  0.46733  0.80048  0.22635  1.0000
  C   C4        1.0  0.03267  0.57413  0.77365  1.0000
  C   C5        1.0  0.47486  0.26336  0.70861  1.0000
  C   C6        1.0  0.02514  0.55475  0.29139  1.0000
  C   C7        1.0  0.52515  0.73664  0.29139  1.0000
  C   C8        1.0  0.97486  0.44525  0.70861  1.0000
  C   C9        1.0  0.52655  0.39018  0.76324  1.0000
  C   C10       1.0  0.97345  0.62694  0.23676  1.0000
  C   C11       1.0  0.47345  0.60982  0.23676  1.0000
  C   C12       1.0  0.02655  0.37306  0.76324  1.0000
  C   C13       1.0  0.63745  0.45231  0.88178  1.0000
  C   C14       1.0  0.86256  0.57053  0.11822  1.0000
  C   C15       1.0  0.36256  0.54769  0.11823  1.0000
  C   C16       1.0  0.13744  0.42947  0.88178  1.0000
  C   C17       1.0  0.69181  0.37958  0.93963  1.0000
  C   C18       1.0  0.80819  0.43995  0.06037  1.0000
  C   C19       1.0  0.30819  0.62042  0.06037  1.0000
  C   C20       1.0  0.19181  0.56006  0.93964  1.0000
  C   C21       1.0  0.69524  0.58341  0.94316  1.0000
  C   C22       1.0  0.80476  0.64025  0.05684  1.0000
  C   C23       1.0  0.30476  0.41659  0.05684  1.0000
  C   C24       1.0  0.19524  0.35975  0.94316  1.0000
  C   C25       1.0  0.52887  0.77432  0.64706  1.0000
  C   C26       1.0  0.97113  0.12725  0.35293  1.0000
  C   C27       1.0  0.47113  0.22568  0.35294  1.0000
  C   C28       1.0  0.02887  0.87275  0.64706  1.0000
  C   C29       1.0  0.51362  0.63350  0.56943  1.0000
  C   C30       1.0  0.98638  0.06407  0.43057  1.0000
  C   C31       1.0  0.48638  0.36650  0.43057  1.0000
  C   C32       1.0  0.01362  0.93593  0.56943  1.0000
  C   C33       1.0  0.36305  0.56351  0.56280  1.0000
  C   C34       1.0  0.13695  0.00072  0.43720  1.0000
  C   C35       1.0  0.63695  0.43649  0.43720  1.0000
  C   C36       1.0  0.86305  0.99928  0.56280  1.0000
  C   C37       1.0  0.65044  0.56778  0.50579  1.0000
  C   C38       1.0  0.84956  0.06199  0.49421  1.0000
  C   C39       1.0  0.34956  0.43222  0.49421  1.0000
  C   C40       1.0  0.15044  0.93801  0.50579  1.0000
  N   N1        1.0  0.63731  0.25586  0.88513  1.0000
  N   N2        1.0  0.86269  0.37073  0.11487  1.0000
  N   N3        1.0  0.36269  0.74414  0.11488  1.0000
  N   N4        1.0  0.13730  0.62927  0.88513  1.0000
  O   O1        1.0  0.75834  0.79552  0.84830  1.0000
  O   O2        1.0  0.74166  0.94722  0.15170  1.0000
  O   O3        1.0  0.24166  0.20448  0.15170  1.0000
  O   O4        1.0  0.25834  0.05278  0.84830  1.0000
  O   O5        1.0  0.43350  0.76954  0.84851  1.0000
  O   O6        1.0  0.06650  0.92103  0.15149  1.0000
  O   O7        1.0  0.56650  0.23046  0.15149  1.0000
  O   O8        1.0  0.93349  0.07897  0.84851  1.0000
  O   O9        1.0  0.56306  0.97817  0.87678  1.0000
  O   O10       1.0  0.93694  0.10139  0.12322  1.0000
  O   O11       1.0  0.43694  0.02183  0.12322  1.0000
  O   O12       1.0  0.06306  0.89861  0.87678  1.0000
