data_image0
_chemical_formula_structural       Cu2H16C24N2Cl2O2
_chemical_formula_sum              "Cu2 H16 C24 N2 Cl2 O2"
_cell_length_a       3.71036
_cell_length_b       11.483
_cell_length_c       11.6441
_cell_angle_alpha    88.0572
_cell_angle_beta     81.253
_cell_angle_gamma    85.2069

_space_group_name_H-M_alt    "P 1"
_space_group_IT_number       1

loop_
  _space_group_symop_operation_xyz
  'x, y, z'

loop_
  _atom_site_type_symbol
  _atom_site_label
  _atom_site_symmetry_multiplicity
  _atom_site_fract_x
  _atom_site_fract_y
  _atom_site_fract_z
  _atom_site_occupancy
  Cu  Cu1       1.0  0.33645  0.11086  0.51385  1.0000
  Cu  Cu2       1.0  0.66355  0.88914  0.48615  1.0000
  H   H1        1.0  0.36661  0.55404  0.31202  1.0000
  H   H2        1.0  0.63336  0.44595  0.68798  1.0000
  H   H3        1.0  0.95314  0.29133  0.56103  1.0000
  H   H4        1.0  0.04683  0.70867  0.43897  1.0000
  H   H5        1.0  0.74066  0.07042  0.26903  1.0000
  H   H6        1.0  0.25936  0.92958  0.73097  1.0000
  H   H7        1.0  0.10532  0.07511  0.07400  1.0000
  H   H8        1.0  0.89467  0.92489  0.92600  1.0000
  H   H9        1.0  0.39079  0.08124  0.86658  1.0000
  H   H10       1.0  0.60921  0.91876  0.13342  1.0000
  H   H11       1.0  0.32276  0.26081  0.74746  1.0000
  H   H12       1.0  0.67726  0.73920  0.25254  1.0000
  H   H13       1.0  0.98014  0.44076  0.83728  1.0000
  H   H14       1.0  0.01988  0.55924  0.16273  1.0000
  H   H15       1.0  0.69365  0.43571  0.04359  1.0000
  H   H16       1.0  0.30635  0.56429  0.95641  1.0000
  C   C1        1.0  0.18345  0.41140  0.42702  1.0000
  C   C2        1.0  0.81656  0.58860  0.57298  1.0000
  C   C3        1.0  0.20234  0.53020  0.39363  1.0000
  C   C4        1.0  0.79765  0.46980  0.60637  1.0000
  C   C5        1.0  0.97747  0.38282  0.53468  1.0000
  C   C6        1.0  0.02252  0.61718  0.46532  1.0000
  C   C7        1.0  0.37672  0.32128  0.35294  1.0000
  C   C8        1.0  0.62328  0.67872  0.64706  1.0000
  C   C9        1.0  0.64642  0.16219  0.27369  1.0000
  C   C10       1.0  0.35357  0.83781  0.72631  1.0000
  C   C11       1.0  0.69980  0.25005  0.19195  1.0000
  C   C12       1.0  0.30020  0.74995  0.80805  1.0000
  C   C13       1.0  0.87585  0.25507  0.07247  1.0000
  C   C14       1.0  0.12414  0.74493  0.92753  1.0000
  C   C15       1.0  0.07460  0.15496  0.02176  1.0000
  C   C16       1.0  0.92540  0.84504  0.97824  1.0000
  C   C17       1.0  0.23341  0.15808  0.90573  1.0000
  C   C18       1.0  0.76660  0.84193  0.09427  1.0000
  C   C19       1.0  0.19823  0.26037  0.83841  1.0000
  C   C20       1.0  0.80178  0.73964  0.16159  1.0000
  C   C21       1.0  0.00648  0.36020  0.88868  1.0000
  C   C22       1.0  0.99354  0.63980  0.11132  1.0000
  C   C23       1.0  0.84596  0.35800  0.00482  1.0000
  C   C24       1.0  0.15405  0.64200  0.99518  1.0000
  N   N1        1.0  0.44316  0.20770  0.37427  1.0000
  N   N2        1.0  0.55684  0.79229  0.62574  1.0000
  Cl  Cl1       1.0  0.20791  0.92101  0.37346  1.0000
  Cl  Cl2       1.0  0.79209  0.07899  0.62654  1.0000
  O   O1        1.0  0.52786  0.35173  0.24238  1.0000
  O   O2        1.0  0.47213  0.64827  0.75762  1.0000
