data_image0
_chemical_formula_structural       Cd2H20C28N12O12
_chemical_formula_sum              "Cd2 H20 C28 N12 O12"
_cell_length_a       8.32659
_cell_length_b       8.32664
_cell_length_c       12.2181
_cell_angle_alpha    99.3332
_cell_angle_beta     99.3329
_cell_angle_gamma    91.3607

_space_group_name_H-M_alt    "P 1"
_space_group_IT_number       1

loop_
  _space_group_symop_operation_xyz
  'x, y, z'

loop_
  _atom_site_type_symbol
  _atom_site_label
  _atom_site_symmetry_multiplicity
  _atom_site_fract_x
  _atom_site_fract_y
  _atom_site_fract_z
  _atom_site_occupancy
  Cd  Cd1       1.0  0.18830  0.81170  0.75000  1.0000
  Cd  Cd2       1.0  0.81170  0.18830  0.25000  1.0000
  H   H1        1.0  0.85244  0.58758  0.65310  1.0000
  H   H2        1.0  0.58758  0.85244  0.15310  1.0000
  H   H3        1.0  0.14756  0.41242  0.34690  1.0000
  H   H4        1.0  0.41242  0.14756  0.84690  1.0000
  H   H5        1.0  0.34265  0.56853  0.34552  1.0000
  H   H6        1.0  0.56853  0.34265  0.84552  1.0000
  H   H7        1.0  0.65734  0.43148  0.65448  1.0000
  H   H8        1.0  0.43148  0.65735  0.15448  1.0000
  H   H9        1.0  0.61435  0.71932  0.36898  1.0000
  H   H10       1.0  0.71932  0.61434  0.86898  1.0000
  H   H11       1.0  0.38565  0.28068  0.63102  1.0000
  H   H12       1.0  0.28068  0.38566  0.13102  1.0000
  H   H13       1.0  0.72858  0.88518  0.55650  1.0000
  H   H14       1.0  0.88518  0.72858  0.05650  1.0000
  H   H15       1.0  0.27142  0.11482  0.44350  1.0000
  H   H16       1.0  0.11482  0.27141  0.94350  1.0000
  H   H17       1.0  0.57005  0.89096  0.71395  1.0000
  H   H18       1.0  0.89097  0.57005  0.21395  1.0000
  H   H19       1.0  0.42995  0.10904  0.28605  1.0000
  H   H20       1.0  0.10904  0.42995  0.78605  1.0000
  C   C1        1.0  0.15151  0.57120  0.50905  1.0000
  C   C2        1.0  0.57120  0.15151  0.00905  1.0000
  C   C3        1.0  0.84849  0.42880  0.49095  1.0000
  C   C4        1.0  0.42880  0.84849  0.99095  1.0000
  C   C5        1.0  0.91709  0.54532  0.58407  1.0000
  C   C6        1.0  0.54532  0.91708  0.08406  1.0000
  C   C7        1.0  0.08291  0.45468  0.41593  1.0000
  C   C8        1.0  0.45468  0.08291  0.91594  1.0000
  C   C9        1.0  0.31318  0.65351  0.51790  1.0000
  C   C10       1.0  0.65351  0.31318  0.01790  1.0000
  C   C11       1.0  0.68682  0.34650  0.48210  1.0000
  C   C12       1.0  0.34650  0.68682  0.98210  1.0000
  C   C13       1.0  0.39605  0.64132  0.42601  1.0000
  C   C14       1.0  0.64131  0.39605  0.92601  1.0000
  C   C15       1.0  0.60395  0.35869  0.57399  1.0000
  C   C16       1.0  0.35869  0.60395  0.07399  1.0000
  C   C17       1.0  0.54660  0.72459  0.43862  1.0000
  C   C18       1.0  0.72460  0.54660  0.93862  1.0000
  C   C19       1.0  0.45340  0.27541  0.56138  1.0000
  C   C20       1.0  0.27541  0.45340  0.06138  1.0000
  C   C21       1.0  0.61136  0.81746  0.54278  1.0000
  C   C22       1.0  0.81746  0.61135  0.04278  1.0000
  C   C23       1.0  0.38864  0.18254  0.45722  1.0000
  C   C24       1.0  0.18254  0.38864  0.95722  1.0000
  C   C25       1.0  0.52216  0.82255  0.63051  1.0000
  C   C26       1.0  0.82255  0.52215  0.13051  1.0000
  C   C27       1.0  0.47784  0.17745  0.36949  1.0000
  C   C28       1.0  0.17745  0.47784  0.86949  1.0000
  N   N1        1.0  0.06585  0.61308  0.59269  1.0000
  N   N2        1.0  0.61308  0.06584  0.09269  1.0000
  N   N3        1.0  0.93416  0.38692  0.40731  1.0000
  N   N4        1.0  0.38692  0.93415  0.90731  1.0000
  N   N5        1.0  0.37640  0.74355  0.61845  1.0000
  N   N6        1.0  0.74355  0.37640  0.11845  1.0000
  N   N7        1.0  0.62360  0.25645  0.38155  1.0000
  N   N8        1.0  0.25645  0.62360  0.88155  1.0000
  N   N9        1.0  0.89943  0.91183  0.85208  1.0000
  N   N10       1.0  0.91183  0.89943  0.35208  1.0000
  N   N11       1.0  0.10057  0.08817  0.14793  1.0000
  N   N12       1.0  0.08817  0.10057  0.64793  1.0000
  O   O1        1.0  0.92406  0.76650  0.80359  1.0000
  O   O2        1.0  0.76650  0.92406  0.30359  1.0000
  O   O3        1.0  0.07594  0.23350  0.19641  1.0000
  O   O4        1.0  0.23350  0.07594  0.69641  1.0000
  O   O5        1.0  0.01654  0.01731  0.87291  1.0000
  O   O6        1.0  0.01731  0.01654  0.37291  1.0000
  O   O7        1.0  0.98346  0.98269  0.12709  1.0000
  O   O8        1.0  0.98269  0.98346  0.62709  1.0000
  O   O9        1.0  0.76201  0.94288  0.87613  1.0000
  O   O10       1.0  0.94288  0.76202  0.37613  1.0000
  O   O11       1.0  0.23799  0.05712  0.12387  1.0000
  O   O12       1.0  0.05712  0.23798  0.62387  1.0000
