data_image0
_chemical_formula_structural       Cd2H32C36N8O8
_chemical_formula_sum              "Cd2 H32 C36 N8 O8"
_cell_length_a       8.64433
_cell_length_b       10.6007
_cell_length_c       12.6189
_cell_angle_alpha    101.15
_cell_angle_beta     92.6899
_cell_angle_gamma    96.7429

_space_group_name_H-M_alt    "P 1"
_space_group_IT_number       1

loop_
  _space_group_symop_operation_xyz
  'x, y, z'

loop_
  _atom_site_type_symbol
  _atom_site_label
  _atom_site_symmetry_multiplicity
  _atom_site_fract_x
  _atom_site_fract_y
  _atom_site_fract_z
  _atom_site_occupancy
  Cd  Cd1       1.0  0.43141  0.22875  0.25645  1.0000
  Cd  Cd2       1.0  0.56860  0.77124  0.74356  1.0000
  H   H1        1.0  0.29126  0.49958  0.36338  1.0000
  H   H2        1.0  0.70878  0.50043  0.63661  1.0000
  H   H3        1.0  0.91003  0.43159  0.56177  1.0000
  H   H4        1.0  0.09001  0.56838  0.43822  1.0000
  H   H5        1.0  0.10983  0.28922  0.48556  1.0000
  H   H6        1.0  0.89020  0.71076  0.51443  1.0000
  H   H7        1.0  0.03696  0.12496  0.31718  1.0000
  H   H8        1.0  0.96305  0.87503  0.68281  1.0000
  H   H9        1.0  0.76381  0.10153  0.23045  1.0000
  H   H10       1.0  0.23619  0.89845  0.76954  1.0000
  H   H11       1.0  0.55587  0.07941  0.83537  1.0000
  H   H12       1.0  0.44414  0.92059  0.16463  1.0000
  H   H13       1.0  0.68620  0.26708  0.87106  1.0000
  H   H14       1.0  0.31379  0.73294  0.12895  1.0000
  H   H15       1.0  0.76744  0.50575  0.90747  1.0000
  H   H16       1.0  0.23251  0.49426  0.09255  1.0000
  H   H17       1.0  0.72409  0.63754  0.09040  1.0000
  H   H18       1.0  0.27586  0.36247  0.90962  1.0000
  H   H19       1.0  0.58640  0.52369  0.22353  1.0000
  H   H20       1.0  0.41356  0.47630  0.77647  1.0000
  H   H21       1.0  0.16867  0.02715  0.51579  1.0000
  H   H22       1.0  0.83131  0.97287  0.48421  1.0000
  H   H23       1.0  0.24639  0.88541  0.44828  1.0000
  H   H24       1.0  0.75358  0.11460  0.55172  1.0000
  H   H25       1.0  0.36211  0.00147  0.55077  1.0000
  H   H26       1.0  0.63787  0.99853  0.44924  1.0000
  H   H27       1.0  0.94120  0.16708  0.04805  1.0000
  H   H28       1.0  0.05881  0.83293  0.95195  1.0000
  H   H29       1.0  0.91239  0.31781  0.13454  1.0000
  H   H30       1.0  0.08761  0.68220  0.86545  1.0000
  H   H31       1.0  0.01820  0.31900  0.01850  1.0000
  H   H32       1.0  0.98180  0.68101  0.98150  1.0000
  C   C1        1.0  0.61346  0.42531  0.46840  1.0000
  C   C2        1.0  0.38657  0.57470  0.53159  1.0000
  C   C3        1.0  0.38370  0.50186  0.42594  1.0000
  C   C4        1.0  0.61633  0.49814  0.57405  1.0000
  C   C5        1.0  0.73438  0.34193  0.43240  1.0000
  C   C6        1.0  0.26564  0.65807  0.56760  1.0000
  C   C7        1.0  0.88170  0.35759  0.48833  1.0000
  C   C8        1.0  0.11833  0.64239  0.51165  1.0000
  C   C9        1.0  0.99240  0.27938  0.44689  1.0000
  C   C10       1.0  0.00764  0.72060  0.55309  1.0000
  C   C11       1.0  0.95225  0.18599  0.35254  1.0000
  C   C12       1.0  0.04777  0.81400  0.64745  1.0000
  C   C13       1.0  0.80203  0.17434  0.30349  1.0000
  C   C14       1.0  0.19797  0.82565  0.69650  1.0000
  C   C15       1.0  0.45494  0.87054  0.98734  1.0000
  C   C16       1.0  0.54505  0.12946  0.01265  1.0000
  C   C17       1.0  0.46904  0.95313  0.08953  1.0000
  C   C18       1.0  0.53097  0.04687  0.91047  1.0000
  C   C19       1.0  0.59360  0.27070  0.02846  1.0000
  C   C20       1.0  0.40641  0.72929  0.97155  1.0000
  C   C21       1.0  0.66581  0.32675  0.94845  1.0000
  C   C22       1.0  0.33419  0.67326  0.05155  1.0000
  C   C23       1.0  0.71408  0.45986  0.96975  1.0000
  C   C24       1.0  0.28589  0.54015  0.03026  1.0000
  C   C25       1.0  0.68848  0.53312  0.07028  1.0000
  C   C26       1.0  0.31149  0.46688  0.92973  1.0000
  C   C27       1.0  0.61305  0.47050  0.14483  1.0000
  C   C28       1.0  0.38691  0.52950  0.85517  1.0000
  C   C29       1.0  0.33640  0.06254  0.39949  1.0000
  C   C30       1.0  0.66359  0.93746  0.60052  1.0000
  C   C31       1.0  0.27299  0.98915  0.48309  1.0000
  C   C32       1.0  0.72699  0.01085  0.51692  1.0000
  C   C33       1.0  0.14508  0.26707  0.15094  1.0000
  C   C34       1.0  0.85492  0.73295  0.84907  1.0000
  C   C35       1.0  0.99411  0.26609  0.08406  1.0000
  C   C36       1.0  0.00590  0.73391  0.91594  1.0000
  N   N1        1.0  0.49575  0.42913  0.39574  1.0000
  N   N2        1.0  0.50428  0.57088  0.60426  1.0000
  N   N3        1.0  0.69625  0.25074  0.34160  1.0000
  N   N4        1.0  0.30376  0.74926  0.65839  1.0000
  N   N5        1.0  0.48654  0.92003  0.89910  1.0000
  N   N6        1.0  0.51346  0.07995  0.10090  1.0000
  N   N7        1.0  0.56692  0.34274  0.12475  1.0000
  N   N8        1.0  0.43309  0.65725  0.87526  1.0000
  O   O1        1.0  0.31780  0.18292  0.41187  1.0000
  O   O2        1.0  0.68221  0.81708  0.58815  1.0000
  O   O3        1.0  0.40668  0.00499  0.32214  1.0000
  O   O4        1.0  0.59328  0.99500  0.67786  1.0000
  O   O5        1.0  0.20773  0.37327  0.21026  1.0000
  O   O6        1.0  0.79226  0.62676  0.78975  1.0000
  O   O7        1.0  0.20357  0.16046  0.14296  1.0000
  O   O8        1.0  0.79643  0.83957  0.85706  1.0000
