data_image0
_chemical_formula_structural       Cu2H32C48N6O10
_chemical_formula_sum              "Cu2 H32 C48 N6 O10"
_cell_length_a       9.47799
_cell_length_b       9.47795
_cell_length_c       11.8774
_cell_angle_alpha    81.5803
_cell_angle_beta     81.5804
_cell_angle_gamma    82.5917

_space_group_name_H-M_alt    "P 1"
_space_group_IT_number       1

loop_
  _space_group_symop_operation_xyz
  'x, y, z'

loop_
  _atom_site_type_symbol
  _atom_site_label
  _atom_site_symmetry_multiplicity
  _atom_site_fract_x
  _atom_site_fract_y
  _atom_site_fract_z
  _atom_site_occupancy
  Cu  Cu1       1.0  0.88840  0.11160  0.75000  1.0000
  Cu  Cu2       1.0  0.11159  0.88840  0.25000  1.0000
  H   H1        1.0  0.75012  0.05842  0.93507  1.0000
  H   H2        1.0  0.94158  0.24988  0.56493  1.0000
  H   H3        1.0  0.24988  0.94158  0.06493  1.0000
  H   H4        1.0  0.05842  0.75012  0.43507  1.0000
  H   H5        1.0  0.36180  0.90777  0.86855  1.0000
  H   H6        1.0  0.09223  0.63820  0.63145  1.0000
  H   H7        1.0  0.63819  0.09223  0.13145  1.0000
  H   H8        1.0  0.90777  0.36180  0.36855  1.0000
  H   H9        1.0  0.83928  0.99610  0.53510  1.0000
  H   H10       1.0  0.00390  0.16072  0.96490  1.0000
  H   H11       1.0  0.16072  0.00390  0.46490  1.0000
  H   H12       1.0  0.99610  0.83928  0.03510  1.0000
  H   H13       1.0  0.41933  0.72981  0.62776  1.0000
  H   H14       1.0  0.27019  0.58067  0.87224  1.0000
  H   H15       1.0  0.58067  0.27019  0.37224  1.0000
  H   H16       1.0  0.72981  0.41933  0.12776  1.0000
  H   H17       1.0  0.34832  0.60776  0.47757  1.0000
  H   H18       1.0  0.39224  0.65168  0.02243  1.0000
  H   H19       1.0  0.65168  0.39224  0.52243  1.0000
  H   H20       1.0  0.60776  0.34832  0.97756  1.0000
  H   H21       1.0  0.47822  0.63780  0.27835  1.0000
  H   H22       1.0  0.36220  0.52178  0.22165  1.0000
  H   H23       1.0  0.52178  0.36220  0.72165  1.0000
  H   H24       1.0  0.63780  0.47823  0.77835  1.0000
  H   H25       1.0  0.68092  0.78652  0.23149  1.0000
  H   H26       1.0  0.21347  0.31908  0.26852  1.0000
  H   H27       1.0  0.31908  0.21347  0.76851  1.0000
  H   H28       1.0  0.78653  0.68092  0.73148  1.0000
  H   H29       1.0  0.75817  0.90237  0.38308  1.0000
  H   H30       1.0  0.09763  0.24183  0.11692  1.0000
  H   H31       1.0  0.24184  0.09763  0.61691  1.0000
  H   H32       1.0  0.90237  0.75816  0.88309  1.0000
  C   C1        1.0  0.63989  0.03387  0.96330  1.0000
  C   C2        1.0  0.96613  0.36010  0.53670  1.0000
  C   C3        1.0  0.36010  0.96613  0.03670  1.0000
  C   C4        1.0  0.03387  0.63990  0.46330  1.0000
  C   C5        1.0  0.42254  0.94769  0.92608  1.0000
  C   C6        1.0  0.05231  0.57746  0.57392  1.0000
  C   C7        1.0  0.57746  0.05231  0.07392  1.0000
  C   C8        1.0  0.94769  0.42254  0.42608  1.0000
  C   C9        1.0  0.56348  0.98211  0.88759  1.0000
  C   C10       1.0  0.01789  0.43652  0.61241  1.0000
  C   C11       1.0  0.43652  0.01789  0.11241  1.0000
  C   C12       1.0  0.98211  0.56348  0.38759  1.0000
  C   C13       1.0  0.62678  0.96519  0.77158  1.0000
  C   C14       1.0  0.03481  0.37322  0.72842  1.0000
  C   C15       1.0  0.37322  0.03481  0.22842  1.0000
  C   C16       1.0  0.96519  0.62678  0.27158  1.0000
  C   C17       1.0  0.75420  0.96906  0.60338  1.0000
  C   C18       1.0  0.03094  0.24579  0.89663  1.0000
  C   C19       1.0  0.24580  0.03094  0.39663  1.0000
  C   C20       1.0  0.96906  0.75420  0.10338  1.0000
  C   C21       1.0  0.64074  0.89367  0.60165  1.0000
  C   C22       1.0  0.10633  0.35926  0.89836  1.0000
  C   C23       1.0  0.35926  0.10632  0.39835  1.0000
  C   C24       1.0  0.89368  0.64074  0.10164  1.0000
  C   C25       1.0  0.59529  0.82193  0.51582  1.0000
  C   C26       1.0  0.17807  0.40471  0.98418  1.0000
  C   C27       1.0  0.40471  0.17807  0.48419  1.0000
  C   C28       1.0  0.82193  0.59529  0.01581  1.0000
  C   C29       1.0  0.47912  0.73905  0.54197  1.0000
  C   C30       1.0  0.26095  0.52088  0.95803  1.0000
  C   C31       1.0  0.52088  0.26095  0.45803  1.0000
  C   C32       1.0  0.73905  0.47912  0.04197  1.0000
  C   C33       1.0  0.43786  0.67262  0.45671  1.0000
  C   C34       1.0  0.32738  0.56214  0.04329  1.0000
  C   C35       1.0  0.56214  0.32738  0.54329  1.0000
  C   C36       1.0  0.67262  0.43785  0.95670  1.0000
  C   C37       1.0  0.51081  0.68874  0.34533  1.0000
  C   C38       1.0  0.31126  0.48920  0.15467  1.0000
  C   C39       1.0  0.48920  0.31126  0.65466  1.0000
  C   C40       1.0  0.68874  0.51080  0.84533  1.0000
  C   C41       1.0  0.62573  0.77171  0.31894  1.0000
  C   C42       1.0  0.22829  0.37427  0.18106  1.0000
  C   C43       1.0  0.37427  0.22829  0.68106  1.0000
  C   C44       1.0  0.77171  0.62573  0.81894  1.0000
  C   C45       1.0  0.66871  0.83742  0.40354  1.0000
  C   C46       1.0  0.16258  0.33129  0.09646  1.0000
  C   C47       1.0  0.33129  0.16258  0.59646  1.0000
  C   C48       1.0  0.83742  0.66871  0.90354  1.0000
  N   N1        1.0  0.74425  0.01332  0.71093  1.0000
  N   N2        1.0  0.98668  0.25575  0.78907  1.0000
  N   N3        1.0  0.25575  0.98668  0.28907  1.0000
  N   N4        1.0  0.01332  0.74425  0.21093  1.0000
  N   N5        1.0  0.11100  0.88900  0.75000  1.0000
  N   N6        1.0  0.88900  0.11100  0.25000  1.0000
  O   O1        1.0  0.56005  0.89155  0.70868  1.0000
  O   O2        1.0  0.10845  0.43995  0.79132  1.0000
  O   O3        1.0  0.43995  0.10844  0.29132  1.0000
  O   O4        1.0  0.89156  0.56005  0.20868  1.0000
  O   O5        1.0  0.04771  0.93138  0.84411  1.0000
  O   O6        1.0  0.06862  0.95229  0.65589  1.0000
  O   O7        1.0  0.95228  0.06862  0.15589  1.0000
  O   O8        1.0  0.93138  0.04772  0.34411  1.0000
  O   O9        1.0  0.21077  0.78923  0.75000  1.0000
  O   O10       1.0  0.78922  0.21077  0.25000  1.0000
