data_image0
_chemical_formula_structural       Cu3H34C36N2O14
_chemical_formula_sum              "Cu3 H34 C36 N2 O14"
_cell_length_a       9.57589
_cell_length_b       10.1994
_cell_length_c       10.5494
_cell_angle_alpha    110.275
_cell_angle_beta     97.2323
_cell_angle_gamma    110.193

_space_group_name_H-M_alt    "P 1"
_space_group_IT_number       1

loop_
  _space_group_symop_operation_xyz
  'x, y, z'

loop_
  _atom_site_type_symbol
  _atom_site_label
  _atom_site_symmetry_multiplicity
  _atom_site_fract_x
  _atom_site_fract_y
  _atom_site_fract_z
  _atom_site_occupancy
  Cu  Cu1       1.0  0.00001  1.00000  0.00000  1.0000
  Cu  Cu2       1.0  0.00478  0.63287  0.57836  1.0000
  Cu  Cu3       1.0  0.99523  0.36713  0.42165  1.0000
  H   H1        1.0  0.21132  0.88855  0.92471  1.0000
  H   H2        1.0  0.78867  0.11144  0.07529  1.0000
  H   H3        1.0  0.65592  0.28167  0.12434  1.0000
  H   H4        1.0  0.34407  0.71832  0.87567  1.0000
  H   H5        1.0  0.09707  0.33996  0.11574  1.0000
  H   H6        1.0  0.90292  0.66004  0.88427  1.0000
  H   H7        1.0  0.21098  0.62624  0.20761  1.0000
  H   H8        1.0  0.78902  0.37376  0.79237  1.0000
  H   H9        1.0  0.33399  0.90993  0.29849  1.0000
  H   H10       1.0  0.66601  0.09008  0.70150  1.0000
  H   H11       1.0  0.62116  0.04718  0.33894  1.0000
  H   H12       1.0  0.37885  0.95282  0.66107  1.0000
  H   H13       1.0  0.77751  0.89716  0.28820  1.0000
  H   H14       1.0  0.22249  0.10283  0.71180  1.0000
  H   H15       1.0  0.65352  0.61234  0.20200  1.0000
  H   H16       1.0  0.34647  0.38765  0.79799  1.0000
  H   H17       1.0  0.92576  0.49642  0.06145  1.0000
  H   H18       1.0  0.07421  0.50358  0.93855  1.0000
  H   H19       1.0  0.81499  0.59327  0.13702  1.0000
  H   H20       1.0  0.18502  0.40676  0.86300  1.0000
  H   H21       1.0  0.01358  0.70136  0.16942  1.0000
  H   H22       1.0  0.98643  0.29864  0.83057  1.0000
  H   H23       1.0  0.88744  0.84896  0.50077  1.0000
  H   H24       1.0  0.11259  0.15107  0.49922  1.0000
  H   H25       1.0  0.91121  0.04469  0.58746  1.0000
  H   H26       1.0  0.08880  0.95533  0.41256  1.0000
  H   H27       1.0  0.74073  0.89194  0.57081  1.0000
  H   H28       1.0  0.25929  0.10805  0.42919  1.0000
  H   H29       1.0  0.51901  0.80586  0.65635  1.0000
  H   H30       1.0  0.48100  0.19415  0.34364  1.0000
  H   H31       1.0  0.49660  0.69334  0.47584  1.0000
  H   H32       1.0  0.50339  0.30666  0.52415  1.0000
  H   H33       1.0  0.51851  0.61811  0.60090  1.0000
  H   H34       1.0  0.48149  0.38189  0.39909  1.0000
  C   C1        1.0  0.33726  0.93788  0.96055  1.0000
  C   C2        1.0  0.66273  0.06211  0.03946  1.0000
  C   C3        1.0  0.42400  0.09809  0.03015  1.0000
  C   C4        1.0  0.57599  0.90190  0.96985  1.0000
  C   C5        1.0  0.58727  0.15827  0.06885  1.0000
  C   C6        1.0  0.41272  0.84172  0.93116  1.0000
  C   C7        1.0  0.35040  0.20306  0.06281  1.0000
  C   C8        1.0  0.64960  0.79693  0.93720  1.0000
  C   C9        1.0  0.20250  0.32531  0.10493  1.0000
  C   C10       1.0  0.79750  0.67469  0.89507  1.0000
  C   C11       1.0  0.35088  0.43428  0.14182  1.0000
  C   C12       1.0  0.64912  0.56572  0.85817  1.0000
  C   C13       1.0  0.42371  0.60012  0.19624  1.0000
  C   C14       1.0  0.57628  0.39987  0.80375  1.0000
  C   C15       1.0  0.33485  0.68589  0.22506  1.0000
  C   C16       1.0  0.66515  0.31411  0.77492  1.0000
  C   C17       1.0  0.40503  0.84558  0.27722  1.0000
  C   C18       1.0  0.59497  0.15442  0.72277  1.0000
  C   C19       1.0  0.56461  0.92235  0.30011  1.0000
  C   C20       1.0  0.43539  0.07765  0.69989  1.0000
  C   C21       1.0  0.65338  0.83759  0.27121  1.0000
  C   C22       1.0  0.34662  0.16240  0.72879  1.0000
  C   C23       1.0  0.58423  0.67819  0.22110  1.0000
  C   C24       1.0  0.41576  0.32180  0.77889  1.0000
  C   C25       1.0  0.92814  0.58891  0.15459  1.0000
  C   C26       1.0  0.07186  0.41110  0.84542  1.0000
  C   C27       1.0  0.95859  0.55876  0.28367  1.0000
  C   C28       1.0  0.04141  0.44125  0.71633  1.0000
  C   C29       1.0  0.86607  0.92979  0.58706  1.0000
  C   C30       1.0  0.13394  0.07022  0.41294  1.0000
  C   C31       1.0  0.93735  0.93707  0.72629  1.0000
  C   C32       1.0  0.06267  0.06291  0.27370  1.0000
  C   C33       1.0  0.46843  0.68928  0.57252  1.0000
  C   C34       1.0  0.53158  0.31072  0.42747  1.0000
  C   C35       1.0  0.29412  0.61738  0.54293  1.0000
  C   C36       1.0  0.70588  0.38262  0.45707  1.0000
  N   N1        1.0  0.20407  0.18138  0.05492  1.0000
  N   N2        1.0  0.79592  0.81862  0.94510  1.0000
  O   O1        1.0  0.44418  0.35606  0.11495  1.0000
  O   O2        1.0  0.55581  0.64394  0.88504  1.0000
  O   O3        1.0  0.97475  0.66352  0.40114  1.0000
  O   O4        1.0  0.02525  0.33648  0.59887  1.0000
  O   O5        1.0  0.96430  0.43005  0.26377  1.0000
  O   O6        1.0  0.03570  0.56996  0.73623  1.0000
  O   O7        1.0  0.00603  0.85363  0.73570  1.0000
  O   O8        1.0  0.99395  0.14633  0.26428  1.0000
  O   O9        1.0  0.92271  0.03394  0.83605  1.0000
  O   O10       1.0  0.07732  0.96604  0.16395  1.0000
  O   O11       1.0  0.23098  0.70623  0.59868  1.0000
  O   O12       1.0  0.76902  0.29377  0.40132  1.0000
  O   O13       1.0  0.22450  0.47379  0.46388  1.0000
  O   O14       1.0  0.77550  0.52621  0.53613  1.0000
