data_image0
_chemical_formula_structural       Zn2H28C40N4O10
_chemical_formula_sum              "Zn2 H28 C40 N4 O10"
_cell_length_a       7.50819
_cell_length_b       10.2906
_cell_length_c       10.2906
_cell_angle_alpha    87.0739
_cell_angle_beta     89.1112
_cell_angle_gamma    89.1102

_space_group_name_H-M_alt    "P 1"
_space_group_IT_number       1

loop_
  _space_group_symop_operation_xyz
  'x, y, z'

loop_
  _atom_site_type_symbol
  _atom_site_label
  _atom_site_symmetry_multiplicity
  _atom_site_fract_x
  _atom_site_fract_y
  _atom_site_fract_z
  _atom_site_occupancy
  Zn  Zn1       1.0  0.50000  0.00000  1.00000  1.0000
  Zn  Zn2       1.0  0.00000  0.00000  1.00000  1.0000
  H   H1        1.0  0.38310  0.88987  0.66525  1.0000
  H   H2        1.0  0.11691  0.33475  0.11013  1.0000
  H   H3        1.0  0.61691  0.11013  0.33474  1.0000
  H   H4        1.0  0.88309  0.66525  0.88987  1.0000
  H   H5        1.0  0.38330  0.86270  0.42426  1.0000
  H   H6        1.0  0.11671  0.57575  0.13730  1.0000
  H   H7        1.0  0.61670  0.13730  0.57573  1.0000
  H   H8        1.0  0.88329  0.42425  0.86270  1.0000
  H   H9        1.0  0.00912  0.22407  0.26773  1.0000
  H   H10       1.0  0.49088  0.73227  0.77593  1.0000
  H   H11       1.0  0.99088  0.77593  0.73227  1.0000
  H   H12       1.0  0.50912  0.26773  0.22407  1.0000
  H   H13       1.0  0.86450  0.40745  0.37820  1.0000
  H   H14       1.0  0.63549  0.62179  0.59255  1.0000
  H   H15       1.0  0.13550  0.59255  0.62180  1.0000
  H   H16       1.0  0.36451  0.37821  0.40745  1.0000
  H   H17       1.0  0.89387  0.42430  0.61800  1.0000
  H   H18       1.0  0.60613  0.38200  0.57570  1.0000
  H   H19       1.0  0.10613  0.57570  0.38201  1.0000
  H   H20       1.0  0.39387  0.61800  0.42430  1.0000
  H   H21       1.0  0.06032  0.25393  0.74807  1.0000
  H   H22       1.0  0.43968  0.25193  0.74607  1.0000
  H   H23       1.0  0.93968  0.74607  0.25193  1.0000
  H   H24       1.0  0.56032  0.74807  0.25393  1.0000
  H   H25       1.0  0.24636  0.07249  0.81743  1.0000
  H   H26       1.0  0.25364  0.18257  0.92751  1.0000
  H   H27       1.0  0.75364  0.92751  0.18257  1.0000
  H   H28       1.0  0.74637  0.81743  0.07249  1.0000
  C   C1        1.0  0.31131  0.95890  0.60064  1.0000
  C   C2        1.0  0.18869  0.39937  0.04110  1.0000
  C   C3        1.0  0.68869  0.04110  0.39936  1.0000
  C   C4        1.0  0.81131  0.60063  0.95891  1.0000
  C   C5        1.0  0.31059  0.94355  0.46542  1.0000
  C   C6        1.0  0.18942  0.53459  0.05645  1.0000
  C   C7        1.0  0.68941  0.05645  0.53458  1.0000
  C   C8        1.0  0.81059  0.46541  0.94355  1.0000
  C   C9        1.0  0.22185  0.03328  0.38460  1.0000
  C   C10       1.0  0.27815  0.61540  0.96672  1.0000
  C   C11       1.0  0.77814  0.96672  0.61539  1.0000
  C   C12       1.0  0.72185  0.38460  0.03328  1.0000
  C   C13       1.0  0.02614  0.23474  0.37141  1.0000
  C   C14       1.0  0.47385  0.62859  0.76526  1.0000
  C   C15       1.0  0.97385  0.76526  0.62859  1.0000
  C   C16       1.0  0.52615  0.37141  0.23475  1.0000
  C   C17       1.0  0.94437  0.33554  0.43389  1.0000
  C   C18       1.0  0.55562  0.56611  0.66446  1.0000
  C   C19       1.0  0.05562  0.66446  0.56611  1.0000
  C   C20       1.0  0.44438  0.43389  0.33554  1.0000
  C   C21       1.0  0.95931  0.34434  0.56995  1.0000
  C   C22       1.0  0.54069  0.43005  0.65566  1.0000
  C   C23       1.0  0.04069  0.65566  0.43005  1.0000
  C   C24       1.0  0.45931  0.56995  0.34434  1.0000
  C   C25       1.0  0.05348  0.25130  0.64246  1.0000
  C   C26       1.0  0.44652  0.35754  0.74870  1.0000
  C   C27       1.0  0.94652  0.74870  0.35754  1.0000
  C   C28       1.0  0.55348  0.64246  0.25130  1.0000
  C   C29       1.0  0.14058  0.14746  0.58066  1.0000
  C   C30       1.0  0.35942  0.41933  0.85254  1.0000
  C   C31       1.0  0.85942  0.85254  0.41933  1.0000
  C   C32       1.0  0.64058  0.58067  0.14746  1.0000
  C   C33       1.0  0.12862  0.13865  0.44217  1.0000
  C   C34       1.0  0.37138  0.55783  0.86134  1.0000
  C   C35       1.0  0.87138  0.86134  0.55783  1.0000
  C   C36       1.0  0.62863  0.44217  0.13866  1.0000
  C   C37       1.0  0.22979  0.01884  0.23891  1.0000
  C   C38       1.0  0.27023  0.76109  0.98115  1.0000
  C   C39       1.0  0.77021  0.98116  0.76108  1.0000
  C   C40       1.0  0.72977  0.23891  0.01885  1.0000
  N   N1        1.0  0.23331  0.05800  0.65668  1.0000
  N   N2        1.0  0.26668  0.34332  0.94200  1.0000
  N   N3        1.0  0.76669  0.94200  0.34332  1.0000
  N   N4        1.0  0.73332  0.65668  0.05800  1.0000
  O   O1        1.0  0.38004  0.98717  0.19185  1.0000
  O   O2        1.0  0.11997  0.80816  0.01283  1.0000
  O   O3        1.0  0.61996  0.01283  0.80815  1.0000
  O   O4        1.0  0.88003  0.19184  0.98717  1.0000
  O   O5        1.0  0.08442  0.04101  0.17952  1.0000
  O   O6        1.0  0.41559  0.82047  0.95898  1.0000
  O   O7        1.0  0.91559  0.95899  0.82048  1.0000
  O   O8        1.0  0.58441  0.17953  0.04102  1.0000
  O   O9        1.0  0.25000  0.08399  0.91601  1.0000
  O   O10       1.0  0.75000  0.91601  0.08399  1.0000
