data_image0
_chemical_formula_structural       Zn2H48C58N4O10
_chemical_formula_sum              "Zn2 H48 C58 N4 O10"
_cell_length_a       8.96286
_cell_length_b       9.49268
_cell_length_c       14.9353
_cell_angle_alpha    90.4106
_cell_angle_beta     100.318
_cell_angle_gamma    106.79

_space_group_name_H-M_alt    "P 1"
_space_group_IT_number       1

loop_
  _space_group_symop_operation_xyz
  'x, y, z'

loop_
  _atom_site_type_symbol
  _atom_site_label
  _atom_site_symmetry_multiplicity
  _atom_site_fract_x
  _atom_site_fract_y
  _atom_site_fract_z
  _atom_site_occupancy
  Zn  Zn1       1.0  0.91797  0.30012  0.43075  1.0000
  Zn  Zn2       1.0  0.08203  0.69988  0.56925  1.0000
  H   H1        1.0  0.80682  0.29725  0.89178  1.0000
  H   H2        1.0  0.19318  0.70275  0.10822  1.0000
  H   H3        1.0  0.05980  0.13489  0.58644  1.0000
  H   H4        1.0  0.94020  0.86511  0.41356  1.0000
  H   H5        1.0  0.85221  0.94470  0.81108  1.0000
  H   H6        1.0  0.14779  0.05530  0.18892  1.0000
  H   H7        1.0  0.92093  0.40882  0.76704  1.0000
  H   H8        1.0  0.07906  0.59117  0.23295  1.0000
  H   H9        1.0  0.81088  0.15180  0.01176  1.0000
  H   H10       1.0  0.18911  0.84820  0.98824  1.0000
  H   H11       1.0  0.90403  0.04539  0.95685  1.0000
  H   H12       1.0  0.09597  0.95461  0.04315  1.0000
  H   H13       1.0  0.30706  0.36372  0.22662  1.0000
  H   H14       1.0  0.69294  0.63629  0.77338  1.0000
  H   H15       1.0  0.56341  0.04521  0.79999  1.0000
  H   H16       1.0  0.43659  0.95478  0.20001  1.0000
  H   H17       1.0  0.57433  0.55360  0.25453  1.0000
  H   H18       1.0  0.42568  0.44640  0.74548  1.0000
  H   H19       1.0  0.83558  0.94831  0.09170  1.0000
  H   H20       1.0  0.16442  0.05170  0.90830  1.0000
  H   H21       1.0  0.12332  0.34539  0.07969  1.0000
  H   H22       1.0  0.87668  0.65463  0.92031  1.0000
  H   H23       1.0  0.12650  0.61783  0.81156  1.0000
  H   H24       1.0  0.87350  0.38217  0.18844  1.0000
  H   H25       1.0  0.66387  0.12889  0.61931  1.0000
  H   H26       1.0  0.33612  0.87111  0.38070  1.0000
  H   H27       1.0  0.46045  0.03284  0.62390  1.0000
  H   H28       1.0  0.53954  0.96716  0.37610  1.0000
  H   H29       1.0  0.54905  0.21508  0.67509  1.0000
  H   H30       1.0  0.45095  0.78492  0.32491  1.0000
  H   H31       1.0  0.76732  0.76731  0.20357  1.0000
  H   H32       1.0  0.23268  0.23269  0.79643  1.0000
  H   H33       1.0  0.30790  0.84502  0.76719  1.0000
  H   H34       1.0  0.69210  0.15498  0.23280  1.0000
  H   H35       1.0  0.05913  0.43456  0.92711  1.0000
  H   H36       1.0  0.94086  0.56545  0.07289  1.0000
  H   H37       1.0  0.62675  0.34415  0.34780  1.0000
  H   H38       1.0  0.37326  0.65584  0.65220  1.0000
  H   H39       1.0  0.49030  0.40477  0.40029  1.0000
  H   H40       1.0  0.50971  0.59523  0.59972  1.0000
  H   H41       1.0  0.42914  0.22816  0.34349  1.0000
  H   H42       1.0  0.57087  0.77184  0.65651  1.0000
  H   H43       1.0  0.29327  0.24419  0.45114  1.0000
  H   H44       1.0  0.70674  0.75581  0.54886  1.0000
  H   H45       1.0  0.31573  0.27930  0.57068  1.0000
  H   H46       1.0  0.68427  0.72070  0.42932  1.0000
  H   H47       1.0  0.24983  0.09411  0.52330  1.0000
  H   H48       1.0  0.75017  0.90590  0.47670  1.0000
  C   C1        1.0  0.05489  0.41378  0.61818  1.0000
  C   C2        1.0  0.94511  0.58621  0.38182  1.0000
  C   C3        1.0  0.01115  0.14841  0.64629  1.0000
  C   C4        1.0  0.98885  0.85159  0.35371  1.0000
  C   C5        1.0  0.97073  0.88035  0.66794  1.0000
  C   C6        1.0  0.02927  0.11965  0.33206  1.0000
  C   C7        1.0  0.99708  0.28526  0.67226  1.0000
  C   C8        1.0  0.00292  0.71474  0.32774  1.0000
  C   C9        1.0  0.96002  0.02773  0.69762  1.0000
  C   C10       1.0  0.03999  0.97227  0.30238  1.0000
  C   C11       1.0  0.89518  0.04251  0.77435  1.0000
  C   C12       1.0  0.10482  0.95749  0.22565  1.0000
  C   C13       1.0  0.93281  0.30168  0.74881  1.0000
  C   C14       1.0  0.06718  0.69831  0.25119  1.0000
  C   C15       1.0  0.88280  0.18066  0.80192  1.0000
  C   C16       1.0  0.11720  0.81934  0.19808  1.0000
  C   C17       1.0  0.64870  0.96699  0.92745  1.0000
  C   C18       1.0  0.35130  0.03300  0.07255  1.0000
  C   C19       1.0  0.46725  0.74534  0.97454  1.0000
  C   C20       1.0  0.53275  0.25467  0.02546  1.0000
  C   C21       1.0  0.80282  0.09196  0.94690  1.0000
  C   C22       1.0  0.19717  0.90804  0.05310  1.0000
  C   C23       1.0  0.42752  0.64042  0.04073  1.0000
  C   C24       1.0  0.57247  0.35958  0.95927  1.0000
  C   C25       1.0  0.35618  0.73836  0.89167  1.0000
  C   C26       1.0  0.64382  0.26164  0.10833  1.0000
  C   C27       1.0  0.61520  0.85960  0.99217  1.0000
  C   C28       1.0  0.38479  0.14040  0.00783  1.0000
  C   C29       1.0  0.34315  0.44001  0.17489  1.0000
  C   C30       1.0  0.65685  0.55999  0.82512  1.0000
  C   C31       1.0  0.53756  0.95914  0.84767  1.0000
  C   C32       1.0  0.46244  0.04086  0.15233  1.0000
  C   C33       1.0  0.49065  0.54720  0.19068  1.0000
  C   C34       1.0  0.50935  0.45280  0.80932  1.0000
  C   C35       1.0  0.58932  0.24613  0.47282  1.0000
  C   C36       1.0  0.41068  0.75386  0.52718  1.0000
  C   C37       1.0  0.53532  0.64866  0.12499  1.0000
  C   C38       1.0  0.46468  0.35135  0.87501  1.0000
  C   C39       1.0  0.72207  0.86245  0.07642  1.0000
  C   C40       1.0  0.27793  0.13755  0.92358  1.0000
  C   C41       1.0  0.23826  0.42991  0.09220  1.0000
  C   C42       1.0  0.76173  0.57010  0.90780  1.0000
  C   C43       1.0  0.27774  0.52822  0.02415  1.0000
  C   C44       1.0  0.72225  0.47178  0.97585  1.0000
  C   C45       1.0  0.20819  0.62336  0.87602  1.0000
  C   C46       1.0  0.79181  0.37664  0.12398  1.0000
  C   C47       1.0  0.54555  0.14019  0.61761  1.0000
  C   C48       1.0  0.45445  0.85980  0.38240  1.0000
  C   C49       1.0  0.68417  0.76163  0.13978  1.0000
  C   C50       1.0  0.31583  0.23837  0.86022  1.0000
  C   C51       1.0  0.39407  0.84702  0.82934  1.0000
  C   C52       1.0  0.60593  0.15297  0.17066  1.0000
  C   C53       1.0  0.17119  0.52248  0.93943  1.0000
  C   C54       1.0  0.82880  0.47753  0.06058  1.0000
  C   C55       1.0  0.53054  0.30941  0.38617  1.0000
  C   C56       1.0  0.46946  0.69058  0.61383  1.0000
  C   C57       1.0  0.32895  0.20508  0.51781  1.0000
  C   C58       1.0  0.67105  0.79492  0.48219  1.0000
  N   N1        1.0  0.82449  0.19895  0.87864  1.0000
  N   N2        1.0  0.17551  0.80105  0.12136  1.0000
  N   N3        1.0  0.49195  0.19924  0.53190  1.0000
  N   N4        1.0  0.50805  0.80075  0.46810  1.0000
  O   O1        1.0  0.07746  0.54250  0.65467  1.0000
  O   O2        1.0  0.92255  0.45750  0.34533  1.0000
  O   O3        1.0  0.72911  0.23434  0.49066  1.0000
  O   O4        1.0  0.27089  0.76563  0.50934  1.0000
  O   O5        1.0  0.07663  0.88739  0.61680  1.0000
  O   O6        1.0  0.92337  0.11261  0.38320  1.0000
  O   O7        1.0  0.88164  0.76358  0.68955  1.0000
  O   O8        1.0  0.11836  0.23642  0.31045  1.0000
  O   O9        1.0  0.08432  0.39444  0.53894  1.0000
  O   O10       1.0  0.91568  0.60555  0.46106  1.0000
