data_image0
_chemical_formula_structural       Cu2H32C40N16O8
_chemical_formula_sum              "Cu2 H32 C40 N16 O8"
_cell_length_a       3.86762
_cell_length_b       15.984
_cell_length_c       15.9862
_cell_angle_alpha    89.1277
_cell_angle_beta     83.0591
_cell_angle_gamma    83.0481

_space_group_name_H-M_alt    "P 1"
_space_group_IT_number       1

loop_
  _space_group_symop_operation_xyz
  'x, y, z'

loop_
  _atom_site_type_symbol
  _atom_site_label
  _atom_site_symmetry_multiplicity
  _atom_site_fract_x
  _atom_site_fract_y
  _atom_site_fract_z
  _atom_site_occupancy
  Cu  Cu1       1.0  0.87750  0.75002  0.24997  1.0000
  Cu  Cu2       1.0  0.12249  0.24998  0.75002  1.0000
  H   H1        1.0  0.71965  0.54080  0.14529  1.0000
  H   H2        1.0  0.76117  0.14540  0.95918  1.0000
  H   H3        1.0  0.40575  0.95912  0.35471  1.0000
  H   H4        1.0  0.86622  0.35459  0.54089  1.0000
  H   H5        1.0  0.28035  0.45920  0.85471  1.0000
  H   H6        1.0  0.23884  0.85460  0.04082  1.0000
  H   H7        1.0  0.59426  0.04088  0.64528  1.0000
  H   H8        1.0  0.13378  0.64541  0.45912  1.0000
  H   H9        1.0  0.87770  0.63359  0.74376  1.0000
  H   H10       1.0  0.01162  0.74391  0.86630  1.0000
  H   H11       1.0  0.25585  0.86634  0.75619  1.0000
  H   H12       1.0  0.62196  0.75607  0.63361  1.0000
  H   H13       1.0  0.12230  0.36641  0.25625  1.0000
  H   H14       1.0  0.98839  0.25609  0.13371  1.0000
  H   H15       1.0  0.74414  0.13366  0.24380  1.0000
  H   H16       1.0  0.37806  0.24394  0.36638  1.0000
  H   H17       1.0  0.93061  0.52251  0.76128  1.0000
  H   H18       1.0  0.95284  0.76150  0.97732  1.0000
  H   H19       1.0  0.21453  0.97743  0.73872  1.0000
  H   H20       1.0  0.69163  0.73853  0.52258  1.0000
  H   H21       1.0  0.06939  0.47749  0.23873  1.0000
  H   H22       1.0  0.04716  0.23850  0.02269  1.0000
  H   H23       1.0  0.78545  0.02257  0.26127  1.0000
  H   H24       1.0  0.30838  0.26148  0.47742  1.0000
  H   H25       1.0  0.27127  0.58385  0.78171  1.0000
  H   H26       1.0  0.35567  0.78158  0.91612  1.0000
  H   H27       1.0  0.63725  0.91622  0.71832  1.0000
  H   H28       1.0  0.05339  0.71834  0.58377  1.0000
  H   H29       1.0  0.72873  0.41615  0.21829  1.0000
  H   H30       1.0  0.64434  0.21841  0.08389  1.0000
  H   H31       1.0  0.36274  0.08378  0.28167  1.0000
  H   H32       1.0  0.94663  0.28167  0.41622  1.0000
  C   C1        1.0  0.74874  0.57286  0.01366  1.0000
  C   C2        1.0  0.82195  0.01381  0.92706  1.0000
  C   C3        1.0  0.33598  0.92703  0.48635  1.0000
  C   C4        1.0  0.76309  0.48617  0.57299  1.0000
  C   C5        1.0  0.25125  0.42714  0.98634  1.0000
  C   C6        1.0  0.17807  0.98619  0.07293  1.0000
  C   C7        1.0  0.66403  0.07297  0.51364  1.0000
  C   C8        1.0  0.23692  0.51383  0.42701  1.0000
  C   C9        1.0  0.84269  0.52152  0.08260  1.0000
  C   C10       1.0  0.86469  0.08265  0.97847  1.0000
  C   C11       1.0  0.44663  0.97844  0.41741  1.0000
  C   C12       1.0  0.92604  0.41734  0.52158  1.0000
  C   C13       1.0  0.15730  0.47848  0.91740  1.0000
  C   C14       1.0  0.13531  0.91735  0.02153  1.0000
  C   C15       1.0  0.55337  0.02156  0.58259  1.0000
  C   C16       1.0  0.07397  0.58266  0.47843  1.0000
  C   C17       1.0  0.91574  0.54929  0.92941  1.0000
  C   C18       1.0  0.96539  0.92952  0.95059  1.0000
  C   C19       1.0  0.39519  0.95066  0.57058  1.0000
  C   C20       1.0  0.84546  0.57047  0.54937  1.0000
  C   C21       1.0  0.08425  0.45071  0.07059  1.0000
  C   C22       1.0  0.03463  0.07049  0.04940  1.0000
  C   C23       1.0  0.60481  0.04934  0.42942  1.0000
  C   C24       1.0  0.15455  0.42953  0.45063  1.0000
  C   C25       1.0  0.34832  0.67123  0.09132  1.0000
  C   C26       1.0  0.51922  0.09155  0.82862  1.0000
  C   C27       1.0  0.11118  0.82874  0.40871  1.0000
  C   C28       1.0  0.43943  0.40842  0.67133  1.0000
  C   C29       1.0  0.65168  0.32878  0.90868  1.0000
  C   C30       1.0  0.48077  0.90845  0.17138  1.0000
  C   C31       1.0  0.88880  0.17125  0.59129  1.0000
  C   C32       1.0  0.56057  0.59158  0.32867  1.0000
  C   C33       1.0  0.98690  0.58353  0.78368  1.0000
  C   C34       1.0  0.07091  0.78382  0.91632  1.0000
  C   C35       1.0  0.35459  0.91646  0.71631  1.0000
  C   C36       1.0  0.77101  0.71617  0.58358  1.0000
  C   C37       1.0  0.01310  0.41647  0.21633  1.0000
  C   C38       1.0  0.92910  0.21618  0.08368  1.0000
  C   C39       1.0  0.64539  0.08354  0.28368  1.0000
  C   C40       1.0  0.22900  0.28384  0.41642  1.0000
  N   N1        1.0  0.17969  0.70682  0.14962  1.0000
  N   N2        1.0  0.38575  0.14973  0.79284  1.0000
  N   N3        1.0  0.03560  0.79332  0.35039  1.0000
  N   N4        1.0  0.32778  0.35023  0.70693  1.0000
  N   N5        1.0  0.82031  0.29319  0.85038  1.0000
  N   N6        1.0  0.61423  0.85027  0.20716  1.0000
  N   N7        1.0  0.96440  0.20667  0.64961  1.0000
  N   N8        1.0  0.67221  0.64977  0.29306  1.0000
  N   N9        1.0  0.51644  0.64257  0.02077  1.0000
  N   N10       1.0  0.65883  0.02106  0.85742  1.0000
  N   N11       1.0  0.18114  0.85723  0.47924  1.0000
  N   N12       1.0  0.53788  0.47891  0.64268  1.0000
  N   N13       1.0  0.48356  0.35743  0.97923  1.0000
  N   N14       1.0  0.34118  0.97894  0.14258  1.0000
  N   N15       1.0  0.81885  0.14277  0.52076  1.0000
  N   N16       1.0  0.46213  0.52109  0.35733  1.0000
  O   O1        1.0  0.81395  0.60129  0.86742  1.0000
  O   O2        1.0  0.91661  0.86762  0.89840  1.0000
  O   O3        1.0  0.28333  0.89867  0.63255  1.0000
  O   O4        1.0  0.68236  0.63239  0.60149  1.0000
  O   O5        1.0  0.18604  0.39871  0.13259  1.0000
  O   O6        1.0  0.08341  0.13237  0.10159  1.0000
  O   O7        1.0  0.71667  0.10133  0.36744  1.0000
  O   O8        1.0  0.31766  0.36762  0.39852  1.0000
