data_image0
_chemical_formula_structural       Cu2H8C32Br8N16
_chemical_formula_sum              "Cu2 H8 C32 Br8 N16"
_cell_length_a       3.9453
_cell_length_b       15.3522
_cell_length_c       15.3526
_cell_angle_alpha    89.0071
_cell_angle_beta     82.5948
_cell_angle_gamma    82.6693

_space_group_name_H-M_alt    "P 1"
_space_group_IT_number       1

loop_
  _space_group_symop_operation_xyz
  'x, y, z'

loop_
  _atom_site_type_symbol
  _atom_site_label
  _atom_site_symmetry_multiplicity
  _atom_site_fract_x
  _atom_site_fract_y
  _atom_site_fract_z
  _atom_site_occupancy
  Cu  Cu1       1.0  0.12426  0.25001  0.75029  1.0000
  Cu  Cu2       1.0  0.87574  0.74998  0.24970  1.0000
  H   H1        1.0  0.71811  0.55467  0.14701  1.0000
  H   H2        1.0  0.77298  0.14703  0.94522  1.0000
  H   H3        1.0  0.41943  0.94575  0.35282  1.0000
  H   H4        1.0  0.86372  0.35297  0.55474  1.0000
  H   H5        1.0  0.28185  0.44533  0.85298  1.0000
  H   H6        1.0  0.22707  0.85297  0.05478  1.0000
  H   H7        1.0  0.58053  0.05424  0.64718  1.0000
  H   H8        1.0  0.13634  0.64703  0.44526  1.0000
  C   C1        1.0  0.74464  0.57542  0.00644  1.0000
  C   C2        1.0  0.81996  0.00648  0.92455  1.0000
  C   C3        1.0  0.32592  0.92463  0.49336  1.0000
  C   C4        1.0  0.75046  0.49355  0.57539  1.0000
  C   C5        1.0  0.25530  0.42458  0.99355  1.0000
  C   C6        1.0  0.18008  0.99354  0.07545  1.0000
  C   C7        1.0  0.67405  0.07537  0.50665  1.0000
  C   C8        1.0  0.24959  0.50645  0.42461  1.0000
  C   C9        1.0  0.84171  0.52949  0.08326  1.0000
  C   C10       1.0  0.87125  0.08328  0.97045  1.0000
  C   C11       1.0  0.45418  0.97077  0.41662  1.0000
  C   C12       1.0  0.92414  0.41670  0.52955  1.0000
  C   C13       1.0  0.15823  0.47051  0.91672  1.0000
  C   C14       1.0  0.12879  0.91672  0.02955  1.0000
  C   C15       1.0  0.54578  0.02923  0.58338  1.0000
  C   C16       1.0  0.07591  0.58330  0.47045  1.0000
  C   C17       1.0  0.91573  0.54305  0.92220  1.0000
  C   C18       1.0  0.95850  0.92222  0.95704  1.0000
  C   C19       1.0  0.38038  0.95680  0.57772  1.0000
  C   C20       1.0  0.83810  0.57781  0.54291  1.0000
  C   C21       1.0  0.08421  0.45695  0.07779  1.0000
  C   C22       1.0  0.04154  0.07779  0.04296  1.0000
  C   C23       1.0  0.61957  0.04319  0.42228  1.0000
  C   C24       1.0  0.16196  0.42219  0.45709  1.0000
  C   C25       1.0  0.33783  0.67959  0.08108  1.0000
  C   C26       1.0  0.51655  0.08121  0.82048  1.0000
  C   C27       1.0  0.09804  0.82051  0.41847  1.0000
  C   C28       1.0  0.41755  0.41887  0.67963  1.0000
  C   C29       1.0  0.66214  0.32041  0.91891  1.0000
  C   C30       1.0  0.48349  0.91880  0.17952  1.0000
  C   C31       1.0  0.90194  0.17948  0.58153  1.0000
  C   C32       1.0  0.58247  0.58113  0.32036  1.0000
  Br  Br1       1.0  0.79986  0.60106  0.81868  1.0000
  Br  Br2       1.0  0.89997  0.81868  0.89922  1.0000
  Br  Br3       1.0  0.21809  0.89854  0.68106  1.0000
  Br  Br4       1.0  0.61891  0.68123  0.60098  1.0000
  Br  Br5       1.0  0.20008  0.39894  0.18132  1.0000
  Br  Br6       1.0  0.10010  0.18132  0.10078  1.0000
  Br  Br7       1.0  0.78184  0.10145  0.31894  1.0000
  Br  Br8       1.0  0.38113  0.31876  0.39902  1.0000
  N   N1        1.0  0.17347  0.71965  0.14067  1.0000
  N   N2        1.0  0.38945  0.14075  0.78085  1.0000
  N   N3        1.0  0.03233  0.78064  0.35889  1.0000
  N   N4        1.0  0.31073  0.35928  0.71936  1.0000
  N   N5        1.0  0.82653  0.28035  0.85933  1.0000
  N   N6        1.0  0.61057  0.85926  0.21915  1.0000
  N   N7        1.0  0.96766  0.21936  0.64112  1.0000
  N   N8        1.0  0.68929  0.64071  0.28063  1.0000
  N   N9        1.0  0.50422  0.64560  0.00945  1.0000
  N   N10       1.0  0.65012  0.00955  0.85431  1.0000
  N   N11       1.0  0.15926  0.85434  0.49016  1.0000
  N   N12       1.0  0.51343  0.49054  0.64569  1.0000
  N   N13       1.0  0.49572  0.35439  0.99054  1.0000
  N   N14       1.0  0.34992  0.99046  0.14570  1.0000
  N   N15       1.0  0.84070  0.14565  0.50984  1.0000
  N   N16       1.0  0.48661  0.50945  0.35431  1.0000
