data_image0
_chemical_formula_structural       Hg2H16C18S2N4O4
_chemical_formula_sum              "Hg2 H16 C18 S2 N4 O4"
_cell_length_a       8.42209
_cell_length_b       8.61789
_cell_length_c       8.86026
_cell_angle_alpha    112.712
_cell_angle_beta     107.126
_cell_angle_gamma    98.8662

_space_group_name_H-M_alt    "P 1"
_space_group_IT_number       1

loop_
  _space_group_symop_operation_xyz
  'x, y, z'

loop_
  _atom_site_type_symbol
  _atom_site_label
  _atom_site_symmetry_multiplicity
  _atom_site_fract_x
  _atom_site_fract_y
  _atom_site_fract_z
  _atom_site_occupancy
  Hg  Hg1       1.0  0.67490  0.20735  0.25461  1.0000
  Hg  Hg2       1.0  0.32511  0.79266  0.74541  1.0000
  H   H1        1.0  0.42465  0.85229  0.17333  1.0000
  H   H2        1.0  0.57537  0.14772  0.82667  1.0000
  H   H3        1.0  0.17689  0.74541  0.24733  1.0000
  H   H4        1.0  0.82312  0.25459  0.75266  1.0000
  H   H5        1.0  0.26543  0.29237  0.60470  1.0000
  H   H6        1.0  0.73457  0.70762  0.39530  1.0000
  H   H7        1.0  0.50585  0.37323  0.52095  1.0000
  H   H8        1.0  0.49415  0.62677  0.47905  1.0000
  H   H9        1.0  0.14955  0.27824  0.87990  1.0000
  H   H10       1.0  0.85044  0.72174  0.12011  1.0000
  H   H11       1.0  0.31201  0.47877  0.95012  1.0000
  H   H12       1.0  0.68796  0.52121  0.04986  1.0000
  H   H13       1.0  0.21750  0.45698  0.09860  1.0000
  H   H14       1.0  0.78249  0.54301  0.90140  1.0000
  H   H15       1.0  0.00412  0.80702  0.42498  1.0000
  H   H16       1.0  0.99588  0.19296  0.57501  1.0000
  C   C1        1.0  0.38158  0.94288  0.26641  1.0000
  C   C2        1.0  0.61843  0.05712  0.73358  1.0000
  C   C3        1.0  0.24410  0.88603  0.30736  1.0000
  C   C4        1.0  0.75590  0.11396  0.69263  1.0000
  C   C5        1.0  0.19286  0.00942  0.42661  1.0000
  C   C6        1.0  0.80714  0.99057  0.57338  1.0000
  C   C7        1.0  0.29014  0.18838  0.50484  1.0000
  C   C8        1.0  0.70986  0.81161  0.49516  1.0000
  C   C9        1.0  0.42691  0.23608  0.45928  1.0000
  C   C10       1.0  0.57309  0.76391  0.54072  1.0000
  C   C11       1.0  0.04444  0.94810  0.46335  1.0000
  C   C12       1.0  0.95557  0.05189  0.53664  1.0000
  C   C13       1.0  0.40237  0.31345  0.06329  1.0000
  C   C14       1.0  0.59763  0.68656  0.93672  1.0000
  C   C15       1.0  0.26003  0.38549  0.99313  1.0000
  C   C16       1.0  0.73995  0.61449  0.00687  1.0000
  C   C17       1.0  0.05185  0.40241  0.31067  1.0000
  C   C18       1.0  0.94815  0.59762  0.68936  1.0000
  S   S1        1.0  0.92723  0.19572  0.17625  1.0000
  S   S2        1.0  0.07278  0.80430  0.82377  1.0000
  N   N1        1.0  0.47058  0.11535  0.34071  1.0000
  N   N2        1.0  0.52943  0.88466  0.65930  1.0000
  N   N3        1.0  0.14692  0.54768  0.40281  1.0000
  N   N4        1.0  0.85308  0.45234  0.59720  1.0000
  O   O1        1.0  0.52229  0.41621  0.21712  1.0000
  O   O2        1.0  0.47770  0.58379  0.78288  1.0000
  O   O3        1.0  0.39919  0.15756  0.96912  1.0000
  O   O4        1.0  0.60082  0.84245  0.03088  1.0000
