data_image0
_chemical_formula_structural       Cu2H8C32N16Cl8
_chemical_formula_sum              "Cu2 H8 C32 N16 Cl8"
_cell_length_a       3.85817
_cell_length_b       15.3636
_cell_length_c       15.3521
_cell_angle_alpha    89.0773
_cell_angle_beta     82.7753
_cell_angle_gamma    82.7824

_space_group_name_H-M_alt    "P 1"
_space_group_IT_number       1

loop_
  _space_group_symop_operation_xyz
  'x, y, z'

loop_
  _atom_site_type_symbol
  _atom_site_label
  _atom_site_symmetry_multiplicity
  _atom_site_fract_x
  _atom_site_fract_y
  _atom_site_fract_z
  _atom_site_occupancy
  Cu  Cu1       1.0  0.87616  0.74996  0.24990  1.0000
  Cu  Cu2       1.0  0.12385  0.25004  0.75011  1.0000
  H   H1        1.0  0.70514  0.55410  0.14635  1.0000
  H   H2        1.0  0.75970  0.14637  0.94591  1.0000
  H   H3        1.0  0.40580  0.94605  0.35352  1.0000
  H   H4        1.0  0.85135  0.35361  0.55378  1.0000
  H   H5        1.0  0.29490  0.44590  0.85365  1.0000
  H   H6        1.0  0.24027  0.85362  0.05409  1.0000
  H   H7        1.0  0.59424  0.05395  0.64649  1.0000
  H   H8        1.0  0.14860  0.64639  0.44622  1.0000
  C   C1        1.0  0.74513  0.57626  0.00585  1.0000
  C   C2        1.0  0.82099  0.00597  0.92376  1.0000
  C   C3        1.0  0.32792  0.92370  0.49405  1.0000
  C   C4        1.0  0.75038  0.49396  0.57619  1.0000
  C   C5        1.0  0.25490  0.42374  0.99415  1.0000
  C   C6        1.0  0.17897  0.99402  0.07624  1.0000
  C   C7        1.0  0.67212  0.07630  0.50596  1.0000
  C   C8        1.0  0.24958  0.50604  0.42380  1.0000
  C   C9        1.0  0.83413  0.52935  0.08283  1.0000
  C   C10       1.0  0.86357  0.08286  0.97072  1.0000
  C   C11       1.0  0.44619  0.97079  0.41707  1.0000
  C   C12       1.0  0.91680  0.41714  0.52912  1.0000
  C   C13       1.0  0.16589  0.47065  0.91717  1.0000
  C   C14       1.0  0.13639  0.91714  0.02928  1.0000
  C   C15       1.0  0.55384  0.02921  0.58293  1.0000
  C   C16       1.0  0.08314  0.58287  0.47088  1.0000
  C   C17       1.0  0.92290  0.54410  0.92175  1.0000
  C   C18       1.0  0.96636  0.92182  0.95588  1.0000
  C   C19       1.0  0.38929  0.95574  0.57825  1.0000
  C   C20       1.0  0.84400  0.57812  0.54420  1.0000
  C   C21       1.0  0.07714  0.45591  0.07825  1.0000
  C   C22       1.0  0.03361  0.07818  0.04412  1.0000
  C   C23       1.0  0.61074  0.04426  0.42175  1.0000
  C   C24       1.0  0.15596  0.42188  0.45580  1.0000
  C   C25       1.0  0.33605  0.68158  0.07947  1.0000
  C   C26       1.0  0.51642  0.07970  0.81848  1.0000
  C   C27       1.0  0.09836  0.81839  0.42031  1.0000
  C   C28       1.0  0.41466  0.42017  0.68148  1.0000
  C   C29       1.0  0.66397  0.31842  0.92054  1.0000
  C   C30       1.0  0.48355  0.92030  0.18151  1.0000
  C   C31       1.0  0.90170  0.18162  0.57969  1.0000
  C   C32       1.0  0.58531  0.57984  0.31853  1.0000
  N   N1        1.0  0.17241  0.72169  0.13941  1.0000
  N   N2        1.0  0.38985  0.13943  0.77866  1.0000
  N   N3        1.0  0.03249  0.77854  0.36047  1.0000
  N   N4        1.0  0.30826  0.36039  0.72127  1.0000
  N   N5        1.0  0.82761  0.27830  0.86059  1.0000
  N   N6        1.0  0.61018  0.86057  0.22134  1.0000
  N   N7        1.0  0.96754  0.22146  0.63953  1.0000
  N   N8        1.0  0.69175  0.63961  0.27874  1.0000
  N   N9        1.0  0.50565  0.64753  0.00794  1.0000
  N   N10       1.0  0.65282  0.00820  0.85245  1.0000
  N   N11       1.0  0.16286  0.85233  0.49187  1.0000
  N   N12       1.0  0.51341  0.49169  0.64755  1.0000
  N   N13       1.0  0.49436  0.35247  0.99206  1.0000
  N   N14       1.0  0.34713  0.99180  0.14755  1.0000
  N   N15       1.0  0.83718  0.14767  0.50814  1.0000
  N   N16       1.0  0.48654  0.50831  0.35244  1.0000
  Cl  Cl1       1.0  0.82501  0.59861  0.82807  1.0000
  Cl  Cl2       1.0  0.92191  0.82833  0.90134  1.0000
  Cl  Cl3       1.0  0.25224  0.90108  0.67181  1.0000
  Cl  Cl4       1.0  0.65167  0.67158  0.59885  1.0000
  Cl  Cl5       1.0  0.17502  0.40139  0.17192  1.0000
  Cl  Cl6       1.0  0.07805  0.17167  0.09866  1.0000
  Cl  Cl7       1.0  0.74780  0.09892  0.32819  1.0000
  Cl  Cl8       1.0  0.34829  0.32842  0.40114  1.0000
