data_image0
_chemical_formula_structural       ZnAg2H32C28N10O4
_chemical_formula_sum              "Zn1 Ag2 H32 C28 N10 O4"
_cell_length_a       7.17872
_cell_length_b       9.50989
_cell_length_c       12.4794
_cell_angle_alpha    98.6379
_cell_angle_beta     95.4972
_cell_angle_gamma    114.095

_space_group_name_H-M_alt    "P 1"
_space_group_IT_number       1

loop_
  _space_group_symop_operation_xyz
  'x, y, z'

loop_
  _atom_site_type_symbol
  _atom_site_label
  _atom_site_symmetry_multiplicity
  _atom_site_fract_x
  _atom_site_fract_y
  _atom_site_fract_z
  _atom_site_occupancy
  Zn  Zn1       1.0  0.50000  0.00000  1.00000  1.0000
  Ag  Ag1       1.0  0.75181  0.55499  0.94790  1.0000
  Ag  Ag2       1.0  0.24819  0.44500  0.05210  1.0000
  H   H1        1.0  0.40707  0.05972  0.23175  1.0000
  H   H2        1.0  0.59293  0.94028  0.76825  1.0000
  H   H3        1.0  0.60260  0.17103  0.42388  1.0000
  H   H4        1.0  0.39741  0.82897  0.57612  1.0000
  H   H5        1.0  0.15578  0.20943  0.29314  1.0000
  H   H6        1.0  0.84422  0.79057  0.70686  1.0000
  H   H7        1.0  0.93488  0.09914  0.10633  1.0000
  H   H8        1.0  0.06512  0.90086  0.89367  1.0000
  H   H9        1.0  0.21963  0.60119  0.73419  1.0000
  H   H10       1.0  0.78037  0.39881  0.26581  1.0000
  H   H11       1.0  0.22245  0.49324  0.83814  1.0000
  H   H12       1.0  0.77754  0.50676  0.16185  1.0000
  H   H13       1.0  0.98683  0.49408  0.78187  1.0000
  H   H14       1.0  0.01316  0.50592  0.21813  1.0000
  H   H15       1.0  0.79804  0.20771  0.72624  1.0000
  H   H16       1.0  0.20196  0.79229  0.27376  1.0000
  H   H17       1.0  0.01427  0.19189  0.79415  1.0000
  H   H18       1.0  0.98573  0.80811  0.20585  1.0000
  H   H19       1.0  0.90612  0.09035  0.65428  1.0000
  H   H20       1.0  0.09388  0.90965  0.34572  1.0000
  H   H21       1.0  0.57302  0.47673  0.59719  1.0000
  H   H22       1.0  0.42697  0.52327  0.40281  1.0000
  H   H23       1.0  0.51906  0.56251  0.71968  1.0000
  H   H24       1.0  0.48093  0.43749  0.28032  1.0000
  H   H25       1.0  0.39193  0.56165  0.58940  1.0000
  H   H26       1.0  0.60806  0.43835  0.41060  1.0000
  H   H27       1.0  0.25195  0.12230  0.69679  1.0000
  H   H28       1.0  0.74805  0.87771  0.30321  1.0000
  H   H29       1.0  0.42121  0.30301  0.78806  1.0000
  H   H30       1.0  0.57879  0.69700  0.21194  1.0000
  H   H31       1.0  0.49954  0.23855  0.66635  1.0000
  H   H32       1.0  0.50046  0.76146  0.33365  1.0000
  C   C1        1.0  0.74948  0.34041  0.94925  1.0000
  C   C2        1.0  0.25054  0.65958  0.05075  1.0000
  C   C3        1.0  0.71256  0.75502  0.95049  1.0000
  C   C4        1.0  0.28744  0.24497  0.04951  1.0000
  C   C5        1.0  0.57322  0.09453  0.24967  1.0000
  C   C6        1.0  0.42678  0.90547  0.75033  1.0000
  C   C7        1.0  0.68316  0.15633  0.35651  1.0000
  C   C8        1.0  0.31685  0.84367  0.64349  1.0000
  C   C9        1.0  0.89794  0.20051  0.37429  1.0000
  C   C10       1.0  0.10207  0.79949  0.62571  1.0000
  C   C11       1.0  0.99088  0.17845  0.28310  1.0000
  C   C12       1.0  0.00913  0.82155  0.71690  1.0000
  C   C13       1.0  0.86864  0.11681  0.17928  1.0000
  C   C14       1.0  0.13136  0.88318  0.82072  1.0000
  C   C15       1.0  0.01876  0.26349  0.48465  1.0000
  C   C16       1.0  0.98123  0.73651  0.51535  1.0000
  C   C17       1.0  0.08625  0.34654  0.67749  1.0000
  C   C18       1.0  0.91375  0.65346  0.32251  1.0000
  C   C19       1.0  0.27974  0.33394  0.63923  1.0000
  C   C20       1.0  0.72026  0.66606  0.36077  1.0000
  C   C21       1.0  0.13199  0.49339  0.76209  1.0000
  C   C22       1.0  0.86800  0.50661  0.23792  1.0000
  C   C23       1.0  0.94256  0.19880  0.71456  1.0000
  C   C24       1.0  0.05744  0.80120  0.28544  1.0000
  C   C25       1.0  0.45100  0.49440  0.63526  1.0000
  C   C26       1.0  0.54899  0.50560  0.36473  1.0000
  C   C27       1.0  0.36693  0.24270  0.70118  1.0000
  C   C28       1.0  0.63307  0.75731  0.29882  1.0000
  N   N1        1.0  0.72494  0.21303  0.95717  1.0000
  N   N2        1.0  0.27507  0.78697  0.04283  1.0000
  N   N3        1.0  0.67811  0.86582  0.95602  1.0000
  N   N4        1.0  0.32190  0.13417  0.04398  1.0000
  N   N5        1.0  0.66393  0.07620  0.16254  1.0000
  N   N6        1.0  0.33608  0.92380  0.83746  1.0000
  N   N7        1.0  0.97140  0.34533  0.56878  1.0000
  N   N8        1.0  0.02860  0.65467  0.43122  1.0000
  N   N9        1.0  0.18847  0.24428  0.52146  1.0000
  N   N10       1.0  0.81153  0.75572  0.47854  1.0000
  O   O1        1.0  0.82839  0.39221  0.56236  1.0000
  O   O2        1.0  0.17160  0.60778  0.43764  1.0000
  O   O3        1.0  0.27399  0.16997  0.46595  1.0000
  O   O4        1.0  0.72601  0.83004  0.53405  1.0000
