data_image0
_chemical_formula_structural       CdAg2H32C28N10O4
_chemical_formula_sum              "Cd1 Ag2 H32 C28 N10 O4"
_cell_length_a       7.19786
_cell_length_b       9.39504
_cell_length_c       12.7839
_cell_angle_alpha    75.6317
_cell_angle_beta     86.6861
_cell_angle_gamma    70.5486

_space_group_name_H-M_alt    "P 1"
_space_group_IT_number       1

loop_
  _space_group_symop_operation_xyz
  'x, y, z'

loop_
  _atom_site_type_symbol
  _atom_site_label
  _atom_site_symmetry_multiplicity
  _atom_site_fract_x
  _atom_site_fract_y
  _atom_site_fract_z
  _atom_site_occupancy
  Cd  Cd1       1.0  0.50000  0.50000  0.00000  1.0000
  Ag  Ag1       1.0  0.80524  0.95054  0.94637  1.0000
  Ag  Ag2       1.0  0.19476  0.04946  0.05362  1.0000
  H   H1        1.0  0.15267  0.40461  0.11790  1.0000
  H   H2        1.0  0.84733  0.59539  0.88210  1.0000
  H   H3        1.0  0.04426  0.29621  0.30005  1.0000
  H   H4        1.0  0.95574  0.70379  0.69995  1.0000
  H   H5        1.0  0.57232  0.31731  0.43359  1.0000
  H   H6        1.0  0.42769  0.68269  0.56641  1.0000
  H   H7        1.0  0.65602  0.42559  0.24577  1.0000
  H   H8        1.0  0.34398  0.57441  0.75423  1.0000
  H   H9        1.0  0.37903  0.90560  0.73674  1.0000
  H   H10       1.0  0.62097  0.09440  0.26326  1.0000
  H   H11       1.0  0.26406  0.00301  0.83797  1.0000
  H   H12       1.0  0.73594  0.99699  0.16203  1.0000
  H   H13       1.0  0.49660  0.01248  0.78996  1.0000
  H   H14       1.0  0.50340  0.98752  0.21004  1.0000
  H   H15       1.0  0.39755  0.29604  0.73321  1.0000
  H   H16       1.0  0.60245  0.70397  0.26679  1.0000
  H   H17       1.0  0.16960  0.30498  0.79555  1.0000
  H   H18       1.0  0.83040  0.69502  0.20445  1.0000
  H   H19       1.0  0.17329  0.41066  0.65852  1.0000
  H   H20       1.0  0.82671  0.58934  0.34148  1.0000
  H   H21       1.0  0.90041  0.02428  0.59530  1.0000
  H   H22       1.0  0.09959  0.97572  0.40470  1.0000
  H   H23       1.0  0.03730  0.93869  0.71924  1.0000
  H   H24       1.0  0.96269  0.06131  0.28076  1.0000
  H   H25       1.0  0.16323  0.94286  0.59480  1.0000
  H   H26       1.0  0.83677  0.05714  0.40520  1.0000
  H   H27       1.0  0.86410  0.37519  0.68781  1.0000
  H   H28       1.0  0.13590  0.62481  0.31219  1.0000
  H   H29       1.0  0.87712  0.19539  0.77994  1.0000
  H   H30       1.0  0.12289  0.80461  0.22006  1.0000
  H   H31       1.0  0.73583  0.25641  0.65766  1.0000
  H   H32       1.0  0.26417  0.74359  0.34234  1.0000
  C   C1        1.0  0.59149  0.15449  0.95147  1.0000
  C   C2        1.0  0.40851  0.84551  0.04852  1.0000
  C   C3        1.0  0.03395  0.75551  0.94286  1.0000
  C   C4        1.0  0.96606  0.24449  0.05714  1.0000
  C   C5        1.0  0.24073  0.38340  0.19015  1.0000
  C   C6        1.0  0.75927  0.61660  0.80986  1.0000
  C   C7        1.0  0.18105  0.32258  0.29172  1.0000
  C   C8        1.0  0.81895  0.67742  0.70828  1.0000
  C   C9        1.0  0.29930  0.29723  0.38274  1.0000
  C   C10       1.0  0.70070  0.70277  0.61726  1.0000
  C   C11       1.0  0.47409  0.33506  0.36649  1.0000
  C   C12       1.0  0.52591  0.66493  0.63351  1.0000
  C   C13       1.0  0.52154  0.39557  0.26180  1.0000
  C   C14       1.0  0.47846  0.60443  0.73820  1.0000
  C   C15       1.0  0.24074  0.23822  0.49105  1.0000
  C   C16       1.0  0.75926  0.76178  0.50896  1.0000
  C   C17       1.0  0.25168  0.15790  0.68172  1.0000
  C   C18       1.0  0.74832  0.84210  0.31828  1.0000
  C   C19       1.0  0.04874  0.16704  0.63897  1.0000
  C   C20       1.0  0.95126  0.83296  0.36103  1.0000
  C   C21       1.0  0.35415  0.01029  0.76585  1.0000
  C   C22       1.0  0.64585  0.98971  0.23415  1.0000
  C   C23       1.0  0.24593  0.30235  0.71888  1.0000
  C   C24       1.0  0.75407  0.69765  0.28111  1.0000
  C   C25       1.0  0.03813  0.00776  0.63633  1.0000
  C   C26       1.0  0.96187  0.99224  0.36366  1.0000
  C   C27       1.0  0.87071  0.25536  0.69400  1.0000
  C   C28       1.0  0.12928  0.74464  0.30600  1.0000
  N   N1        1.0  0.47741  0.27376  0.95939  1.0000
  N   N2        1.0  0.52259  0.72624  0.04060  1.0000
  N   N3        1.0  0.16848  0.64259  0.94430  1.0000
  N   N4        1.0  0.83153  0.35740  0.05571  1.0000
  N   N5        1.0  0.40783  0.41908  0.17514  1.0000
  N   N6        1.0  0.59217  0.58092  0.82486  1.0000
  N   N7        1.0  0.36550  0.16438  0.57837  1.0000
  N   N8        1.0  0.63450  0.83562  0.42163  1.0000
  N   N9        1.0  0.05237  0.25517  0.52239  1.0000
  N   N10       1.0  0.94763  0.74483  0.47761  1.0000
  O   O1        1.0  0.55371  0.11670  0.57839  1.0000
  O   O2        1.0  0.44628  0.88330  0.42161  1.0000
  O   O3        1.0  0.89522  0.32882  0.46384  1.0000
  O   O4        1.0  0.10478  0.67119  0.53617  1.0000
