data_image0
_chemical_formula_structural       U4H24C32O24
_chemical_formula_sum              "U4 H24 C32 O24"
_cell_length_a       7.78195
_cell_length_b       9.456
_cell_length_c       13.1967
_cell_angle_alpha    77.6929
_cell_angle_beta     87.403
_cell_angle_gamma    82.9905

_space_group_name_H-M_alt    "P 1"
_space_group_IT_number       1

loop_
  _space_group_symop_operation_xyz
  'x, y, z'

loop_
  _atom_site_type_symbol
  _atom_site_label
  _atom_site_symmetry_multiplicity
  _atom_site_fract_x
  _atom_site_fract_y
  _atom_site_fract_z
  _atom_site_occupancy
  U   U1        1.0  0.64467  0.82703  0.52071  1.0000
  U   U2        1.0  0.35576  0.17261  0.47935  1.0000
  U   U3        1.0  0.13547  0.88552  0.42289  1.0000
  U   U4        1.0  0.86477  0.11453  0.57707  1.0000
  H   H1        1.0  0.82347  0.64715  0.70812  1.0000
  H   H2        1.0  0.17693  0.35367  0.29199  1.0000
  H   H3        1.0  0.96109  0.63505  0.61923  1.0000
  H   H4        1.0  0.03938  0.36512  0.38100  1.0000
  H   H5        1.0  0.34656  0.57801  0.38510  1.0000
  H   H6        1.0  0.65143  0.42173  0.61583  1.0000
  H   H7        1.0  0.40065  0.70966  0.30055  1.0000
  H   H8        1.0  0.59772  0.28847  0.69939  1.0000
  H   H9        1.0  0.04294  0.92668  0.90371  1.0000
  H   H10       1.0  0.95707  0.07495  0.09760  1.0000
  H   H11       1.0  0.16229  0.83259  0.08228  1.0000
  H   H12       1.0  0.83876  0.16858  0.91872  1.0000
  H   H13       1.0  0.67879  0.83577  0.95337  1.0000
  H   H14       1.0  0.32147  0.16334  0.04642  1.0000
  H   H15       1.0  0.48069  0.78030  0.10481  1.0000
  H   H16       1.0  0.52037  0.21946  0.89544  1.0000
  H   H17       1.0  0.91004  0.65977  0.00402  1.0000
  H   H18       1.0  0.08892  0.33957  0.99505  1.0000
  H   H19       1.0  0.71578  0.46364  0.01847  1.0000
  H   H20       1.0  0.28358  0.53522  0.98143  1.0000
  H   H21       1.0  0.97156  0.74771  0.16316  1.0000
  H   H22       1.0  0.02751  0.25270  0.83534  1.0000
  H   H23       1.0  0.60310  0.34734  0.19201  1.0000
  H   H24       1.0  0.39725  0.65203  0.80823  1.0000
  C   C1        1.0  0.60064  0.93611  0.75366  1.0000
  C   C2        1.0  0.39878  0.06339  0.24637  1.0000
  C   C3        1.0  0.22093  0.99640  0.72475  1.0000
  C   C4        1.0  0.77872  0.00433  0.27586  1.0000
  C   C5        1.0  0.72959  0.47762  0.27403  1.0000
  C   C6        1.0  0.27071  0.52243  0.72566  1.0000
  C   C7        1.0  0.47438  0.91239  0.84366  1.0000
  C   C8        1.0  0.52536  0.08734  0.15663  1.0000
  C   C9        1.0  0.83224  0.59257  0.26553  1.0000
  C   C10       1.0  0.16782  0.40777  0.73366  1.0000
  C   C11       1.0  0.18223  0.90558  0.91603  1.0000
  C   C12       1.0  0.81788  0.09543  0.08484  1.0000
  C   C13       1.0  0.24876  0.85125  0.01481  1.0000
  C   C14       1.0  0.75186  0.14939  0.98592  1.0000
  C   C15       1.0  0.53939  0.85453  0.94267  1.0000
  C   C16       1.0  0.46085  0.14501  0.05748  1.0000
  C   C17       1.0  0.86499  0.65317  0.35684  1.0000
  C   C18       1.0  0.13556  0.34751  0.64218  1.0000
  C   C19       1.0  0.68707  0.38486  0.37689  1.0000
  C   C20       1.0  0.31354  0.61512  0.62287  1.0000
  C   C21       1.0  0.42756  0.82321  0.02795  1.0000
  C   C22       1.0  0.57312  0.17672  0.97243  1.0000
  C   C23       1.0  0.29359  0.93587  0.82955  1.0000
  C   C24       1.0  0.70608  0.06460  0.17104  1.0000
  C   C25       1.0  0.85639  0.61047  0.07923  1.0000
  C   C26       1.0  0.14285  0.38916  0.91997  1.0000
  C   C27       1.0  0.74861  0.50031  0.08734  1.0000
  C   C28       1.0  0.25099  0.49895  0.91236  1.0000
  C   C29       1.0  0.89441  0.65799  0.16765  1.0000
  C   C30       1.0  0.10491  0.34219  0.83128  1.0000
  C   C31       1.0  0.68419  0.43528  0.18440  1.0000
  C   C32       1.0  0.31590  0.56432  0.81550  1.0000
  O   O1        1.0  0.37989  0.92393  0.47937  1.0000
  O   O2        1.0  0.62062  0.07579  0.52076  1.0000
  O   O3        1.0  0.61582  0.83888  0.69837  1.0000
  O   O4        1.0  0.38297  0.16063  0.30165  1.0000
  O   O5        1.0  0.84053  0.61780  0.64162  1.0000
  O   O6        1.0  0.16002  0.38231  0.35874  1.0000
  O   O7        1.0  0.81724  0.32396  0.43267  1.0000
  O   O8        1.0  0.18340  0.67607  0.56708  1.0000
  O   O9        1.0  0.69192  0.04105  0.74023  1.0000
  O   O10       1.0  0.30764  0.95837  0.25961  1.0000
  O   O11       1.0  0.32144  0.06415  0.65698  1.0000
  O   O12       1.0  0.67848  0.93598  0.34349  1.0000
  O   O13       1.0  0.99913  0.71892  0.35509  1.0000
  O   O14       1.0  0.00139  0.28204  0.64351  1.0000
  O   O15       1.0  0.53044  0.36352  0.39810  1.0000
  O   O16       1.0  0.47027  0.63600  0.60151  1.0000
  O   O17       1.0  0.06489  0.98041  0.70840  1.0000
  O   O18       1.0  0.93448  0.02091  0.29234  1.0000
  O   O19       1.0  0.36126  0.68176  0.37223  1.0000
  O   O20       1.0  0.63881  0.31764  0.62816  1.0000
  O   O21       1.0  0.90196  0.89412  0.52826  1.0000
  O   O22       1.0  0.09820  0.10575  0.47216  1.0000
  O   O23       1.0  0.75220  0.64333  0.43075  1.0000
  O   O24       1.0  0.24906  0.35721  0.56863  1.0000
