data_image0
_chemical_formula_structural       Zn4H44C56N20O24
_chemical_formula_sum              "Zn4 H44 C56 N20 O24"
_cell_length_a       8.664
_cell_length_b       9.57586
_cell_length_c       19.0769
_cell_angle_alpha    100.564
_cell_angle_beta     90.0001
_cell_angle_gamma    90.0001

_space_group_name_H-M_alt    "P 1"
_space_group_IT_number       1

loop_
  _space_group_symop_operation_xyz
  'x, y, z'

loop_
  _atom_site_type_symbol
  _atom_site_label
  _atom_site_symmetry_multiplicity
  _atom_site_fract_x
  _atom_site_fract_y
  _atom_site_fract_z
  _atom_site_occupancy
  Zn  Zn1       1.0  0.37962  0.00037  0.87391  1.0000
  Zn  Zn2       1.0  0.87962  0.49964  0.62609  1.0000
  Zn  Zn3       1.0  0.62039  0.99963  0.12609  1.0000
  Zn  Zn4       1.0  0.12038  0.50037  0.37391  1.0000
  H   H1        1.0  0.36563  0.55516  0.89793  1.0000
  H   H2        1.0  0.86563  0.94484  0.60206  1.0000
  H   H3        1.0  0.63437  0.44484  0.10206  1.0000
  H   H4        1.0  0.13438  0.05516  0.39794  1.0000
  H   H5        1.0  0.07146  0.75981  0.06742  1.0000
  H   H6        1.0  0.57146  0.74019  0.43258  1.0000
  H   H7        1.0  0.92854  0.24019  0.93258  1.0000
  H   H8        1.0  0.42854  0.25981  0.56742  1.0000
  H   H9        1.0  0.18688  0.31719  0.05083  1.0000
  H   H10       1.0  0.68688  0.18281  0.44917  1.0000
  H   H11       1.0  0.81312  0.68281  0.94917  1.0000
  H   H12       1.0  0.31312  0.81719  0.55083  1.0000
  H   H13       1.0  0.23410  0.19950  0.76932  1.0000
  H   H14       1.0  0.73410  0.30050  0.73068  1.0000
  H   H15       1.0  0.76590  0.80050  0.23068  1.0000
  H   H16       1.0  0.26590  0.69950  0.26932  1.0000
  H   H17       1.0  0.03358  0.82249  0.65316  1.0000
  H   H18       1.0  0.53358  0.67751  0.84684  1.0000
  H   H19       1.0  0.96643  0.17751  0.34684  1.0000
  H   H20       1.0  0.46643  0.32249  0.15316  1.0000
  H   H21       1.0  0.21178  0.75686  0.76389  1.0000
  H   H22       1.0  0.71178  0.74314  0.73611  1.0000
  H   H23       1.0  0.78822  0.24314  0.23611  1.0000
  H   H24       1.0  0.28822  0.25686  0.26389  1.0000
  H   H25       1.0  0.64411  0.07732  0.76765  1.0000
  H   H26       1.0  0.14411  0.42268  0.73235  1.0000
  H   H27       1.0  0.35589  0.92268  0.23235  1.0000
  H   H28       1.0  0.85589  0.57732  0.26765  1.0000
  H   H29       1.0  0.95390  0.04502  0.80157  1.0000
  H   H30       1.0  0.45390  0.45498  0.69843  1.0000
  H   H31       1.0  0.04610  0.95498  0.19843  1.0000
  H   H32       1.0  0.54610  0.54502  0.30157  1.0000
  H   H33       1.0  0.67371  0.90047  0.95489  1.0000
  H   H34       1.0  0.17371  0.59954  0.54511  1.0000
  H   H35       1.0  0.32629  0.09953  0.04512  1.0000
  H   H36       1.0  0.82629  0.40046  0.45489  1.0000
  H   H37       1.0  0.05123  0.09471  0.66635  1.0000
  H   H38       1.0  0.55124  0.40529  0.83365  1.0000
  H   H39       1.0  0.94877  0.90529  0.33365  1.0000
  H   H40       1.0  0.44876  0.59471  0.16635  1.0000
  H   H41       1.0  0.94998  0.93540  0.91421  1.0000
  H   H42       1.0  0.44999  0.56460  0.58579  1.0000
  H   H43       1.0  0.05002  0.06460  0.08579  1.0000
  H   H44       1.0  0.55001  0.43540  0.41421  1.0000
  C   C1        1.0  0.28759  0.42173  0.97002  1.0000
  C   C2        1.0  0.78758  0.07827  0.52998  1.0000
  C   C3        1.0  0.71241  0.57827  0.02997  1.0000
  C   C4        1.0  0.21242  0.92173  0.47002  1.0000
  C   C5        1.0  0.30082  0.55094  0.94624  1.0000
  C   C6        1.0  0.80082  0.94906  0.55376  1.0000
  C   C7        1.0  0.69918  0.44906  0.05376  1.0000
  C   C8        1.0  0.19919  0.05094  0.44624  1.0000
  C   C9        1.0  0.22344  0.67264  0.98024  1.0000
  C   C10       1.0  0.72344  0.82736  0.51976  1.0000
  C   C11       1.0  0.77655  0.32736  0.01976  1.0000
  C   C12       1.0  0.27656  0.17264  0.48024  1.0000
  C   C13       1.0  0.13612  0.66757  0.04128  1.0000
  C   C14       1.0  0.63611  0.83243  0.45872  1.0000
  C   C15       1.0  0.86388  0.33244  0.95872  1.0000
  C   C16       1.0  0.36388  0.16757  0.54128  1.0000
  C   C17       1.0  0.13073  0.54015  0.06679  1.0000
  C   C18       1.0  0.63073  0.95986  0.43321  1.0000
  C   C19       1.0  0.86927  0.45985  0.93321  1.0000
  C   C20       1.0  0.36927  0.04015  0.56679  1.0000
  C   C21       1.0  0.20203  0.41629  0.03161  1.0000
  C   C22       1.0  0.70204  0.08371  0.46839  1.0000
  C   C23       1.0  0.79796  0.58371  0.96839  1.0000
  C   C24       1.0  0.29797  0.91629  0.53161  1.0000
  C   C25       1.0  0.35318  0.28929  0.92518  1.0000
  C   C26       1.0  0.85317  0.21071  0.57482  1.0000
  C   C27       1.0  0.64682  0.71071  0.07482  1.0000
  C   C28       1.0  0.14683  0.78929  0.42518  1.0000
  C   C29       1.0  0.22555  0.80479  0.94794  1.0000
  C   C30       1.0  0.72555  0.69521  0.55205  1.0000
  C   C31       1.0  0.77444  0.19521  0.05206  1.0000
  C   C32       1.0  0.27445  0.30479  0.44795  1.0000
  C   C33       1.0  0.20539  0.08819  0.75298  1.0000
  C   C34       1.0  0.70540  0.41181  0.74702  1.0000
  C   C35       1.0  0.79461  0.91180  0.24702  1.0000
  C   C36       1.0  0.29460  0.58819  0.25298  1.0000
  C   C37       1.0  0.10287  0.88970  0.69316  1.0000
  C   C38       1.0  0.60288  0.61030  0.80683  1.0000
  C   C39       1.0  0.89713  0.11030  0.30684  1.0000
  C   C40       1.0  0.39713  0.38970  0.19317  1.0000
  C   C41       1.0  0.19059  0.85843  0.74826  1.0000
  C   C42       1.0  0.69058  0.64157  0.75174  1.0000
  C   C43       1.0  0.80942  0.14157  0.25174  1.0000
  C   C44       1.0  0.30942  0.35843  0.24826  1.0000
  C   C45       1.0  0.69661  0.03650  0.81139  1.0000
  C   C46       1.0  0.19661  0.46350  0.68861  1.0000
  C   C47       1.0  0.30339  0.96350  0.18861  1.0000
  C   C48       1.0  0.80339  0.53650  0.31139  1.0000
  C   C49       1.0  0.84935  0.01867  0.82694  1.0000
  C   C50       1.0  0.34935  0.48133  0.67306  1.0000
  C   C51       1.0  0.15065  0.98133  0.17306  1.0000
  C   C52       1.0  0.65065  0.51867  0.32694  1.0000
  C   C53       1.0  0.70529  0.94350  0.90800  1.0000
  C   C54       1.0  0.20529  0.55650  0.59200  1.0000
  C   C55       1.0  0.29471  0.05650  0.09200  1.0000
  C   C56       1.0  0.79471  0.44350  0.40800  1.0000
  N   N1        1.0  0.03750  0.53323  0.13043  1.0000
  N   N2        1.0  0.53750  0.96677  0.36957  1.0000
  N   N3        1.0  0.96250  0.46677  0.86957  1.0000
  N   N4        1.0  0.46250  0.03323  0.63043  1.0000
  N   N5        1.0  0.25372  0.98330  0.78523  1.0000
  N   N6        1.0  0.75372  0.51670  0.71476  1.0000
  N   N7        1.0  0.74628  0.01670  0.21477  1.0000
  N   N8        1.0  0.24628  0.48330  0.28524  1.0000
  N   N9        1.0  0.11416  0.03477  0.69699  1.0000
  N   N10       1.0  0.61416  0.46523  0.80301  1.0000
  N   N11       1.0  0.88585  0.96523  0.30301  1.0000
  N   N12       1.0  0.38584  0.53477  0.19699  1.0000
  N   N13       1.0  0.60789  0.98880  0.86250  1.0000
  N   N14       1.0  0.10789  0.51119  0.63750  1.0000
  N   N15       1.0  0.39211  0.01119  0.13750  1.0000
  N   N16       1.0  0.89211  0.48880  0.36250  1.0000
  N   N17       1.0  0.85200  0.96023  0.88765  1.0000
  N   N18       1.0  0.35201  0.53977  0.61235  1.0000
  N   N19       1.0  0.14800  0.03977  0.11235  1.0000
  N   N20       1.0  0.64799  0.46023  0.38765  1.0000
  O   O1        1.0  0.31804  0.17153  0.94489  1.0000
  O   O2        1.0  0.81803  0.32847  0.55511  1.0000
  O   O3        1.0  0.68196  0.82847  0.05511  1.0000
  O   O4        1.0  0.18197  0.67153  0.44489  1.0000
  O   O5        1.0  0.43047  0.29708  0.87012  1.0000
  O   O6        1.0  0.93047  0.20292  0.62988  1.0000
  O   O7        1.0  0.56953  0.70292  0.12988  1.0000
  O   O8        1.0  0.06953  0.79708  0.37012  1.0000
  O   O9        1.0  0.35014  0.82306  0.91343  1.0000
  O   O10       1.0  0.85014  0.67694  0.58657  1.0000
  O   O11       1.0  0.64986  0.17694  0.08657  1.0000
  O   O12       1.0  0.14986  0.32306  0.41343  1.0000
  O   O13       1.0  0.11110  0.88543  0.95611  1.0000
  O   O14       1.0  0.61110  0.61457  0.54389  1.0000
  O   O15       1.0  0.88890  0.11457  0.04389  1.0000
  O   O16       1.0  0.38890  0.38543  0.45611  1.0000
  O   O17       1.0  0.97685  0.64528  0.16206  1.0000
  O   O18       1.0  0.47685  0.85472  0.33794  1.0000
  O   O19       1.0  0.02315  0.35472  0.83794  1.0000
  O   O20       1.0  0.52315  0.14529  0.66206  1.0000
  O   O21       1.0  0.02263  0.41650  0.14901  1.0000
  O   O22       1.0  0.52263  0.08350  0.35099  1.0000
  O   O23       1.0  0.97737  0.58350  0.85099  1.0000
  O   O24       1.0  0.47737  0.91650  0.64901  1.0000
