data_image0
_chemical_formula_structural       U4H8C24O32
_chemical_formula_sum              "U4 H8 C24 O32"
_cell_length_a       8.93006
_cell_length_b       8.93109
_cell_length_c       11.2609
_cell_angle_alpha    109.255
_cell_angle_beta     109.177
_cell_angle_gamma    99.7943

_space_group_name_H-M_alt    "P 1"
_space_group_IT_number       1

loop_
  _space_group_symop_operation_xyz
  'x, y, z'

loop_
  _atom_site_type_symbol
  _atom_site_label
  _atom_site_symmetry_multiplicity
  _atom_site_fract_x
  _atom_site_fract_y
  _atom_site_fract_z
  _atom_site_occupancy
  U   U1        1.0  0.59413  0.85203  0.45497  1.0000
  U   U2        1.0  0.39697  0.13913  0.54502  1.0000
  U   U3        1.0  0.38946  0.14623  0.04206  1.0000
  U   U4        1.0  0.10403  0.34723  0.95786  1.0000
  H   H1        1.0  0.81122  0.73520  0.68586  1.0000
  H   H2        1.0  0.04919  0.12514  0.31413  1.0000
  H   H3        1.0  0.37513  0.79647  0.81262  1.0000
  H   H4        1.0  0.98380  0.56244  0.18741  1.0000
  H   H5        1.0  0.62776  0.71867  0.68009  1.0000
  H   H6        1.0  0.03852  0.94748  0.31991  1.0000
  H   H7        1.0  0.19763  0.78893  0.81793  1.0000
  H   H8        1.0  0.97107  0.37967  0.18217  1.0000
  C   C1        1.0  0.90781  0.73914  0.39331  1.0000
  C   C2        1.0  0.34579  0.51449  0.60668  1.0000
  C   C3        1.0  0.76636  0.09644  0.10877  1.0000
  C   C4        1.0  0.98778  0.65758  0.89141  1.0000
  C   C5        1.0  0.82701  0.48385  0.43992  1.0000
  C   C6        1.0  0.04378  0.38701  0.55989  1.0000
  C   C7        1.0  0.63775  0.79439  0.06066  1.0000
  C   C8        1.0  0.73371  0.57713  0.93946  1.0000
  C   C9        1.0  0.94991  0.61102  0.44654  1.0000
  C   C10       1.0  0.16442  0.50333  0.55330  1.0000
  C   C11       1.0  0.75475  0.91501  0.05471  1.0000
  C   C12       1.0  0.86044  0.70006  0.94549  1.0000
  C   C13       1.0  0.24773  0.74767  0.49991  1.0000
  C   C14       1.0  0.99846  0.99833  0.00014  1.0000
  C   C15       1.0  0.74452  0.24461  0.49983  1.0000
  C   C16       1.0  0.49502  0.49511  0.00013  1.0000
  C   C17       1.0  0.11772  0.61769  0.49988  1.0000
  C   C18       1.0  0.86831  0.86819  0.00016  1.0000
  C   C19       1.0  0.87509  0.37510  0.49985  1.0000
  C   C20       1.0  0.62544  0.62547  0.00011  1.0000
  C   C21       1.0  0.64585  0.45037  0.35401  1.0000
  C   C22       1.0  0.09622  0.29181  0.64583  1.0000
  C   C23       1.0  0.54074  0.84603  0.14541  1.0000
  C   C24       1.0  0.70043  0.39533  0.85462  1.0000
  O   O1        1.0  0.58666  0.02350  0.61838  1.0000
  O   O2        1.0  0.40490  0.96812  0.38162  1.0000
  O   O3        1.0  0.21580  0.15446  0.88152  1.0000
  O   O4        1.0  0.27274  0.33412  0.11839  1.0000
  O   O5        1.0  0.93284  0.74144  0.29042  1.0000
  O   O6        1.0  0.45100  0.64246  0.70959  1.0000
  O   O7        1.0  0.89373  0.20219  0.21132  1.0000
  O   O8        1.0  0.99113  0.68249  0.78896  1.0000
  O   O9        1.0  0.70934  0.76510  0.64894  1.0000
  O   O10       1.0  0.11611  0.06017  0.35093  1.0000
  O   O11       1.0  0.31103  0.86522  0.84917  1.0000
  O   O12       1.0  0.01590  0.46175  0.15077  1.0000
  O   O13       1.0  0.85347  0.84326  0.46394  1.0000
  O   O14       1.0  0.37930  0.38948  0.53617  1.0000
  O   O15       1.0  0.64040  0.12912  0.03835  1.0000
  O   O16       1.0  0.09079  0.60190  0.96177  1.0000
  O   O17       1.0  0.64340  0.29458  0.54809  1.0000
  O   O18       1.0  0.74620  0.09519  0.45159  1.0000
  O   O19       1.0  0.34624  0.49972  0.95650  1.0000
  O   O20       1.0  0.54325  0.38993  0.04374  1.0000
  O   O21       1.0  0.24149  0.89652  0.54015  1.0000
  O   O22       1.0  0.35643  0.70123  0.45977  1.0000
  O   O23       1.0  0.95254  0.10938  0.96338  1.0000
  O   O24       1.0  0.14629  0.98914  0.03681  1.0000
  O   O25       1.0  0.56615  0.29623  0.27276  1.0000
  O   O26       1.0  0.02341  0.29346  0.72713  1.0000
  O   O27       1.0  0.54126  0.77193  0.22595  1.0000
  O   O28       1.0  0.54576  0.31534  0.77414  1.0000
  O   O29       1.0  0.58165  0.56570  0.35753  1.0000
  O   O30       1.0  0.20793  0.22397  0.64222  1.0000
  O   O31       1.0  0.47196  0.95674  0.14158  1.0000
  O   O32       1.0  0.81497  0.33036  0.85836  1.0000
