data_image0
_chemical_formula_structural       Cu2H12C12N8Cl4
_chemical_formula_sum              "Cu2 H12 C12 N8 Cl4"
_cell_length_a       3.94822
_cell_length_b       7.58475
_cell_length_c       14.5288
_cell_angle_alpha    89.9996
_cell_angle_beta     90.0019
_cell_angle_gamma    94.3122

_space_group_name_H-M_alt    "P 1"
_space_group_IT_number       1

loop_
  _space_group_symop_operation_xyz
  'x, y, z'

loop_
  _atom_site_type_symbol
  _atom_site_label
  _atom_site_symmetry_multiplicity
  _atom_site_fract_x
  _atom_site_fract_y
  _atom_site_fract_z
  _atom_site_occupancy
  Cu  Cu1       1.0  0.61372  0.35998  0.14094  1.0000
  Cu  Cu2       1.0  0.38632  0.64000  0.64095  1.0000
  H   H1        1.0  0.23742  0.91488  0.24759  1.0000
  H   H2        1.0  0.76258  0.08512  0.74759  1.0000
  H   H3        1.0  0.91076  0.99160  0.06726  1.0000
  H   H4        1.0  0.08925  0.00838  0.56728  1.0000
  H   H5        1.0  0.10242  0.38287  0.34069  1.0000
  H   H6        1.0  0.89756  0.61714  0.84068  1.0000
  H   H7        1.0  0.39258  0.72114  0.38290  1.0000
  H   H8        1.0  0.60735  0.27889  0.88291  1.0000
  H   H9        1.0  0.32372  0.56225  0.94422  1.0000
  H   H10       1.0  0.67626  0.43775  0.44423  1.0000
  H   H11       1.0  0.54509  0.91839  0.92585  1.0000
  H   H12       1.0  0.45496  0.08161  0.42584  1.0000
  C   C1        1.0  0.08911  0.50713  0.30467  1.0000
  C   C2        1.0  0.91089  0.49289  0.80467  1.0000
  C   C3        1.0  0.23502  0.67347  0.32553  1.0000
  C   C4        1.0  0.76496  0.32654  0.82553  1.0000
  C   C5        1.0  0.95687  0.68515  0.19405  1.0000
  C   C6        1.0  0.04314  0.31485  0.69405  1.0000
  C   C7        1.0  0.79514  0.72295  0.10881  1.0000
  C   C8        1.0  0.20487  0.27705  0.60882  1.0000
  C   C9        1.0  0.48426  0.64739  0.98849  1.0000
  C   C10       1.0  0.51576  0.35262  0.48850  1.0000
  C   C11       1.0  0.59160  0.82390  0.97933  1.0000
  C   C12       1.0  0.40845  0.17610  0.47933  1.0000
  N   N1        1.0  0.91725  0.51645  0.22300  1.0000
  N   N2        1.0  0.08272  0.48353  0.72301  1.0000
  N   N3        1.0  0.14778  0.78345  0.25509  1.0000
  N   N4        1.0  0.85221  0.21656  0.75510  1.0000
  N   N5        1.0  0.78430  0.86882  0.05598  1.0000
  N   N6        1.0  0.21574  0.13118  0.55597  1.0000
  N   N7        1.0  0.61326  0.58630  0.06908  1.0000
  N   N8        1.0  0.38674  0.41368  0.56908  1.0000
  Cl  Cl1       1.0  0.61433  0.13209  0.24151  1.0000
  Cl  Cl2       1.0  0.38563  0.86791  0.74150  1.0000
  Cl  Cl3       1.0  0.22598  0.22877  0.04216  1.0000
  Cl  Cl4       1.0  0.77399  0.77122  0.54219  1.0000
