data_image0
_chemical_formula_structural       Cu4H60C56S4I4N4O4
_chemical_formula_sum              "Cu4 H60 C56 S4 I4 N4 O4"
_cell_length_a       11.238
_cell_length_b       11.238
_cell_length_c       11.5017
_cell_angle_alpha    91.1239
_cell_angle_beta     91.1239
_cell_angle_gamma    97.0745

_space_group_name_H-M_alt    "P 1"
_space_group_IT_number       1

loop_
  _space_group_symop_operation_xyz
  'x, y, z'

loop_
  _atom_site_type_symbol
  _atom_site_label
  _atom_site_symmetry_multiplicity
  _atom_site_fract_x
  _atom_site_fract_y
  _atom_site_fract_z
  _atom_site_occupancy
  Cu  Cu1       1.0  0.59532  0.23156  0.79692  1.0000
  Cu  Cu2       1.0  0.76844  0.40468  0.70307  1.0000
  Cu  Cu3       1.0  0.40468  0.76844  0.20307  1.0000
  Cu  Cu4       1.0  0.23156  0.59532  0.29692  1.0000
  H   H1        1.0  0.55899  0.96688  0.76308  1.0000
  H   H2        1.0  0.03312  0.44101  0.73691  1.0000
  H   H3        1.0  0.44101  0.03312  0.23691  1.0000
  H   H4        1.0  0.96688  0.55899  0.26308  1.0000
  H   H5        1.0  0.39499  0.24432  0.62302  1.0000
  H   H6        1.0  0.75568  0.60500  0.87698  1.0000
  H   H7        1.0  0.60500  0.75568  0.37698  1.0000
  H   H8        1.0  0.24432  0.39499  0.12302  1.0000
  H   H9        1.0  0.26988  0.10160  0.48557  1.0000
  H   H10       1.0  0.89840  0.73012  0.01443  1.0000
  H   H11       1.0  0.73012  0.89841  0.51443  1.0000
  H   H12       1.0  0.10160  0.26988  0.98557  1.0000
  H   H13       1.0  0.29474  0.88624  0.48454  1.0000
  H   H14       1.0  0.11376  0.70525  0.01546  1.0000
  H   H15       1.0  0.70525  0.11376  0.51546  1.0000
  H   H16       1.0  0.88624  0.29475  0.98454  1.0000
  H   H17       1.0  0.44380  0.62931  0.56257  1.0000
  H   H18       1.0  0.37070  0.55620  0.93743  1.0000
  H   H19       1.0  0.55620  0.37070  0.43743  1.0000
  H   H20       1.0  0.62931  0.44380  0.06257  1.0000
  H   H21       1.0  0.39687  0.73953  0.46852  1.0000
  H   H22       1.0  0.26047  0.60313  0.03149  1.0000
  H   H23       1.0  0.60313  0.26048  0.53148  1.0000
  H   H24       1.0  0.73953  0.39687  0.96852  1.0000
  H   H25       1.0  0.20769  0.74181  0.58813  1.0000
  H   H26       1.0  0.25819  0.79230  0.91187  1.0000
  H   H27       1.0  0.79230  0.25819  0.41187  1.0000
  H   H28       1.0  0.74181  0.20769  0.08813  1.0000
  H   H29       1.0  0.25509  0.62642  0.67478  1.0000
  H   H30       1.0  0.37359  0.74491  0.82522  1.0000
  H   H31       1.0  0.74491  0.37359  0.32522  1.0000
  H   H32       1.0  0.62642  0.25509  0.17478  1.0000
  H   H33       1.0  0.34818  0.43577  0.48981  1.0000
  H   H34       1.0  0.56423  0.65182  0.01019  1.0000
  H   H35       1.0  0.65182  0.56423  0.51019  1.0000
  H   H36       1.0  0.43577  0.34818  0.98981  1.0000
  H   H37       1.0  0.26150  0.42344  0.61910  1.0000
  H   H38       1.0  0.57657  0.73850  0.88090  1.0000
  H   H39       1.0  0.73850  0.57657  0.38090  1.0000
  H   H40       1.0  0.42344  0.26150  0.11910  1.0000
  H   H41       1.0  0.05500  0.30351  0.61126  1.0000
  H   H42       1.0  0.69649  0.94500  0.88874  1.0000
  H   H43       1.0  0.94500  0.69650  0.38874  1.0000
  H   H44       1.0  0.30351  0.05500  0.11127  1.0000
  H   H45       1.0  0.93239  0.12404  0.52843  1.0000
  H   H46       1.0  0.87596  0.06762  0.97157  1.0000
  H   H47       1.0  0.06762  0.87596  0.47158  1.0000
  H   H48       1.0  0.12404  0.93238  0.02843  1.0000
  H   H49       1.0  0.98593  0.03511  0.33978  1.0000
  H   H50       1.0  0.96489  0.01407  0.16022  1.0000
  H   H51       1.0  0.01407  0.96489  0.66022  1.0000
  H   H52       1.0  0.03511  0.98593  0.83979  1.0000
  H   H53       1.0  0.16357  0.12926  0.23316  1.0000
  H   H54       1.0  0.87074  0.83643  0.26684  1.0000
  H   H55       1.0  0.83643  0.87074  0.76684  1.0000
  H   H56       1.0  0.12926  0.16357  0.73317  1.0000
  H   H57       1.0  0.29060  0.30791  0.32018  1.0000
  H   H58       1.0  0.69209  0.70940  0.17982  1.0000
  H   H59       1.0  0.70940  0.69209  0.67982  1.0000
  H   H60       1.0  0.30791  0.29060  0.82019  1.0000
  C   C1        1.0  0.49315  0.99446  0.70163  1.0000
  C   C2        1.0  0.00554  0.50685  0.79836  1.0000
  C   C3        1.0  0.50685  0.00554  0.29836  1.0000
  C   C4        1.0  0.99446  0.49315  0.20163  1.0000
  C   C5        1.0  0.40144  0.14831  0.62220  1.0000
  C   C6        1.0  0.85170  0.59856  0.87780  1.0000
  C   C7        1.0  0.59856  0.85170  0.37780  1.0000
  C   C8        1.0  0.14830  0.40144  0.12220  1.0000
  C   C9        1.0  0.33241  0.06870  0.54686  1.0000
  C   C10       1.0  0.93131  0.66758  0.95314  1.0000
  C   C11       1.0  0.66758  0.93131  0.45314  1.0000
  C   C12       1.0  0.06869  0.33241  0.04686  1.0000
  C   C13       1.0  0.34539  0.94711  0.54765  1.0000
  C   C14       1.0  0.05290  0.65460  0.95235  1.0000
  C   C15       1.0  0.65460  0.05290  0.45235  1.0000
  C   C16       1.0  0.94710  0.34539  0.04765  1.0000
  C   C17       1.0  0.42666  0.90875  0.62810  1.0000
  C   C18       1.0  0.09126  0.57334  0.87189  1.0000
  C   C19       1.0  0.57334  0.09126  0.37189  1.0000
  C   C20       1.0  0.90875  0.42666  0.12810  1.0000
  C   C21       1.0  0.39093  0.70487  0.55726  1.0000
  C   C22       1.0  0.29513  0.60906  0.94274  1.0000
  C   C23       1.0  0.60906  0.29513  0.44273  1.0000
  C   C24       1.0  0.70487  0.39093  0.05726  1.0000
  C   C25       1.0  0.26118  0.66641  0.58838  1.0000
  C   C26       1.0  0.33359  0.73881  0.91162  1.0000
  C   C27       1.0  0.73881  0.33359  0.41162  1.0000
  C   C28       1.0  0.66641  0.26118  0.08838  1.0000
  C   C29       1.0  0.25683  0.42530  0.52354  1.0000
  C   C30       1.0  0.57471  0.74317  0.97646  1.0000
  C   C31       1.0  0.74317  0.57471  0.47646  1.0000
  C   C32       1.0  0.42530  0.25683  0.02354  1.0000
  C   C33       1.0  0.18246  0.31656  0.47198  1.0000
  C   C34       1.0  0.68344  0.81754  0.02802  1.0000
  C   C35       1.0  0.81754  0.68344  0.52802  1.0000
  C   C36       1.0  0.31656  0.18246  0.97199  1.0000
  C   C37       1.0  0.08025  0.26494  0.52888  1.0000
  C   C38       1.0  0.73507  0.91975  0.97113  1.0000
  C   C39       1.0  0.91975  0.73506  0.47113  1.0000
  C   C40       1.0  0.26494  0.08025  0.02888  1.0000
  C   C41       1.0  0.01006  0.16424  0.48143  1.0000
  C   C42       1.0  0.83576  0.98994  0.01857  1.0000
  C   C43       1.0  0.98994  0.83576  0.51857  1.0000
  C   C44       1.0  0.16424  0.01005  0.98143  1.0000
  C   C45       1.0  0.04023  0.11489  0.37525  1.0000
  C   C46       1.0  0.88511  0.95977  0.12474  1.0000
  C   C47       1.0  0.95977  0.88511  0.62475  1.0000
  C   C48       1.0  0.11489  0.04023  0.87526  1.0000
  C   C49       1.0  0.14014  0.16726  0.31634  1.0000
  C   C50       1.0  0.83275  0.85986  0.18366  1.0000
  C   C51       1.0  0.85986  0.83275  0.68366  1.0000
  C   C52       1.0  0.16726  0.14014  0.81634  1.0000
  C   C53       1.0  0.21131  0.26742  0.36479  1.0000
  C   C54       1.0  0.73259  0.78869  0.13521  1.0000
  C   C55       1.0  0.78869  0.73259  0.63521  1.0000
  C   C56       1.0  0.26742  0.21131  0.86479  1.0000
  S   S1        1.0  0.18436  0.55739  0.48573  1.0000
  S   S2        1.0  0.44262  0.81564  0.01426  1.0000
  S   S3        1.0  0.81564  0.44262  0.51426  1.0000
  S   S4        1.0  0.55739  0.18436  0.98573  1.0000
  I   I1        1.0  0.81388  0.18612  0.75000  1.0000
  I   I2        1.0  0.18612  0.81388  0.25000  1.0000
  I   I3        1.0  0.54718  0.45282  0.75000  1.0000
  I   I4        1.0  0.45282  0.54718  0.25000  1.0000
  N   N1        1.0  0.48249  0.11195  0.69751  1.0000
  N   N2        1.0  0.88805  0.51751  0.80248  1.0000
  N   N3        1.0  0.51751  0.88805  0.30248  1.0000
  N   N4        1.0  0.11195  0.48249  0.19751  1.0000
  O   O1        1.0  0.44971  0.79306  0.63985  1.0000
  O   O2        1.0  0.20694  0.55029  0.86015  1.0000
  O   O3        1.0  0.55029  0.20694  0.36015  1.0000
  O   O4        1.0  0.79306  0.44971  0.13985  1.0000
