data_image0
_chemical_formula_structural       Zn2H28C40N8O10
_chemical_formula_sum              "Zn2 H28 C40 N8 O10"
_cell_length_a       9.5097
_cell_length_b       10.1776
_cell_length_c       10.3039
_cell_angle_alpha    87.1192
_cell_angle_beta     87.4943
_cell_angle_gamma    63.2039

_space_group_name_H-M_alt    "P 1"
_space_group_IT_number       1

loop_
  _space_group_symop_operation_xyz
  'x, y, z'

loop_
  _atom_site_type_symbol
  _atom_site_label
  _atom_site_symmetry_multiplicity
  _atom_site_fract_x
  _atom_site_fract_y
  _atom_site_fract_z
  _atom_site_occupancy
  Zn  Zn1       1.0  0.05485  0.32478  0.37697  1.0000
  Zn  Zn2       1.0  0.94515  0.67522  0.62303  1.0000
  H   H1        1.0  0.91246  0.55838  0.15330  1.0000
  H   H2        1.0  0.08754  0.44162  0.84670  1.0000
  H   H3        1.0  0.44386  0.61391  0.08592  1.0000
  H   H4        1.0  0.55614  0.38609  0.91408  1.0000
  H   H5        1.0  0.49190  0.41353  0.25541  1.0000
  H   H6        1.0  0.50810  0.58647  0.74458  1.0000
  H   H7        1.0  0.75166  0.29823  0.36890  1.0000
  H   H8        1.0  0.24834  0.70177  0.63110  1.0000
  H   H9        1.0  0.19036  0.07632  0.58295  1.0000
  H   H10       1.0  0.80965  0.92368  0.41705  1.0000
  H   H11       1.0  0.62979  0.88833  0.82396  1.0000
  H   H12       1.0  0.37022  0.11168  0.17604  1.0000
  H   H13       1.0  0.08734  0.85272  0.40550  1.0000
  H   H14       1.0  0.91266  0.14727  0.59450  1.0000
  H   H15       1.0  0.17453  0.99185  0.02138  1.0000
  H   H16       1.0  0.82548  0.00814  0.97862  1.0000
  H   H17       1.0  0.14614  0.58282  0.07957  1.0000
  H   H18       1.0  0.85386  0.41718  0.92044  1.0000
  H   H19       1.0  0.35292  0.36301  0.41793  1.0000
  H   H20       1.0  0.64708  0.63699  0.58206  1.0000
  H   H21       1.0  0.59051  0.09261  0.75000  1.0000
  H   H22       1.0  0.40948  0.90740  0.25000  1.0000
  H   H23       1.0  0.57239  0.27857  0.57704  1.0000
  H   H24       1.0  0.42761  0.72144  0.42296  1.0000
  H   H25       1.0  0.76253  0.73422  0.98268  1.0000
  H   H26       1.0  0.23747  0.26578  0.01732  1.0000
  H   H27       1.0  0.18123  0.77005  0.93036  1.0000
  H   H28       1.0  0.81878  0.22995  0.06964  1.0000
  C   C1        1.0  0.81488  0.53131  0.17370  1.0000
  C   C2        1.0  0.18512  0.46869  0.82630  1.0000
  C   C3        1.0  0.67453  0.60234  0.10511  1.0000
  C   C4        1.0  0.32548  0.39766  0.89489  1.0000
  C   C5        1.0  0.55458  0.56065  0.13696  1.0000
  C   C6        1.0  0.44542  0.43935  0.86304  1.0000
  C   C7        1.0  0.58067  0.45134  0.23220  1.0000
  C   C8        1.0  0.41933  0.54866  0.76780  1.0000
  C   C9        1.0  0.72426  0.38659  0.29556  1.0000
  C   C10       1.0  0.27574  0.61341  0.70444  1.0000
  C   C11       1.0  0.10847  0.58666  0.33934  1.0000
  C   C12       1.0  0.89153  0.41334  0.66066  1.0000
  C   C13       1.0  0.12752  0.93730  0.21850  1.0000
  C   C14       1.0  0.87248  0.06269  0.78150  1.0000
  C   C15       1.0  0.27653  0.11924  0.58446  1.0000
  C   C16       1.0  0.72347  0.88077  0.41554  1.0000
  C   C17       1.0  0.39457  0.06515  0.67739  1.0000
  C   C18       1.0  0.60543  0.93485  0.32261  1.0000
  C   C19       1.0  0.10973  0.83252  0.30190  1.0000
  C   C20       1.0  0.89026  0.16749  0.69811  1.0000
  C   C21       1.0  0.15693  0.91199  0.08544  1.0000
  C   C22       1.0  0.84307  0.08801  0.91457  1.0000
  C   C23       1.0  0.11330  0.07699  0.27063  1.0000
  C   C24       1.0  0.88670  0.92301  0.72937  1.0000
  C   C25       1.0  0.14129  0.68283  0.11701  1.0000
  C   C26       1.0  0.85871  0.31717  0.88299  1.0000
  C   C27       1.0  0.36901  0.27841  0.49261  1.0000
  C   C28       1.0  0.63099  0.72159  0.50739  1.0000
  C   C29       1.0  0.50105  0.12533  0.67644  1.0000
  C   C30       1.0  0.49895  0.87467  0.32356  1.0000
  C   C31       1.0  0.39295  0.95030  0.77363  1.0000
  C   C32       1.0  0.60705  0.04970  0.22636  1.0000
  C   C33       1.0  0.48987  0.23122  0.58096  1.0000
  C   C34       1.0  0.51013  0.76878  0.41904  1.0000
  C   C35       1.0  0.66053  0.71224  0.00363  1.0000
  C   C36       1.0  0.33947  0.28776  0.99636  1.0000
  C   C37       1.0  0.11986  0.70331  0.25155  1.0000
  C   C38       1.0  0.88014  0.29669  0.74845  1.0000
  C   C39       1.0  0.16035  0.78629  0.03430  1.0000
  C   C40       1.0  0.83966  0.21371  0.96570  1.0000
  N   N1        1.0  0.83901  0.42696  0.26700  1.0000
  N   N2        1.0  0.16099  0.57304  0.73300  1.0000
  N   N3        1.0  0.26265  0.22485  0.49530  1.0000
  N   N4        1.0  0.73734  0.77516  0.50470  1.0000
  N   N5        1.0  0.52657  0.87902  0.84651  1.0000
  N   N6        1.0  0.47343  0.12098  0.15349  1.0000
  N   N7        1.0  0.53107  0.77915  0.94015  1.0000
  N   N8        1.0  0.46893  0.22085  0.05984  1.0000
  O   O1        1.0  0.09118  0.60484  0.46062  1.0000
  O   O2        1.0  0.90882  0.39516  0.53939  1.0000
  O   O3        1.0  0.12329  0.46999  0.28524  1.0000
  O   O4        1.0  0.87672  0.53000  0.71476  1.0000
  O   O5        1.0  0.04283  0.11944  0.37999  1.0000
  O   O6        1.0  0.95717  0.88056  0.62001  1.0000
  O   O7        1.0  0.17075  0.15240  0.20466  1.0000
  O   O8        1.0  0.82924  0.84761  0.79535  1.0000
  O   O9        1.0  0.27817  0.92406  0.78526  1.0000
  O   O10       1.0  0.72183  0.07594  0.21474  1.0000
