data_image0
_chemical_formula_structural       Cd2H28C40N8O10
_chemical_formula_sum              "Cd2 H28 C40 N8 O10"
_cell_length_a       9.57126
_cell_length_b       10.1974
_cell_length_c       10.4935
_cell_angle_alpha    87.3834
_cell_angle_beta     64.1163
_cell_angle_gamma    86.3541

_space_group_name_H-M_alt    "P 1"
_space_group_IT_number       1

loop_
  _space_group_symop_operation_xyz
  'x, y, z'

loop_
  _atom_site_type_symbol
  _atom_site_label
  _atom_site_symmetry_multiplicity
  _atom_site_fract_x
  _atom_site_fract_y
  _atom_site_fract_z
  _atom_site_occupancy
  Cd  Cd1       1.0  0.93957  0.12571  0.67037  1.0000
  Cd  Cd2       1.0  0.06043  0.87429  0.32963  1.0000
  H   H1        1.0  0.15799  0.55602  0.59617  1.0000
  H   H2        1.0  0.84201  0.44398  0.40383  1.0000
  H   H3        1.0  0.18706  0.41545  0.78773  1.0000
  H   H4        1.0  0.81294  0.58455  0.21227  1.0000
  H   H5        1.0  0.16950  0.51984  0.00168  1.0000
  H   H6        1.0  0.83050  0.48016  0.99832  1.0000
  H   H7        1.0  0.08346  0.89975  0.84592  1.0000
  H   H8        1.0  0.91654  0.10025  0.15408  1.0000
  H   H9        1.0  0.79416  0.91568  0.92446  1.0000
  H   H10       1.0  0.20583  0.08432  0.07554  1.0000
  H   H11       1.0  0.63557  0.06561  0.63463  1.0000
  H   H12       1.0  0.36443  0.93439  0.36537  1.0000
  H   H13       1.0  0.41327  0.91345  0.72689  1.0000
  H   H14       1.0  0.58673  0.08655  0.27311  1.0000
  H   H15       1.0  0.39413  0.75045  0.91569  1.0000
  H   H16       1.0  0.60587  0.24955  0.08431  1.0000
  H   H17       1.0  0.24071  0.51226  0.25329  1.0000
  H   H18       1.0  0.75929  0.48774  0.74671  1.0000
  H   H19       1.0  0.55506  0.42245  0.38077  1.0000
  H   H20       1.0  0.44495  0.57754  0.61923  1.0000
  H   H21       1.0  0.51285  0.25824  0.57825  1.0000
  H   H22       1.0  0.48715  0.74176  0.42175  1.0000
  H   H23       1.0  0.26170  0.14094  0.68618  1.0000
  H   H24       1.0  0.73831  0.85906  0.31383  1.0000
  H   H25       1.0  0.09954  0.34254  0.42253  1.0000
  H   H26       1.0  0.90046  0.65746  0.57747  1.0000
  H   H27       1.0  0.36432  0.67358  0.10640  1.0000
  H   H28       1.0  0.63568  0.32642  0.89360  1.0000
  C   C1        1.0  0.12166  0.81691  0.58499  1.0000
  C   C2        1.0  0.87834  0.18309  0.41501  1.0000
  C   C3        1.0  0.12414  0.73595  0.70671  1.0000
  C   C4        1.0  0.87586  0.26405  0.29329  1.0000
  C   C5        1.0  0.14773  0.59890  0.69311  1.0000
  C   C6        1.0  0.85227  0.40110  0.30689  1.0000
  C   C7        1.0  0.16376  0.52110  0.79870  1.0000
  C   C8        1.0  0.83624  0.47890  0.20130  1.0000
  C   C9        1.0  0.15483  0.57972  0.91954  1.0000
  C   C10       1.0  0.84517  0.42028  0.08046  1.0000
  C   C11       1.0  0.12217  0.71524  0.93826  1.0000
  C   C12       1.0  0.87783  0.28476  0.06174  1.0000
  C   C13       1.0  0.10693  0.79398  0.83147  1.0000
  C   C14       1.0  0.89308  0.20602  0.16852  1.0000
  C   C15       1.0  0.10376  0.77376  0.07296  1.0000
  C   C16       1.0  0.89625  0.22624  0.92704  1.0000
  C   C17       1.0  0.70848  0.91241  0.88237  1.0000
  C   C18       1.0  0.29151  0.08759  0.11763  1.0000
  C   C19       1.0  0.61750  0.99638  0.72198  1.0000
  C   C20       1.0  0.38249  0.00363  0.27803  1.0000
  C   C21       1.0  0.49592  0.91150  0.77272  1.0000
  C   C22       1.0  0.50407  0.08849  0.22728  1.0000
  C   C23       1.0  0.48433  0.82149  0.88041  1.0000
  C   C24       1.0  0.51567  0.17851  0.11959  1.0000
  C   C25       1.0  0.59062  0.82236  0.93890  1.0000
  C   C26       1.0  0.40937  0.17764  0.06110  1.0000
  C   C27       1.0  0.59266  0.73113  0.05440  1.0000
  C   C28       1.0  0.40734  0.26887  0.94560  1.0000
  C   C29       1.0  0.33070  0.39619  0.38551  1.0000
  C   C30       1.0  0.66930  0.60380  0.61449  1.0000
  C   C31       1.0  0.34094  0.49567  0.27805  1.0000
  C   C32       1.0  0.65906  0.50433  0.72195  1.0000
  C   C33       1.0  0.44846  0.36948  0.43044  1.0000
  C   C34       1.0  0.55155  0.63052  0.56956  1.0000
  C   C35       1.0  0.42577  0.27703  0.53814  1.0000
  C   C36       1.0  0.57423  0.72297  0.46186  1.0000
  C   C37       1.0  0.28699  0.21149  0.59854  1.0000
  C   C38       1.0  0.71301  0.78851  0.40146  1.0000
  C   C39       1.0  0.19566  0.32524  0.45168  1.0000
  C   C40       1.0  0.80434  0.67476  0.54832  1.0000
  N   N1        1.0  0.72258  0.99581  0.77528  1.0000
  N   N2        1.0  0.27741  0.00419  0.22472  1.0000
  N   N3        1.0  0.46586  0.65409  0.11891  1.0000
  N   N4        1.0  0.53414  0.34591  0.88109  1.0000
  N   N5        1.0  0.46442  0.56269  0.21705  1.0000
  N   N6        1.0  0.53558  0.43731  0.78295  1.0000
  N   N7        1.0  0.17454  0.23521  0.55505  1.0000
  N   N8        1.0  0.82546  0.76479  0.44495  1.0000
  O   O1        1.0  0.10276  0.94107  0.59333  1.0000
  O   O2        1.0  0.89724  0.05894  0.40666  1.0000
  O   O3        1.0  0.14389  0.75458  0.47364  1.0000
  O   O4        1.0  0.85611  0.24541  0.52636  1.0000
  O   O5        1.0  0.02861  0.88274  0.11284  1.0000
  O   O6        1.0  0.97139  0.11725  0.88716  1.0000
  O   O7        1.0  0.16593  0.70943  0.14569  1.0000
  O   O8        1.0  0.83407  0.29057  0.85431  1.0000
  O   O9        1.0  0.70291  0.72629  0.08605  1.0000
  O   O10       1.0  0.29709  0.27371  0.91395  1.0000
