data_image0
_chemical_formula_structural       NiH14C10N8O2
_chemical_formula_sum              "Ni1 H14 C10 N8 O2"
_cell_length_a       7.27238
_cell_length_b       7.39173
_cell_length_c       8.08478
_cell_angle_alpha    107.531
_cell_angle_beta     89.8431
_cell_angle_gamma    119.469

_space_group_name_H-M_alt    "P 1"
_space_group_IT_number       1

loop_
  _space_group_symop_operation_xyz
  'x, y, z'

loop_
  _atom_site_type_symbol
  _atom_site_label
  _atom_site_symmetry_multiplicity
  _atom_site_fract_x
  _atom_site_fract_y
  _atom_site_fract_z
  _atom_site_occupancy
  Ni  Ni1       1.0  1.00000  1.00000  0.50000  1.0000
  H   H1        1.0  0.77059  0.54010  0.23346  1.0000
  H   H2        1.0  0.22942  0.45991  0.76654  1.0000
  H   H3        1.0  0.66441  0.57311  0.75674  1.0000
  H   H4        1.0  0.09114  0.42674  0.24388  1.0000
  H   H5        1.0  0.33559  0.42689  0.24326  1.0000
  H   H6        1.0  0.90886  0.57326  0.75612  1.0000
  H   H7        1.0  0.90215  0.80479  0.90303  1.0000
  H   H8        1.0  0.09785  0.19522  0.09697  1.0000
  H   H9        1.0  0.48468  0.21517  0.83257  1.0000
  H   H10       1.0  0.26985  0.78530  0.16827  1.0000
  H   H11       1.0  0.51532  0.78484  0.16743  1.0000
  H   H12       1.0  0.73015  0.21470  0.83173  1.0000
  H   H13       1.0  0.61174  0.22335  0.02591  1.0000
  H   H14       1.0  0.38826  0.77665  0.97409  1.0000
  C   C1        1.0  0.54438  0.77582  0.56953  1.0000
  C   C2        1.0  0.76813  0.22354  0.43054  1.0000
  C   C3        1.0  0.45560  0.22417  0.43046  1.0000
  C   C4        1.0  0.23187  0.77646  0.56945  1.0000
  C   C5        1.0  0.82031  0.63980  0.14632  1.0000
  C   C6        1.0  0.17971  0.36023  0.85369  1.0000
  C   C7        1.0  0.81236  0.62474  0.84051  1.0000
  C   C8        1.0  0.18764  0.37527  0.15949  1.0000
  C   C9        1.0  0.63987  0.27968  0.91252  1.0000
  C   C10       1.0  0.36013  0.72032  0.08748  1.0000
  N   N1        1.0  0.70170  0.79269  0.51739  1.0000
  N   N2        1.0  0.90788  0.20627  0.48286  1.0000
  N   N3        1.0  0.29830  0.20731  0.48262  1.0000
  N   N4        1.0  0.09212  0.79371  0.51713  1.0000
  N   N5        1.0  0.37473  0.74997  0.63636  1.0000
  N   N6        1.0  0.62527  0.25001  0.36364  1.0000
  N   N7        1.0  0.76034  0.52050  0.97408  1.0000
  N   N8        1.0  0.23966  0.47950  0.02592  1.0000
  O   O1        1.0  0.92425  0.84758  0.20742  1.0000
  O   O2        1.0  0.07575  0.15241  0.79257  1.0000
