data_image0
_chemical_formula_structural       ZnH14C14N12O6
_chemical_formula_sum              "Zn1 H14 C14 N12 O6"
_cell_length_a       7.2853
_cell_length_b       7.89264
_cell_length_c       9.08396
_cell_angle_alpha    93.5679
_cell_angle_beta     96.5132
_cell_angle_gamma    115.053

_space_group_name_H-M_alt    "P 1"
_space_group_IT_number       1

loop_
  _space_group_symop_operation_xyz
  'x, y, z'

loop_
  _atom_site_type_symbol
  _atom_site_label
  _atom_site_symmetry_multiplicity
  _atom_site_fract_x
  _atom_site_fract_y
  _atom_site_fract_z
  _atom_site_occupancy
  Zn  Zn1       1.0  0.00000  0.00000  0.00000  1.0000
  H   H1        1.0  0.36785  0.09865  0.08790  1.0000
  H   H2        1.0  0.63215  0.90135  0.91210  1.0000
  H   H3        1.0  0.36655  0.29838  0.05958  1.0000
  H   H4        1.0  0.63345  0.70161  0.94042  1.0000
  H   H5        1.0  0.09768  0.58079  0.29167  1.0000
  H   H6        1.0  0.90232  0.41920  0.70833  1.0000
  H   H7        1.0  0.12019  0.48507  0.11261  1.0000
  H   H8        1.0  0.87982  0.51493  0.88739  1.0000
  H   H9        1.0  0.70073  0.85261  0.66905  1.0000
  H   H10       1.0  0.29927  0.14739  0.33095  1.0000
  H   H11       1.0  0.29526  0.93640  0.82410  1.0000
  H   H12       1.0  0.70474  0.06359  0.17590  1.0000
  H   H13       1.0  0.31234  0.78456  0.57623  1.0000
  H   H14       1.0  0.68766  0.21545  0.42377  1.0000
  C   C1        1.0  0.21307  0.78716  0.14499  1.0000
  C   C2        1.0  0.78693  0.21284  0.85500  1.0000
  C   C3        1.0  0.19373  0.60268  0.20285  1.0000
  C   C4        1.0  0.80628  0.39732  0.79714  1.0000
  C   C5        1.0  0.66927  0.66923  0.39202  1.0000
  C   C6        1.0  0.33073  0.33077  0.60798  1.0000
  C   C7        1.0  0.84449  0.74515  0.51277  1.0000
  C   C8        1.0  0.15552  0.25486  0.48723  1.0000
  C   C9        1.0  0.83561  0.83294  0.64919  1.0000
  C   C10       1.0  0.16439  0.16705  0.35081  1.0000
  C   C11       1.0  0.16430  0.87927  0.73538  1.0000
  C   C12       1.0  0.83570  0.12073  0.26462  1.0000
  C   C13       1.0  0.17322  0.79533  0.59805  1.0000
  C   C14       1.0  0.82678  0.20467  0.40195  1.0000
  N   N1        1.0  0.50259  0.70254  0.39110  1.0000
  N   N2        1.0  0.49741  0.29747  0.60889  1.0000
  N   N3        1.0  0.38899  0.60686  0.26287  1.0000
  N   N4        1.0  0.61101  0.39314  0.73713  1.0000
  N   N5        1.0  0.47723  0.51776  0.18758  1.0000
  N   N6        1.0  0.52277  0.48224  0.81242  1.0000
  N   N7        1.0  0.65428  0.55499  0.26817  1.0000
  N   N8        1.0  0.34572  0.44501  0.73183  1.0000
  N   N9        1.0  0.99488  0.89686  0.76069  1.0000
  N   N10       1.0  0.00512  0.10313  0.23932  1.0000
  N   N11       1.0  0.01385  0.72588  0.48762  1.0000
  N   N12       1.0  0.98616  0.27412  0.51238  1.0000
  O   O1        1.0  0.05395  0.76910  0.05822  1.0000
  O   O2        1.0  0.94605  0.23089  0.94177  1.0000
  O   O3        1.0  0.37365  0.93655  0.18914  1.0000
  O   O4        1.0  0.62635  0.06344  0.81086  1.0000
  O   O5        1.0  0.31765  0.16632  0.01445  1.0000
  O   O6        1.0  0.68235  0.83368  0.98555  1.0000
