data_image0
_chemical_formula_structural       Cd2H28C28N24O12
_chemical_formula_sum              "Cd2 H28 C28 N24 O12"
_cell_length_a       7.12478
_cell_length_b       9.65736
_cell_length_c       13.9116
_cell_angle_alpha    90
_cell_angle_beta     100.505
_cell_angle_gamma    89.9996

_space_group_name_H-M_alt    "P 1"
_space_group_IT_number       1

loop_
  _space_group_symop_operation_xyz
  'x, y, z'

loop_
  _atom_site_type_symbol
  _atom_site_label
  _atom_site_symmetry_multiplicity
  _atom_site_fract_x
  _atom_site_fract_y
  _atom_site_fract_z
  _atom_site_occupancy
  Cd  Cd1       1.0  0.50000  0.50000  0.50000  1.0000
  Cd  Cd2       1.0  0.50000  1.00000  0.00000  1.0000
  H   H1        1.0  0.64018  0.29041  0.07604  1.0000
  H   H2        1.0  0.35982  0.79041  0.42395  1.0000
  H   H3        1.0  0.35982  0.70959  0.92396  1.0000
  H   H4        1.0  0.64018  0.20960  0.57605  1.0000
  H   H5        1.0  0.07751  0.16536  0.99338  1.0000
  H   H6        1.0  0.92249  0.66536  0.50662  1.0000
  H   H7        1.0  0.92249  0.83464  0.00662  1.0000
  H   H8        1.0  0.07751  0.33464  0.49338  1.0000
  H   H9        1.0  0.96767  0.39388  0.05431  1.0000
  H   H10       1.0  0.03233  0.89389  0.44569  1.0000
  H   H11       1.0  0.03233  0.60611  0.94569  1.0000
  H   H12       1.0  0.96767  0.10612  0.55431  1.0000
  H   H13       1.0  0.05834  0.75565  0.26657  1.0000
  H   H14       1.0  0.94165  0.25565  0.23343  1.0000
  H   H15       1.0  0.94165  0.24435  0.73343  1.0000
  H   H16       1.0  0.05834  0.74434  0.76657  1.0000
  H   H17       1.0  0.11037  0.62229  0.18593  1.0000
  H   H18       1.0  0.88962  0.12229  0.31407  1.0000
  H   H19       1.0  0.88963  0.37772  0.81407  1.0000
  H   H20       1.0  0.11037  0.87771  0.68593  1.0000
  H   H21       1.0  0.80116  0.41368  0.38869  1.0000
  H   H22       1.0  0.19884  0.91369  0.11131  1.0000
  H   H23       1.0  0.19884  0.58632  0.61131  1.0000
  H   H24       1.0  0.80116  0.08631  0.88869  1.0000
  H   H25       1.0  0.63090  0.30050  0.36887  1.0000
  H   H26       1.0  0.36910  0.80050  0.13114  1.0000
  H   H27       1.0  0.36910  0.69950  0.63113  1.0000
  H   H28       1.0  0.63090  0.19950  0.86887  1.0000
  C   C1        1.0  0.42877  0.43973  0.10613  1.0000
  C   C2        1.0  0.57122  0.93974  0.39387  1.0000
  C   C3        1.0  0.57123  0.56026  0.89387  1.0000
  C   C4        1.0  0.42878  0.06027  0.60613  1.0000
  C   C5        1.0  0.48971  0.31417  0.07155  1.0000
  C   C6        1.0  0.51028  0.81417  0.42845  1.0000
  C   C7        1.0  0.51028  0.68583  0.92845  1.0000
  C   C8        1.0  0.48972  0.18584  0.57155  1.0000
  C   C9        1.0  0.17766  0.24481  0.02629  1.0000
  C   C10       1.0  0.82234  0.74481  0.47371  1.0000
  C   C11       1.0  0.82234  0.75518  0.97371  1.0000
  C   C12       1.0  0.17766  0.25519  0.52629  1.0000
  C   C13       1.0  0.11914  0.37128  0.05939  1.0000
  C   C14       1.0  0.88085  0.87128  0.44061  1.0000
  C   C15       1.0  0.88086  0.62871  0.94061  1.0000
  C   C16       1.0  0.11915  0.12872  0.55939  1.0000
  C   C17       1.0  0.57104  0.53982  0.15280  1.0000
  C   C18       1.0  0.42896  0.03982  0.34720  1.0000
  C   C19       1.0  0.42896  0.46018  0.84720  1.0000
  C   C20       1.0  0.57104  0.96018  0.65280  1.0000
  C   C21       1.0  0.03609  0.64625  0.24665  1.0000
  C   C22       1.0  0.96391  0.14625  0.25335  1.0000
  C   C23       1.0  0.96391  0.35375  0.75335  1.0000
  C   C24       1.0  0.03609  0.85375  0.74665  1.0000
  C   C25       1.0  0.12050  0.55194  0.33352  1.0000
  C   C26       1.0  0.87949  0.05194  0.16647  1.0000
  C   C27       1.0  0.87949  0.44806  0.66648  1.0000
  C   C28       1.0  0.12051  0.94805  0.83353  1.0000
  N   N1        1.0  0.36424  0.21793  0.03196  1.0000
  N   N2        1.0  0.63576  0.71793  0.46804  1.0000
  N   N3        1.0  0.63578  0.78207  0.96804  1.0000
  N   N4        1.0  0.36424  0.28207  0.53196  1.0000
  N   N5        1.0  0.24244  0.46924  0.09843  1.0000
  N   N6        1.0  0.75756  0.96924  0.40157  1.0000
  N   N7        1.0  0.75756  0.53075  0.90157  1.0000
  N   N8        1.0  0.24244  0.03076  0.59843  1.0000
  N   N9        1.0  0.75916  0.51264  0.16854  1.0000
  N   N10       1.0  0.24083  0.01265  0.33146  1.0000
  N   N11       1.0  0.24084  0.48736  0.83146  1.0000
  N   N12       1.0  0.75917  0.98736  0.66854  1.0000
  N   N13       1.0  0.53568  0.66751  0.18702  1.0000
  N   N14       1.0  0.46431  0.16751  0.31298  1.0000
  N   N15       1.0  0.46432  0.33249  0.81298  1.0000
  N   N16       1.0  0.53568  0.83249  0.68702  1.0000
  N   N17       1.0  0.83302  0.62701  0.21309  1.0000
  N   N18       1.0  0.16698  0.12702  0.28691  1.0000
  N   N19       1.0  0.16698  0.37299  0.78691  1.0000
  N   N20       1.0  0.83302  0.87299  0.71309  1.0000
  N   N21       1.0  0.70269  0.72132  0.22548  1.0000
  N   N22       1.0  0.29730  0.22132  0.27453  1.0000
  N   N23       1.0  0.29730  0.27868  0.77453  1.0000
  N   N24       1.0  0.70269  0.77868  0.72547  1.0000
  O   O1        1.0  0.01340  0.47411  0.37153  1.0000
  O   O2        1.0  0.98660  0.97412  0.12846  1.0000
  O   O3        1.0  0.98660  0.52589  0.62846  1.0000
  O   O4        1.0  0.01340  0.02587  0.87155  1.0000
  O   O5        1.0  0.30009  0.56525  0.35758  1.0000
  O   O6        1.0  0.69991  0.06525  0.14242  1.0000
  O   O7        1.0  0.69991  0.43475  0.64242  1.0000
  O   O8        1.0  0.30009  0.93475  0.85758  1.0000
  O   O9        1.0  0.69778  0.36849  0.41664  1.0000
  O   O10       1.0  0.30222  0.86849  0.08336  1.0000
  O   O11       1.0  0.30222  0.63151  0.58336  1.0000
  O   O12       1.0  0.69779  0.13151  0.91664  1.0000
