data_image0
_chemical_formula_structural       ZnH14C14N12O6
_chemical_formula_sum              "Zn1 H14 C14 N12 O6"
_cell_length_a       7.25106
_cell_length_b       7.62927
_cell_length_c       9.44433
_cell_angle_alpha    69.8497
_cell_angle_beta     85.3675
_cell_angle_gamma    99.5322

_space_group_name_H-M_alt    "P 1"
_space_group_IT_number       1

loop_
  _space_group_symop_operation_xyz
  'x, y, z'

loop_
  _atom_site_type_symbol
  _atom_site_label
  _atom_site_symmetry_multiplicity
  _atom_site_fract_x
  _atom_site_fract_y
  _atom_site_fract_z
  _atom_site_occupancy
  Zn  Zn1       1.0  0.50001  0.00000  0.50000  1.0000
  H   H1        1.0  0.53603  0.30268  0.56927  1.0000
  H   H2        1.0  0.46397  0.69732  0.43073  1.0000
  H   H3        1.0  0.69592  0.38460  0.42524  1.0000
  H   H4        1.0  0.30408  0.61541  0.57476  1.0000
  H   H5        1.0  0.04177  0.02036  0.20327  1.0000
  H   H6        1.0  0.95823  0.97966  0.79671  1.0000
  H   H7        1.0  0.07488  0.84636  0.37834  1.0000
  H   H8        1.0  0.92513  0.15367  0.62164  1.0000
  H   H9        1.0  0.28302  0.32147  0.38427  1.0000
  H   H10       1.0  0.71700  0.67854  0.61573  1.0000
  H   H11       1.0  0.53207  0.01335  0.16513  1.0000
  H   H12       1.0  0.46792  0.98664  0.83487  1.0000
  H   H13       1.0  0.42179  0.20157  0.91868  1.0000
  H   H14       1.0  0.57819  0.79841  0.08133  1.0000
  C   C1        1.0  0.78542  0.83974  0.33777  1.0000
  C   C2        1.0  0.21459  0.16026  0.66223  1.0000
  C   C3        1.0  0.99675  0.87167  0.28070  1.0000
  C   C4        1.0  0.00326  0.12834  0.71928  1.0000
  C   C5        1.0  0.15946  0.55158  0.13799  1.0000
  C   C6        1.0  0.84053  0.44841  0.86201  1.0000
  C   C7        1.0  0.25234  0.39368  0.14545  1.0000
  C   C8        1.0  0.74765  0.60631  0.85455  1.0000
  C   C9        1.0  0.31197  0.29068  0.28145  1.0000
  C   C10       1.0  0.68804  0.70933  0.71855  1.0000
  C   C11       1.0  0.44933  0.12149  0.15936  1.0000
  C   C12       1.0  0.55065  0.87850  0.84066  1.0000
  C   C13       1.0  0.38899  0.22539  0.02452  1.0000
  C   C14       1.0  0.61100  0.77459  0.97549  1.0000
  N   N1        1.0  0.09459  0.58664  0.26073  1.0000
  N   N2        1.0  0.90542  0.41336  0.73927  1.0000
  N   N3        1.0  0.05192  0.75647  0.19677  1.0000
  N   N4        1.0  0.94809  0.24353  0.80322  1.0000
  N   N5        1.0  0.08802  0.82513  0.04358  1.0000
  N   N6        1.0  0.91197  0.17486  0.95641  1.0000
  N   N7        1.0  0.15462  0.69578  0.00513  1.0000
  N   N8        1.0  0.84536  0.30420  0.99487  1.0000
  N   N9        1.0  0.40950  0.15443  0.28790  1.0000
  N   N10       1.0  0.59050  0.84557  0.71210  1.0000
  N   N11       1.0  0.29149  0.36137  0.01605  1.0000
  N   N12       1.0  0.70849  0.63861  0.98396  1.0000
  O   O1        1.0  0.74781  0.97133  0.38228  1.0000
  O   O2        1.0  0.25221  0.02867  0.61774  1.0000
  O   O3        1.0  0.67101  0.69395  0.33999  1.0000
  O   O4        1.0  0.32900  0.30606  0.66001  1.0000
  O   O5        1.0  0.64145  0.26894  0.51403  1.0000
  O   O6        1.0  0.35856  0.73107  0.48597  1.0000
