data_image0
_chemical_formula_structural       Cd2H20C28N24O8
_chemical_formula_sum              "Cd2 H20 C28 N24 O8"
_cell_length_a       8.33739
_cell_length_b       8.33743
_cell_length_c       15.4569
_cell_angle_alpha    88.6682
_cell_angle_beta     88.6686
_cell_angle_gamma    69.4962

_space_group_name_H-M_alt    "P 1"
_space_group_IT_number       1

loop_
  _space_group_symop_operation_xyz
  'x, y, z'

loop_
  _atom_site_type_symbol
  _atom_site_label
  _atom_site_symmetry_multiplicity
  _atom_site_fract_x
  _atom_site_fract_y
  _atom_site_fract_z
  _atom_site_occupancy
  Cd  Cd1       1.0  0.68818  0.31182  0.75000  1.0000
  Cd  Cd2       1.0  0.31181  0.68819  0.25000  1.0000
  H   H1        1.0  0.69390  0.97642  0.50976  1.0000
  H   H2        1.0  0.02360  0.30609  0.99024  1.0000
  H   H3        1.0  0.30611  0.02359  0.49024  1.0000
  H   H4        1.0  0.97641  0.69390  0.00976  1.0000
  H   H5        1.0  0.89942  0.84627  0.55003  1.0000
  H   H6        1.0  0.15375  0.10057  0.94997  1.0000
  H   H7        1.0  0.10058  0.15373  0.44997  1.0000
  H   H8        1.0  0.84627  0.89942  0.05003  1.0000
  H   H9        1.0  0.24648  0.73854  0.50480  1.0000
  H   H10       1.0  0.26146  0.75352  0.99520  1.0000
  H   H11       1.0  0.75352  0.26147  0.49520  1.0000
  H   H12       1.0  0.73853  0.24648  0.00480  1.0000
  H   H13       1.0  0.05164  0.37210  0.59739  1.0000
  H   H14       1.0  0.62791  0.94834  0.90261  1.0000
  H   H15       1.0  0.94835  0.62791  0.40261  1.0000
  H   H16       1.0  0.37209  0.05165  0.09739  1.0000
  H   H17       1.0  0.30939  0.24472  0.69339  1.0000
  H   H18       1.0  0.75528  0.69059  0.80661  1.0000
  H   H19       1.0  0.69060  0.75528  0.30661  1.0000
  H   H20       1.0  0.24472  0.30941  0.19339  1.0000
  C   C1        1.0  0.74013  0.03747  0.63994  1.0000
  C   C2        1.0  0.96252  0.25985  0.86007  1.0000
  C   C3        1.0  0.25986  0.96253  0.36007  1.0000
  C   C4        1.0  0.03748  0.74014  0.13993  1.0000
  C   C5        1.0  0.76336  0.90852  0.56682  1.0000
  C   C6        1.0  0.09149  0.23662  0.93318  1.0000
  C   C7        1.0  0.23665  0.09149  0.43318  1.0000
  C   C8        1.0  0.90852  0.76337  0.06682  1.0000
  C   C9        1.0  0.53757  0.63207  0.60688  1.0000
  C   C10       1.0  0.36794  0.46242  0.89312  1.0000
  C   C11       1.0  0.46243  0.36794  0.39312  1.0000
  C   C12       1.0  0.63207  0.53757  0.10688  1.0000
  C   C13       1.0  0.40026  0.56213  0.60298  1.0000
  C   C14       1.0  0.43788  0.59973  0.89702  1.0000
  C   C15       1.0  0.59974  0.43788  0.39702  1.0000
  C   C16       1.0  0.56213  0.40027  0.10298  1.0000
  C   C17       1.0  0.25913  0.63050  0.54892  1.0000
  C   C18       1.0  0.36951  0.74086  0.95107  1.0000
  C   C19       1.0  0.74086  0.36951  0.45108  1.0000
  C   C20       1.0  0.63049  0.25914  0.04892  1.0000
  C   C21       1.0  0.15292  0.42639  0.59858  1.0000
  C   C22       1.0  0.57361  0.84707  0.90142  1.0000
  C   C23       1.0  0.84708  0.57361  0.40142  1.0000
  C   C24       1.0  0.42638  0.15292  0.09858  1.0000
  C   C25       1.0  0.29487  0.35606  0.65175  1.0000
  C   C26       1.0  0.64394  0.70512  0.84825  1.0000
  C   C27       1.0  0.70513  0.64394  0.34824  1.0000
  C   C28       1.0  0.35606  0.29488  0.15175  1.0000
  N   N1        1.0  0.69570  0.77512  0.59063  1.0000
  N   N2        1.0  0.22489  0.30429  0.90936  1.0000
  N   N3        1.0  0.30430  0.22489  0.40936  1.0000
  N   N4        1.0  0.77512  0.69571  0.09063  1.0000
  N   N5        1.0  0.77741  0.64914  0.64529  1.0000
  N   N6        1.0  0.35086  0.22258  0.85470  1.0000
  N   N7        1.0  0.22259  0.35087  0.35471  1.0000
  N   N8        1.0  0.64914  0.77742  0.14529  1.0000
  N   N9        1.0  0.67847  0.55709  0.65562  1.0000
  N   N10       1.0  0.44292  0.32152  0.84438  1.0000
  N   N11       1.0  0.32152  0.44292  0.34439  1.0000
  N   N12       1.0  0.55709  0.67848  0.15561  1.0000
  N   N13       1.0  0.54548  0.77170  0.56481  1.0000
  N   N14       1.0  0.22831  0.45451  0.93519  1.0000
  N   N15       1.0  0.45452  0.22831  0.43519  1.0000
  N   N16       1.0  0.77170  0.54549  0.06481  1.0000
  N   N17       1.0  0.13530  0.56313  0.54726  1.0000
  N   N18       1.0  0.43687  0.86468  0.95274  1.0000
  N   N19       1.0  0.86469  0.43687  0.45274  1.0000
  N   N20       1.0  0.56312  0.13532  0.04726  1.0000
  N   N21       1.0  0.41749  0.42461  0.65440  1.0000
  N   N22       1.0  0.57540  0.58250  0.84560  1.0000
  N   N23       1.0  0.58252  0.57540  0.34560  1.0000
  N   N24       1.0  0.42460  0.41749  0.15440  1.0000
  O   O1        1.0  0.85259  0.18745  0.87490  1.0000
  O   O2        1.0  0.81251  0.14743  0.62510  1.0000
  O   O3        1.0  0.14742  0.81254  0.12510  1.0000
  O   O4        1.0  0.18749  0.85257  0.37490  1.0000
  O   O5        1.0  0.96860  0.34854  0.79401  1.0000
  O   O6        1.0  0.65146  0.03137  0.70600  1.0000
  O   O7        1.0  0.03138  0.65147  0.20599  1.0000
  O   O8        1.0  0.34854  0.96862  0.29400  1.0000
