data_image0
_chemical_formula_structural       CoH14C14N12O6
_chemical_formula_sum              "Co1 H14 C14 N12 O6"
_cell_length_a       6.94047
_cell_length_b       8.26387
_cell_length_c       9.35627
_cell_angle_alpha    68.0863
_cell_angle_beta     81.7388
_cell_angle_gamma    91.3392

_space_group_name_H-M_alt    "P 1"
_space_group_IT_number       1

loop_
  _space_group_symop_operation_xyz
  'x, y, z'

loop_
  _atom_site_type_symbol
  _atom_site_label
  _atom_site_symmetry_multiplicity
  _atom_site_fract_x
  _atom_site_fract_y
  _atom_site_fract_z
  _atom_site_occupancy
  Co  Co1       1.0  0.00000  1.00000  1.00000  1.0000
  H   H1        1.0  0.20505  0.33669  0.91591  1.0000
  H   H2        1.0  0.79496  0.66333  0.08410  1.0000
  H   H3        1.0  0.04124  0.27632  0.06780  1.0000
  H   H4        1.0  0.95877  0.72368  0.93221  1.0000
  H   H5        1.0  0.54235  0.00772  0.68368  1.0000
  H   H6        1.0  0.45768  0.99228  0.31632  1.0000
  H   H7        1.0  0.59717  0.85029  0.86344  1.0000
  H   H8        1.0  0.40283  0.14969  0.13655  1.0000
  H   H9        1.0  0.80718  0.32700  0.89059  1.0000
  H   H10       1.0  0.19283  0.67299  0.10943  1.0000
  H   H11       1.0  0.92777  0.17599  0.43439  1.0000
  H   H12       1.0  0.07220  0.82401  0.56561  1.0000
  H   H13       1.0  0.02677  0.98276  0.68952  1.0000
  H   H14       1.0  0.97321  0.01724  0.31047  1.0000
  C   C1        1.0  0.29242  0.85051  0.83624  1.0000
  C   C2        1.0  0.70759  0.14949  0.16375  1.0000
  C   C3        1.0  0.51023  0.87325  0.76936  1.0000
  C   C4        1.0  0.48977  0.12676  0.23064  1.0000
  C   C5        1.0  0.83165  0.28880  0.79077  1.0000
  C   C6        1.0  0.16836  0.71120  0.20923  1.0000
  C   C7        1.0  0.77534  0.39270  0.64927  1.0000
  C   C8        1.0  0.22466  0.60730  0.35074  1.0000
  C   C9        1.0  0.68169  0.55288  0.63656  1.0000
  C   C10       1.0  0.31831  0.44712  0.36344  1.0000
  C   C11       1.0  0.89913  0.20800  0.53808  1.0000
  C   C12       1.0  0.10084  0.79201  0.46193  1.0000
  C   C13       1.0  0.95452  0.10107  0.67786  1.0000
  C   C14       1.0  0.04547  0.89892  0.32214  1.0000
  N   N1        1.0  0.57104  0.75836  0.68933  1.0000
  N   N2        1.0  0.42897  0.24164  0.31067  1.0000
  N   N3        1.0  0.63645  0.60314  0.75748  1.0000
  N   N4        1.0  0.36355  0.39687  0.24252  1.0000
  N   N5        1.0  0.81087  0.35429  0.52103  1.0000
  N   N6        1.0  0.18911  0.64570  0.47898  1.0000
  N   N7        1.0  0.64329  0.67445  0.50060  1.0000
  N   N8        1.0  0.35669  0.32554  0.49940  1.0000
  N   N9        1.0  0.57394  0.80390  0.53537  1.0000
  N   N10       1.0  0.42605  0.19609  0.46462  1.0000
  N   N11       1.0  0.92169  0.14212  0.80573  1.0000
  N   N12       1.0  0.07831  0.85788  0.19428  1.0000
  O   O1        1.0  0.24699  0.96846  0.89093  1.0000
  O   O2        1.0  0.75301  0.03154  0.10906  1.0000
  O   O3        1.0  0.15539  0.23803  0.01269  1.0000
  O   O4        1.0  0.84463  0.76198  0.98731  1.0000
  O   O5        1.0  0.18184  0.72880  0.83400  1.0000
  O   O6        1.0  0.81817  0.27119  0.16599  1.0000
