data_image0
_chemical_formula_structural       Ti4P4H36C8N8O20
_chemical_formula_sum              "Ti4 P4 H36 C8 N8 O20"
_cell_length_a       7.29227
_cell_length_b       9.21081
_cell_length_c       9.96399
_cell_angle_alpha    100.095
_cell_angle_beta     90
_cell_angle_gamma    89.9999

_space_group_name_H-M_alt    "P 1"
_space_group_IT_number       1

loop_
  _space_group_symop_operation_xyz
  'x, y, z'

loop_
  _atom_site_type_symbol
  _atom_site_label
  _atom_site_symmetry_multiplicity
  _atom_site_fract_x
  _atom_site_fract_y
  _atom_site_fract_z
  _atom_site_occupancy
  Ti  Ti1       1.0  0.86217  0.50895  0.76821  1.0000
  Ti  Ti2       1.0  0.63783  0.50895  0.26821  1.0000
  Ti  Ti3       1.0  0.13783  0.49105  0.23180  1.0000
  Ti  Ti4       1.0  0.36217  0.49105  0.73180  1.0000
  P   P1        1.0  0.86429  0.71125  0.08646  1.0000
  P   P2        1.0  0.63570  0.71125  0.58646  1.0000
  P   P3        1.0  0.13571  0.28875  0.91354  1.0000
  P   P4        1.0  0.36430  0.28875  0.41354  1.0000
  H   H1        1.0  0.87706  0.40106  0.49429  1.0000
  H   H2        1.0  0.62294  0.40106  0.99429  1.0000
  H   H3        1.0  0.12294  0.59893  0.50571  1.0000
  H   H4        1.0  0.37706  0.59894  0.00571  1.0000
  H   H5        1.0  0.04813  0.33396  0.56924  1.0000
  H   H6        1.0  0.45187  0.33397  0.06924  1.0000
  H   H7        1.0  0.95186  0.66604  0.43076  1.0000
  H   H8        1.0  0.54813  0.66604  0.93076  1.0000
  H   H9        1.0  0.75028  0.93608  0.28168  1.0000
  H   H10       1.0  0.74973  0.93608  0.78168  1.0000
  H   H11       1.0  0.24972  0.06392  0.71832  1.0000
  H   H12       1.0  0.25028  0.06392  0.21832  1.0000
  H   H13       1.0  0.57841  0.04448  0.36828  1.0000
  H   H14       1.0  0.92159  0.04448  0.86828  1.0000
  H   H15       1.0  0.42159  0.95552  0.63171  1.0000
  H   H16       1.0  0.07841  0.95552  0.13172  1.0000
  H   H17       1.0  0.70170  0.93374  0.45055  1.0000
  H   H18       1.0  0.79830  0.93374  0.95054  1.0000
  H   H19       1.0  0.29830  0.06626  0.54945  1.0000
  H   H20       1.0  0.20171  0.06627  0.04946  1.0000
  H   H21       1.0  0.83604  0.19412  0.33752  1.0000
  H   H22       1.0  0.66396  0.19412  0.83752  1.0000
  H   H23       1.0  0.16396  0.80588  0.66248  1.0000
  H   H24       1.0  0.33604  0.80588  0.16248  1.0000
  H   H25       1.0  0.98569  0.07229  0.40331  1.0000
  H   H26       1.0  0.51431  0.07229  0.90331  1.0000
  H   H27       1.0  0.01431  0.92771  0.59668  1.0000
  H   H28       1.0  0.48569  0.92771  0.09668  1.0000
  H   H29       1.0  0.66589  0.22992  0.57119  1.0000
  H   H30       1.0  0.83411  0.22992  0.07119  1.0000
  H   H31       1.0  0.33411  0.77007  0.42881  1.0000
  H   H32       1.0  0.16589  0.77008  0.92881  1.0000
  H   H33       1.0  0.85802  0.14612  0.63416  1.0000
  H   H34       1.0  0.64199  0.14612  0.13415  1.0000
  H   H35       1.0  0.14199  0.85388  0.36584  1.0000
  H   H36       1.0  0.35801  0.85388  0.86584  1.0000
  C   C1        1.0  0.84744  0.12018  0.41238  1.0000
  C   C2        1.0  0.65257  0.12018  0.91237  1.0000
  C   C3        1.0  0.15256  0.87982  0.58762  1.0000
  C   C4        1.0  0.34744  0.87982  0.08763  1.0000
  C   C5        1.0  0.81275  0.20745  0.55496  1.0000
  C   C6        1.0  0.68725  0.20745  0.05496  1.0000
  C   C7        1.0  0.18725  0.79255  0.44504  1.0000
  C   C8        1.0  0.31275  0.79255  0.94504  1.0000
  N   N1        1.0  0.90875  0.34944  0.57487  1.0000
  N   N2        1.0  0.59125  0.34944  0.07487  1.0000
  N   N3        1.0  0.09125  0.65056  0.42513  1.0000
  N   N4        1.0  0.40875  0.65056  0.92513  1.0000
  N   N5        1.0  0.71141  0.99921  0.37568  1.0000
  N   N6        1.0  0.78859  0.99921  0.87567  1.0000
  N   N7        1.0  0.28859  0.00079  0.62432  1.0000
  N   N8        1.0  0.21141  0.00079  0.12433  1.0000
  O   O1        1.0  0.84926  0.67108  0.92907  1.0000
  O   O2        1.0  0.65074  0.67108  0.42907  1.0000
  O   O3        1.0  0.15074  0.32892  0.07093  1.0000
  O   O4        1.0  0.34926  0.32892  0.57093  1.0000
  O   O5        1.0  0.13480  0.55127  0.72855  1.0000
  O   O6        1.0  0.36520  0.55127  0.22855  1.0000
  O   O7        1.0  0.86521  0.44873  0.27145  1.0000
  O   O8        1.0  0.63479  0.44873  0.77145  1.0000
  O   O9        1.0  0.86801  0.88145  0.12535  1.0000
  O   O10       1.0  0.63199  0.88145  0.62535  1.0000
  O   O11       1.0  0.13199  0.11855  0.87465  1.0000
  O   O12       1.0  0.36801  0.11855  0.37465  1.0000
  O   O13       1.0  0.04261  0.64457  0.13408  1.0000
  O   O14       1.0  0.45739  0.64457  0.63408  1.0000
  O   O15       1.0  0.95739  0.35543  0.86593  1.0000
  O   O16       1.0  0.54261  0.35543  0.36592  1.0000
  O   O17       1.0  0.69116  0.65433  0.15037  1.0000
  O   O18       1.0  0.80884  0.65432  0.65037  1.0000
  O   O19       1.0  0.30884  0.34568  0.84963  1.0000
  O   O20       1.0  0.19116  0.34568  0.34963  1.0000
