data_image0
_chemical_formula_structural       H24Pb2C16O10
_chemical_formula_sum              "H24 Pb2 C16 O10"
_cell_length_a       7.24699
_cell_length_b       7.86439
_cell_length_c       8.63673
_cell_angle_alpha    98.1945
_cell_angle_beta     88.992
_cell_angle_gamma    89.9891

_space_group_name_H-M_alt    "P 1"
_space_group_IT_number       1

loop_
  _space_group_symop_operation_xyz
  'x, y, z'

loop_
  _atom_site_type_symbol
  _atom_site_label
  _atom_site_symmetry_multiplicity
  _atom_site_fract_x
  _atom_site_fract_y
  _atom_site_fract_z
  _atom_site_occupancy
  H   H1        1.0  0.35955  0.65047  0.28059  1.0000
  H   H2        1.0  0.64041  0.35000  0.71933  1.0000
  H   H3        1.0  0.13364  0.64488  0.28259  1.0000
  H   H4        1.0  0.86634  0.35442  0.71749  1.0000
  H   H5        1.0  0.25576  0.07564  0.52885  1.0000
  H   H6        1.0  0.74554  0.92437  0.47122  1.0000
  H   H7        1.0  0.95522  0.18224  0.46200  1.0000
  H   H8        1.0  0.45119  0.80802  0.54867  1.0000
  H   H9        1.0  0.04535  0.81644  0.53864  1.0000
  H   H10       1.0  0.54932  0.19304  0.45074  1.0000
  H   H11       1.0  0.05682  0.33961  0.36305  1.0000
  H   H12       1.0  0.56188  0.65627  0.64638  1.0000
  H   H13       1.0  0.94250  0.65971  0.63761  1.0000
  H   H14       1.0  0.43753  0.34428  0.35319  1.0000
  H   H15       1.0  0.95381  0.09466  0.17058  1.0000
  H   H16       1.0  0.45029  0.90296  0.83869  1.0000
  H   H17       1.0  0.04612  0.90487  0.82991  1.0000
  H   H18       1.0  0.54961  0.09768  0.16084  1.0000
  H   H19       1.0  0.07968  0.94776  0.26422  1.0000
  H   H20       1.0  0.57278  0.04927  0.73905  1.0000
  H   H21       1.0  0.92088  0.05174  0.73577  1.0000
  H   H22       1.0  0.42782  0.95119  0.26076  1.0000
  H   H23       1.0  0.25196  0.99823  0.03594  1.0000
  H   H24       1.0  0.74796  0.00190  0.96404  1.0000
  Pb  Pb1       1.0  0.25028  0.58605  0.92484  1.0000
  Pb  Pb2       1.0  0.74906  0.41401  0.07514  1.0000
  C   C1        1.0  0.25205  0.20030  0.48329  1.0000
  C   C2        1.0  0.74849  0.79965  0.51673  1.0000
  C   C3        1.0  0.07522  0.20774  0.38914  1.0000
  C   C4        1.0  0.57336  0.78787  0.61756  1.0000
  C   C5        1.0  0.92491  0.79158  0.61126  1.0000
  C   C6        1.0  0.42677  0.21266  0.38212  1.0000
  C   C7        1.0  0.07896  0.08036  0.23785  1.0000
  C   C8        1.0  0.57501  0.91739  0.76736  1.0000
  C   C9        1.0  0.92120  0.91922  0.76237  1.0000
  C   C10       1.0  0.42513  0.08304  0.23238  1.0000
  C   C11       1.0  0.25157  0.10166  0.13712  1.0000
  C   C12       1.0  0.74828  0.89842  0.86289  1.0000
  C   C13       1.0  0.25141  0.33732  0.62759  1.0000
  C   C14       1.0  0.74893  0.66272  0.37238  1.0000
  C   C15       1.0  0.25012  0.26623  0.06268  1.0000
  C   C16       1.0  0.74913  0.73386  0.93734  1.0000
  O   O1        1.0  0.40435  0.38708  0.68977  1.0000
  O   O2        1.0  0.90181  0.59859  0.31600  1.0000
  O   O3        1.0  0.59596  0.61418  0.30952  1.0000
  O   O4        1.0  0.09829  0.40037  0.68455  1.0000
  O   O5        1.0  0.09787  0.32979  0.02517  1.0000
  O   O6        1.0  0.59734  0.66189  0.96730  1.0000
  O   O7        1.0  0.90113  0.67042  0.97562  1.0000
  O   O8        1.0  0.40175  0.33804  0.03189  1.0000
  O   O9        1.0  0.24602  0.67761  0.22692  1.0000
  O   O10       1.0  0.75367  0.32226  0.77309  1.0000
