data_image0
_chemical_formula_structural       Er2H42C34N2O14
_chemical_formula_sum              "Er2 H42 C34 N2 O14"
_cell_length_a       8.16562
_cell_length_b       10.3254
_cell_length_c       11.6795
_cell_angle_alpha    108.87
_cell_angle_beta     106.11
_cell_angle_gamma    97.4571

_space_group_name_H-M_alt    "P 1"
_space_group_IT_number       1

loop_
  _space_group_symop_operation_xyz
  'x, y, z'

loop_
  _atom_site_type_symbol
  _atom_site_label
  _atom_site_symmetry_multiplicity
  _atom_site_fract_x
  _atom_site_fract_y
  _atom_site_fract_z
  _atom_site_occupancy
  Er  Er1       1.0  0.58520  0.92426  0.84692  1.0000
  Er  Er2       1.0  0.41480  0.07574  0.15309  1.0000
  H   H1        1.0  0.97172  0.61680  0.92095  1.0000
  H   H2        1.0  0.02828  0.38319  0.07904  1.0000
  H   H3        1.0  0.61839  0.43866  0.71279  1.0000
  H   H4        1.0  0.38160  0.56134  0.28722  1.0000
  H   H5        1.0  0.95144  0.35350  0.84511  1.0000
  H   H6        1.0  0.04856  0.64651  0.15489  1.0000
  H   H7        1.0  0.81182  0.26468  0.68052  1.0000
  H   H8        1.0  0.18818  0.73532  0.31948  1.0000
  H   H9        1.0  0.72993  0.25875  0.80276  1.0000
  H   H10       1.0  0.27008  0.74124  0.19725  1.0000
  H   H11       1.0  0.06372  0.67145  0.47066  1.0000
  H   H12       1.0  0.93628  0.32854  0.52934  1.0000
  H   H13       1.0  0.96622  0.68772  0.70966  1.0000
  H   H14       1.0  0.03379  0.31227  0.29034  1.0000
  H   H15       1.0  0.74181  0.56642  0.41858  1.0000
  H   H16       1.0  0.25818  0.43358  0.58142  1.0000
  H   H17       1.0  0.66626  0.65057  0.54755  1.0000
  H   H18       1.0  0.33375  0.34942  0.45245  1.0000
  H   H19       1.0  0.71486  0.48605  0.52749  1.0000
  H   H20       1.0  0.28514  0.51394  0.47252  1.0000
  H   H21       1.0  0.36350  0.35263  0.00099  1.0000
  H   H22       1.0  0.63651  0.64737  0.99901  1.0000
  H   H23       1.0  0.36079  0.30070  0.72633  1.0000
  H   H24       1.0  0.63923  0.69930  0.27367  1.0000
  H   H25       1.0  0.26164  0.53336  0.92386  1.0000
  H   H26       1.0  0.73836  0.46663  0.07614  1.0000
  H   H27       1.0  0.14597  0.45990  0.75445  1.0000
  H   H28       1.0  0.85403  0.54009  0.24554  1.0000
  H   H29       1.0  0.36182  0.56303  0.81358  1.0000
  H   H30       1.0  0.63817  0.43697  0.18642  1.0000
  H   H31       1.0  0.00651  0.02535  0.85178  1.0000
  H   H32       1.0  0.99348  0.97465  0.14822  1.0000
  H   H33       1.0  0.17691  0.05113  0.71418  1.0000
  H   H34       1.0  0.82308  0.94887  0.28582  1.0000
  H   H35       1.0  0.68591  0.93683  0.40086  1.0000
  H   H36       1.0  0.31408  0.06317  0.59914  1.0000
  H   H37       1.0  0.53609  0.90863  0.54987  1.0000
  H   H38       1.0  0.46390  0.09137  0.45013  1.0000
  H   H39       1.0  0.78081  0.15744  0.08630  1.0000
  H   H40       1.0  0.21919  0.84256  0.91370  1.0000
  H   H41       1.0  0.93247  0.13296  0.02665  1.0000
  H   H42       1.0  0.06754  0.86703  0.97335  1.0000
  C   C1        1.0  0.75742  0.70806  0.84719  1.0000
  C   C2        1.0  0.24259  0.29194  0.15281  1.0000
  C   C3        1.0  0.83800  0.58976  0.85358  1.0000
  C   C4        1.0  0.16199  0.41024  0.14642  1.0000
  C   C5        1.0  0.75087  0.45535  0.77896  1.0000
  C   C6        1.0  0.24912  0.54465  0.22104  1.0000
  C   C7        1.0  0.81698  0.32809  0.77824  1.0000
  C   C8        1.0  0.18302  0.67191  0.22176  1.0000
  C   C9        1.0  0.25380  0.77386  0.66485  1.0000
  C   C10       1.0  0.74620  0.22614  0.33516  1.0000
  C   C11       1.0  0.07766  0.69555  0.57155  1.0000
  C   C12       1.0  0.92234  0.30444  0.42845  1.0000
  C   C13       1.0  0.94073  0.65979  0.60668  1.0000
  C   C14       1.0  0.05927  0.34020  0.39332  1.0000
  C   C15       1.0  0.75744  0.58742  0.51953  1.0000
  C   C16       1.0  0.24257  0.41258  0.48047  1.0000
  C   C17       1.0  0.44026  0.17020  0.89109  1.0000
  C   C18       1.0  0.55974  0.82981  0.10892  1.0000
  C   C19       1.0  0.38095  0.30169  0.90926  1.0000
  C   C20       1.0  0.61905  0.69832  0.09074  1.0000
  C   C21       1.0  0.34255  0.35590  0.81752  1.0000
  C   C22       1.0  0.65745  0.64410  0.18248  1.0000
  C   C23       1.0  0.27485  0.48470  0.82941  1.0000
  C   C24       1.0  0.72515  0.51530  0.17059  1.0000
  C   C25       1.0  0.93872  0.00589  0.75111  1.0000
  C   C26       1.0  0.06128  0.99411  0.24889  1.0000
  C   C27       1.0  0.03485  0.02182  0.67327  1.0000
  C   C28       1.0  0.96514  0.97818  0.32673  1.0000
  C   C29       1.0  0.94988  0.99483  0.54303  1.0000
  C   C30       1.0  0.05010  0.00517  0.45697  1.0000
  C   C31       1.0  0.76543  0.95645  0.49937  1.0000
  C   C32       1.0  0.23457  0.04355  0.50063  1.0000
  C   C33       1.0  0.67871  0.94203  0.58315  1.0000
  C   C34       1.0  0.32128  0.05797  0.41685  1.0000
  N   N1        1.0  0.76189  0.96412  0.70769  1.0000
  N   N2        1.0  0.23811  0.03588  0.29232  1.0000
  O   O1        1.0  0.84795  0.83651  0.91500  1.0000
  O   O2        1.0  0.15205  0.16349  0.08500  1.0000
  O   O3        1.0  0.59805  0.68660  0.77705  1.0000
  O   O4        1.0  0.40196  0.31340  0.22295  1.0000
  O   O5        1.0  0.28656  0.81235  0.78755  1.0000
  O   O6        1.0  0.71344  0.18766  0.21245  1.0000
  O   O7        1.0  0.37740  0.80730  0.62527  1.0000
  O   O8        1.0  0.62260  0.19271  0.37474  1.0000
  O   O9        1.0  0.48471  0.11113  0.79374  1.0000
  O   O10       1.0  0.51529  0.88888  0.20626  1.0000
  O   O11       1.0  0.44434  0.11091  0.97308  1.0000
  O   O12       1.0  0.55566  0.88911  0.02693  1.0000
  O   O13       1.0  0.80267  0.12356  0.00284  1.0000
  O   O14       1.0  0.19734  0.87644  0.99716  1.0000
