data_image0
_chemical_formula_structural       Nd2H42C34N2O14
_chemical_formula_sum              "Nd2 H42 C34 N2 O14"
_cell_length_a       8.30028
_cell_length_b       10.3979
_cell_length_c       11.7861
_cell_angle_alpha    108.454
_cell_angle_beta     107.021
_cell_angle_gamma    97.2545

_space_group_name_H-M_alt    "P 1"
_space_group_IT_number       1

loop_
  _space_group_symop_operation_xyz
  'x, y, z'

loop_
  _atom_site_type_symbol
  _atom_site_label
  _atom_site_symmetry_multiplicity
  _atom_site_fract_x
  _atom_site_fract_y
  _atom_site_fract_z
  _atom_site_occupancy
  Nd  Nd1       1.0  0.58446  0.92436  0.84555  1.0000
  Nd  Nd2       1.0  0.41554  0.07564  0.15445  1.0000
  H   H1        1.0  0.96924  0.60781  0.91767  1.0000
  H   H2        1.0  0.03076  0.39220  0.08234  1.0000
  H   H3        1.0  0.62144  0.43081  0.70702  1.0000
  H   H4        1.0  0.37856  0.56920  0.29299  1.0000
  H   H5        1.0  0.95332  0.34746  0.83969  1.0000
  H   H6        1.0  0.04668  0.65254  0.16032  1.0000
  H   H7        1.0  0.81475  0.26125  0.67529  1.0000
  H   H8        1.0  0.18525  0.73875  0.32472  1.0000
  H   H9        1.0  0.73491  0.25199  0.79538  1.0000
  H   H10       1.0  0.26510  0.74802  0.20463  1.0000
  H   H11       1.0  0.04939  0.67234  0.46566  1.0000
  H   H12       1.0  0.95061  0.32765  0.53435  1.0000
  H   H13       1.0  0.96213  0.68112  0.70354  1.0000
  H   H14       1.0  0.03785  0.31887  0.29645  1.0000
  H   H15       1.0  0.73410  0.56006  0.41446  1.0000
  H   H16       1.0  0.26590  0.43994  0.58554  1.0000
  H   H17       1.0  0.66123  0.64062  0.54266  1.0000
  H   H18       1.0  0.33877  0.35938  0.45733  1.0000
  H   H19       1.0  0.71593  0.47977  0.52381  1.0000
  H   H20       1.0  0.28406  0.52022  0.47618  1.0000
  H   H21       1.0  0.36076  0.35373  0.99915  1.0000
  H   H22       1.0  0.63924  0.64627  0.00085  1.0000
  H   H23       1.0  0.36208  0.31404  0.72996  1.0000
  H   H24       1.0  0.63792  0.68596  0.27004  1.0000
  H   H25       1.0  0.25857  0.53704  0.92550  1.0000
  H   H26       1.0  0.74143  0.46296  0.07450  1.0000
  H   H27       1.0  0.14440  0.46671  0.75666  1.0000
  H   H28       1.0  0.85560  0.53328  0.24334  1.0000
  H   H29       1.0  0.35654  0.57108  0.81830  1.0000
  H   H30       1.0  0.64346  0.42892  0.18170  1.0000
  H   H31       1.0  0.00701  0.03028  0.84997  1.0000
  H   H32       1.0  0.99299  0.96972  0.15003  1.0000
  H   H33       1.0  0.17550  0.05804  0.71555  1.0000
  H   H34       1.0  0.82449  0.94196  0.28445  1.0000
  H   H35       1.0  0.68980  0.92716  0.39652  1.0000
  H   H36       1.0  0.31019  0.07283  0.60348  1.0000
  H   H37       1.0  0.54215  0.89944  0.54325  1.0000
  H   H38       1.0  0.45786  0.10056  0.45675  1.0000
  H   H39       1.0  0.79272  0.16329  0.09463  1.0000
  H   H40       1.0  0.20728  0.83672  0.90537  1.0000
  H   H41       1.0  0.94221  0.14403  0.03547  1.0000
  H   H42       1.0  0.05779  0.85598  0.96454  1.0000
  C   C1        1.0  0.75513  0.69742  0.84319  1.0000
  C   C2        1.0  0.24488  0.30259  0.15681  1.0000
  C   C3        1.0  0.83689  0.58072  0.84960  1.0000
  C   C4        1.0  0.16312  0.41929  0.15040  1.0000
  C   C5        1.0  0.75271  0.44767  0.77373  1.0000
  C   C6        1.0  0.24728  0.55233  0.22628  1.0000
  C   C7        1.0  0.82016  0.32208  0.77235  1.0000
  C   C8        1.0  0.17984  0.67793  0.22766  1.0000
  C   C9        1.0  0.24122  0.77219  0.65860  1.0000
  C   C10       1.0  0.75878  0.22781  0.34140  1.0000
  C   C11       1.0  0.06612  0.69435  0.56592  1.0000
  C   C12       1.0  0.93388  0.30564  0.43409  1.0000
  C   C13       1.0  0.93408  0.65523  0.60126  1.0000
  C   C14       1.0  0.06591  0.34477  0.39874  1.0000
  C   C15       1.0  0.75304  0.58065  0.51506  1.0000
  C   C16       1.0  0.24695  0.41934  0.48494  1.0000
  C   C17       1.0  0.44197  0.17852  0.88859  1.0000
  C   C18       1.0  0.55802  0.82148  0.11142  1.0000
  C   C19       1.0  0.37999  0.30766  0.90876  1.0000
  C   C20       1.0  0.62000  0.69234  0.09124  1.0000
  C   C21       1.0  0.34172  0.36495  0.81960  1.0000
  C   C22       1.0  0.65828  0.63505  0.18040  1.0000
  C   C23       1.0  0.27195  0.49143  0.83216  1.0000
  C   C24       1.0  0.72805  0.50857  0.16784  1.0000
  C   C25       1.0  0.94047  0.00768  0.74870  1.0000
  C   C26       1.0  0.05952  0.99232  0.25130  1.0000
  C   C27       1.0  0.03520  0.02452  0.67268  1.0000
  C   C28       1.0  0.96479  0.97548  0.32731  1.0000
  C   C29       1.0  0.95068  0.99401  0.54206  1.0000
  C   C30       1.0  0.04932  0.00598  0.45793  1.0000
  C   C31       1.0  0.76855  0.95038  0.49571  1.0000
  C   C32       1.0  0.23145  0.04962  0.50429  1.0000
  C   C33       1.0  0.68319  0.93563  0.57790  1.0000
  C   C34       1.0  0.31682  0.06437  0.42210  1.0000
  N   N1        1.0  0.76616  0.96244  0.70298  1.0000
  N   N2        1.0  0.23384  0.03756  0.29702  1.0000
  O   O1        1.0  0.84525  0.82461  0.91217  1.0000
  O   O2        1.0  0.15475  0.17540  0.08783  1.0000
  O   O3        1.0  0.59743  0.67529  0.77226  1.0000
  O   O4        1.0  0.40258  0.32472  0.22774  1.0000
  O   O5        1.0  0.27534  0.80624  0.78019  1.0000
  O   O6        1.0  0.72467  0.19375  0.21981  1.0000
  O   O7        1.0  0.36042  0.80777  0.61849  1.0000
  O   O8        1.0  0.63957  0.19223  0.38151  1.0000
  O   O9        1.0  0.48667  0.12518  0.79243  1.0000
  O   O10       1.0  0.51333  0.87482  0.20757  1.0000
  O   O11       1.0  0.44664  0.11605  0.96812  1.0000
  O   O12       1.0  0.55337  0.88395  0.03188  1.0000
  O   O13       1.0  0.81301  0.12926  0.01205  1.0000
  O   O14       1.0  0.18699  0.87075  0.98795  1.0000
