data_image0
_chemical_formula_structural       Ho2H42C34N2O14
_chemical_formula_sum              "Ho2 H42 C34 N2 O14"
_cell_length_a       8.1843
_cell_length_b       10.3366
_cell_length_c       11.6966
_cell_angle_alpha    108.707
_cell_angle_beta     106.146
_cell_angle_gamma    97.5299

_space_group_name_H-M_alt    "P 1"
_space_group_IT_number       1

loop_
  _space_group_symop_operation_xyz
  'x, y, z'

loop_
  _atom_site_type_symbol
  _atom_site_label
  _atom_site_symmetry_multiplicity
  _atom_site_fract_x
  _atom_site_fract_y
  _atom_site_fract_z
  _atom_site_occupancy
  Ho  Ho1       1.0  0.58509  0.92479  0.84708  1.0000
  Ho  Ho2       1.0  0.41491  0.07521  0.15292  1.0000
  H   H1        1.0  0.97013  0.61620  0.92099  1.0000
  H   H2        1.0  0.02986  0.38379  0.07901  1.0000
  H   H3        1.0  0.61883  0.43909  0.71132  1.0000
  H   H4        1.0  0.38116  0.56091  0.28867  1.0000
  H   H5        1.0  0.94978  0.35355  0.84515  1.0000
  H   H6        1.0  0.05021  0.64645  0.15485  1.0000
  H   H7        1.0  0.81420  0.26676  0.67988  1.0000
  H   H8        1.0  0.18580  0.73324  0.32012  1.0000
  H   H9        1.0  0.72808  0.25781  0.79919  1.0000
  H   H10       1.0  0.27192  0.74218  0.20080  1.0000
  H   H11       1.0  0.06414  0.67049  0.47107  1.0000
  H   H12       1.0  0.93586  0.32951  0.52893  1.0000
  H   H13       1.0  0.96530  0.68898  0.70941  1.0000
  H   H14       1.0  0.03470  0.31102  0.29059  1.0000
  H   H15       1.0  0.74341  0.56455  0.41836  1.0000
  H   H16       1.0  0.25659  0.43545  0.58164  1.0000
  H   H17       1.0  0.66660  0.65063  0.54538  1.0000
  H   H18       1.0  0.33340  0.34937  0.45462  1.0000
  H   H19       1.0  0.71508  0.48689  0.52870  1.0000
  H   H20       1.0  0.28493  0.51311  0.47130  1.0000
  H   H21       1.0  0.36293  0.35188  0.00058  1.0000
  H   H22       1.0  0.63708  0.64812  0.99942  1.0000
  H   H23       1.0  0.36175  0.30231  0.72713  1.0000
  H   H24       1.0  0.63825  0.69768  0.27287  1.0000
  H   H25       1.0  0.26079  0.53258  0.92389  1.0000
  H   H26       1.0  0.73921  0.46743  0.07611  1.0000
  H   H27       1.0  0.14635  0.46010  0.75473  1.0000
  H   H28       1.0  0.85365  0.53990  0.24527  1.0000
  H   H29       1.0  0.36158  0.56372  0.81462  1.0000
  H   H30       1.0  0.63842  0.43628  0.18538  1.0000
  H   H31       1.0  0.00632  0.02675  0.85152  1.0000
  H   H32       1.0  0.99369  0.97325  0.14849  1.0000
  H   H33       1.0  0.17652  0.05216  0.71413  1.0000
  H   H34       1.0  0.82349  0.94785  0.28588  1.0000
  H   H35       1.0  0.68648  0.93593  0.40078  1.0000
  H   H36       1.0  0.31352  0.06407  0.59922  1.0000
  H   H37       1.0  0.53697  0.90809  0.54950  1.0000
  H   H38       1.0  0.46304  0.09192  0.45050  1.0000
  H   H39       1.0  0.78199  0.15822  0.08662  1.0000
  H   H40       1.0  0.21800  0.84178  0.91338  1.0000
  H   H41       1.0  0.93351  0.13395  0.02731  1.0000
  H   H42       1.0  0.06648  0.86605  0.97269  1.0000
  C   C1        1.0  0.75682  0.70768  0.84683  1.0000
  C   C2        1.0  0.24318  0.29232  0.15316  1.0000
  C   C3        1.0  0.83707  0.58943  0.85317  1.0000
  C   C4        1.0  0.16293  0.41057  0.14683  1.0000
  C   C5        1.0  0.75058  0.45544  0.77787  1.0000
  C   C6        1.0  0.24942  0.54456  0.22213  1.0000
  C   C7        1.0  0.81658  0.32839  0.77693  1.0000
  C   C8        1.0  0.18342  0.67160  0.22307  1.0000
  C   C9        1.0  0.25321  0.77410  0.66501  1.0000
  C   C10       1.0  0.74679  0.22591  0.33499  1.0000
  C   C11       1.0  0.07761  0.69532  0.57176  1.0000
  C   C12       1.0  0.92238  0.30468  0.42824  1.0000
  C   C13       1.0  0.94052  0.66013  0.60663  1.0000
  C   C14       1.0  0.05948  0.33987  0.39337  1.0000
  C   C15       1.0  0.75800  0.58722  0.51922  1.0000
  C   C16       1.0  0.24200  0.41278  0.48078  1.0000
  C   C17       1.0  0.44060  0.17082  0.89069  1.0000
  C   C18       1.0  0.55939  0.82918  0.10931  1.0000
  C   C19       1.0  0.38093  0.30185  0.90919  1.0000
  C   C20       1.0  0.61907  0.69815  0.09081  1.0000
  C   C21       1.0  0.34282  0.35664  0.81787  1.0000
  C   C22       1.0  0.65718  0.64337  0.18212  1.0000
  C   C23       1.0  0.27473  0.48488  0.82984  1.0000
  C   C24       1.0  0.72528  0.51512  0.17016  1.0000
  C   C25       1.0  0.93874  0.00664  0.75086  1.0000
  C   C26       1.0  0.06126  0.99336  0.24914  1.0000
  C   C27       1.0  0.03475  0.02237  0.67313  1.0000
  C   C28       1.0  0.96526  0.97764  0.32687  1.0000
  C   C29       1.0  0.94997  0.99484  0.54296  1.0000
  C   C30       1.0  0.05004  0.00516  0.45704  1.0000
  C   C31       1.0  0.76590  0.95601  0.49921  1.0000
  C   C32       1.0  0.23410  0.04399  0.50079  1.0000
  C   C33       1.0  0.67933  0.94176  0.58290  1.0000
  C   C34       1.0  0.32067  0.05824  0.41711  1.0000
  N   N1        1.0  0.76231  0.96455  0.70738  1.0000
  N   N2        1.0  0.23770  0.03545  0.29262  1.0000
  O   O1        1.0  0.84740  0.83577  0.91490  1.0000
  O   O2        1.0  0.15260  0.16422  0.08510  1.0000
  O   O3        1.0  0.59794  0.68634  0.77652  1.0000
  O   O4        1.0  0.40206  0.31365  0.22347  1.0000
  O   O5        1.0  0.28571  0.81194  0.78737  1.0000
  O   O6        1.0  0.71429  0.18807  0.21263  1.0000
  O   O7        1.0  0.37628  0.80831  0.62547  1.0000
  O   O8        1.0  0.62373  0.19169  0.37453  1.0000
  O   O9        1.0  0.48486  0.11273  0.79342  1.0000
  O   O10       1.0  0.51514  0.88726  0.20658  1.0000
  O   O11       1.0  0.44504  0.11092  0.97230  1.0000
  O   O12       1.0  0.55495  0.88908  0.02770  1.0000
  O   O13       1.0  0.80389  0.12425  0.00344  1.0000
  O   O14       1.0  0.19611  0.87574  0.99656  1.0000
