data_image0
_chemical_formula_structural       Cu2H48C40S4I2O6
_chemical_formula_sum              "Cu2 H48 C40 S4 I2 O6"
_cell_length_a       9.56988
_cell_length_b       10.1722
_cell_length_c       12.8227
_cell_angle_alpha    103.761
_cell_angle_beta     103.095
_cell_angle_gamma    94.0039

_space_group_name_H-M_alt    "P 1"
_space_group_IT_number       1

loop_
  _space_group_symop_operation_xyz
  'x, y, z'

loop_
  _atom_site_type_symbol
  _atom_site_label
  _atom_site_symmetry_multiplicity
  _atom_site_fract_x
  _atom_site_fract_y
  _atom_site_fract_z
  _atom_site_occupancy
  Cu  Cu1       1.0  0.57578  0.55515  0.61695  1.0000
  Cu  Cu2       1.0  0.42421  0.44485  0.38304  1.0000
  H   H1        1.0  0.05979  0.23430  0.00742  1.0000
  H   H2        1.0  0.94021  0.76570  0.99257  1.0000
  H   H3        1.0  0.96647  0.12339  0.87540  1.0000
  H   H4        1.0  0.03353  0.87661  0.12461  1.0000
  H   H5        1.0  0.92728  0.06457  0.05294  1.0000
  H   H6        1.0  0.07272  0.93544  0.94706  1.0000
  H   H7        1.0  0.81739  0.20003  0.06438  1.0000
  H   H8        1.0  0.18261  0.79997  0.93562  1.0000
  H   H9        1.0  0.76594  0.99787  0.12805  1.0000
  H   H10       1.0  0.23406  0.00214  0.87195  1.0000
  H   H11       1.0  0.62250  0.81182  0.16536  1.0000
  H   H12       1.0  0.37750  0.18819  0.83464  1.0000
  H   H13       1.0  0.43397  0.65062  0.01169  1.0000
  H   H14       1.0  0.56602  0.34938  0.98831  1.0000
  H   H15       1.0  0.39257  0.68070  0.82034  1.0000
  H   H16       1.0  0.60743  0.31930  0.17966  1.0000
  H   H17       1.0  0.55052  0.97457  0.74694  1.0000
  H   H18       1.0  0.44948  0.02542  0.25306  1.0000
  H   H19       1.0  0.42640  0.81821  0.69733  1.0000
  H   H20       1.0  0.57360  0.18179  0.30267  1.0000
  H   H21       1.0  0.70221  0.76912  0.50638  1.0000
  H   H22       1.0  0.29779  0.23089  0.49362  1.0000
  H   H23       1.0  0.53181  0.82367  0.51535  1.0000
  H   H24       1.0  0.46818  0.17633  0.48464  1.0000
  H   H25       1.0  0.82318  0.00830  0.62254  1.0000
  H   H26       1.0  0.17681  0.99169  0.37746  1.0000
  H   H27       1.0  0.70662  0.00456  0.49048  1.0000
  H   H28       1.0  0.29338  0.99544  0.50952  1.0000
  H   H29       1.0  0.66755  0.25728  0.58601  1.0000
  H   H30       1.0  0.33245  0.74272  0.41400  1.0000
  H   H31       1.0  0.79021  0.23271  0.70452  1.0000
  H   H32       1.0  0.20979  0.76728  0.29548  1.0000
  H   H33       1.0  0.60405  0.25121  0.81019  1.0000
  H   H34       1.0  0.39595  0.74879  0.18981  1.0000
  H   H35       1.0  0.46658  0.23934  0.68759  1.0000
  H   H36       1.0  0.53342  0.76065  0.31241  1.0000
  H   H37       1.0  0.74059  0.63537  0.89657  1.0000
  H   H38       1.0  0.25941  0.36463  0.10343  1.0000
  H   H39       1.0  0.73393  0.48475  0.94306  1.0000
  H   H40       1.0  0.26607  0.51526  0.05694  1.0000
  H   H41       1.0  0.89529  0.66048  0.76614  1.0000
  H   H42       1.0  0.10472  0.33952  0.23385  1.0000
  H   H43       1.0  0.12650  0.61284  0.71462  1.0000
  H   H44       1.0  0.87351  0.38716  0.28539  1.0000
  H   H45       1.0  0.24991  0.42269  0.76699  1.0000
  H   H46       1.0  0.75009  0.57731  0.23303  1.0000
  H   H47       1.0  0.14139  0.27712  0.86513  1.0000
  H   H48       1.0  0.85861  0.72289  0.13488  1.0000
  C   C1        1.0  0.95247  0.19639  0.95007  1.0000
  C   C2        1.0  0.04753  0.80361  0.04993  1.0000
  C   C3        1.0  0.85975  0.12516  0.00604  1.0000
  C   C4        1.0  0.14024  0.87484  0.99396  1.0000
  C   C5        1.0  0.66534  0.94077  0.95138  1.0000
  C   C6        1.0  0.33466  0.05923  0.04862  1.0000
  C   C7        1.0  0.68693  0.92674  0.05971  1.0000
  C   C8        1.0  0.31306  0.07327  0.94029  1.0000
  C   C9        1.0  0.60393  0.82198  0.08078  1.0000
  C   C10       1.0  0.39606  0.17802  0.91922  1.0000
  C   C11       1.0  0.49823  0.73274  0.99549  1.0000
  C   C12       1.0  0.50178  0.26726  0.00451  1.0000
  C   C13       1.0  0.47510  0.74941  0.88806  1.0000
  C   C14       1.0  0.52490  0.25058  0.11194  1.0000
  C   C15       1.0  0.55754  0.85192  0.86399  1.0000
  C   C16       1.0  0.44247  0.14808  0.13601  1.0000
  C   C17       1.0  0.53395  0.86762  0.74849  1.0000
  C   C18       1.0  0.46606  0.13237  0.25151  1.0000
  C   C19       1.0  0.64729  0.84035  0.55730  1.0000
  C   C20       1.0  0.35270  0.15965  0.44269  1.0000
  C   C21       1.0  0.70940  0.98679  0.57292  1.0000
  C   C22       1.0  0.29060  0.01321  0.42707  1.0000
  C   C23       1.0  0.67552  0.21526  0.65882  1.0000
  C   C24       1.0  0.32448  0.78474  0.34118  1.0000
  C   C25       1.0  0.57992  0.27957  0.73121  1.0000
  C   C26       1.0  0.42008  0.72042  0.26879  1.0000
  C   C27       1.0  0.74687  0.52519  0.87335  1.0000
  C   C28       1.0  0.25313  0.47481  0.12665  1.0000
  C   C29       1.0  0.88591  0.49627  0.84350  1.0000
  C   C30       1.0  0.11409  0.50374  0.15651  1.0000
  C   C31       1.0  0.95012  0.57681  0.78832  1.0000
  C   C32       1.0  0.04989  0.42319  0.21169  1.0000
  C   C33       1.0  0.07990  0.55108  0.76012  1.0000
  C   C34       1.0  0.92010  0.44892  0.23989  1.0000
  C   C35       1.0  0.14807  0.44322  0.78834  1.0000
  C   C36       1.0  0.85194  0.55679  0.21166  1.0000
  C   C37       1.0  0.08643  0.36055  0.84338  1.0000
  C   C38       1.0  0.91357  0.63945  0.15663  1.0000
  C   C39       1.0  0.95525  0.38630  0.87014  1.0000
  C   C40       1.0  0.04475  0.61370  0.12987  1.0000
  S   S1        1.0  0.66802  0.78276  0.68312  1.0000
  S   S2        1.0  0.33198  0.21723  0.31688  1.0000
  S   S3        1.0  0.58104  0.46267  0.76178  1.0000
  S   S4        1.0  0.41896  0.53732  0.23822  1.0000
  I   I1        1.0  0.71124  0.46078  0.46449  1.0000
  I   I2        1.0  0.28874  0.53922  0.53551  1.0000
  O   O1        1.0  0.88449  0.30741  0.92051  1.0000
  O   O2        1.0  0.11551  0.69259  0.07950  1.0000
  O   O3        1.0  0.74363  0.03740  0.92211  1.0000
  O   O4        1.0  0.25637  0.96260  0.07789  1.0000
  O   O5        1.0  0.62222  0.07297  0.62692  1.0000
  O   O6        1.0  0.37777  0.92703  0.37307  1.0000
