data_image0
_chemical_formula_structural       Cd5H16C18N16Cl6O2
_chemical_formula_sum              "Cd5 H16 C18 N16 Cl6 O2"
_cell_length_a       8.81153
_cell_length_b       9.06727
_cell_length_c       10.0859
_cell_angle_alpha    73.9025
_cell_angle_beta     83.5435
_cell_angle_gamma    78.2876

_space_group_name_H-M_alt    "P 1"
_space_group_IT_number       1

loop_
  _space_group_symop_operation_xyz
  'x, y, z'

loop_
  _atom_site_type_symbol
  _atom_site_label
  _atom_site_symmetry_multiplicity
  _atom_site_fract_x
  _atom_site_fract_y
  _atom_site_fract_z
  _atom_site_occupancy
  Cd  Cd1       1.0  0.18637  0.93421  0.37783  1.0000
  Cd  Cd2       1.0  0.81363  0.06580  0.62217  1.0000
  Cd  Cd3       1.0  0.42154  0.88347  0.70757  1.0000
  Cd  Cd4       1.0  0.57846  0.11653  0.29242  1.0000
  Cd  Cd5       1.0  0.50000  0.50000  1.00000  1.0000
  H   H1        1.0  0.86099  0.53706  0.30406  1.0000
  H   H2        1.0  0.13901  0.46293  0.69594  1.0000
  H   H3        1.0  0.68428  0.78877  0.22101  1.0000
  H   H4        1.0  0.31572  0.21123  0.77899  1.0000
  H   H5        1.0  0.00610  0.90891  0.86900  1.0000
  H   H6        1.0  0.99391  0.09109  0.13100  1.0000
  H   H7        1.0  0.17293  0.65495  0.94662  1.0000
  H   H8        1.0  0.82707  0.34505  0.05338  1.0000
  H   H9        1.0  0.32976  0.54634  0.34599  1.0000
  H   H10       1.0  0.67024  0.45367  0.65401  1.0000
  H   H11       1.0  0.20332  0.43676  0.47073  1.0000
  H   H12       1.0  0.79668  0.56324  0.52927  1.0000
  H   H13       1.0  0.32837  0.53986  0.52483  1.0000
  H   H14       1.0  0.67163  0.46014  0.47516  1.0000
  H   H15       1.0  0.06310  0.67908  0.36328  1.0000
  H   H16       1.0  0.93691  0.32092  0.63672  1.0000
  C   C1        1.0  0.13141  0.43058  0.18394  1.0000
  C   C2        1.0  0.86859  0.56942  0.81606  1.0000
  C   C3        1.0  0.03223  0.58188  0.13503  1.0000
  C   C4        1.0  0.96776  0.41812  0.86497  1.0000
  C   C5        1.0  0.89312  0.62153  0.21079  1.0000
  C   C6        1.0  0.10688  0.37846  0.78921  1.0000
  C   C7        1.0  0.79401  0.76290  0.16317  1.0000
  C   C8        1.0  0.20599  0.23710  0.83683  1.0000
  C   C9        1.0  0.83391  0.86828  0.03950  1.0000
  C   C10       1.0  0.16610  0.13172  0.96049  1.0000
  C   C11       1.0  0.73712  0.01989  0.98593  1.0000
  C   C12       1.0  0.26288  0.98010  0.01407  1.0000
  C   C13       1.0  0.97305  0.82831  0.96467  1.0000
  C   C14       1.0  0.02695  0.17169  0.03533  1.0000
  C   C15       1.0  0.07014  0.68618  0.01064  1.0000
  C   C16       1.0  0.92986  0.31381  0.98936  1.0000
  C   C17       1.0  0.25726  0.54116  0.44212  1.0000
  C   C18       1.0  0.74274  0.45884  0.55787  1.0000
  N   N1        1.0  0.08053  0.30976  0.27713  1.0000
  N   N2        1.0  0.91947  0.69024  0.72287  1.0000
  N   N3        1.0  0.20234  0.19509  0.29306  1.0000
  N   N4        1.0  0.79766  0.80491  0.70694  1.0000
  N   N5        1.0  0.32416  0.24122  0.21474  1.0000
  N   N6        1.0  0.67584  0.75878  0.78526  1.0000
  N   N7        1.0  0.28276  0.38996  0.14421  1.0000
  N   N8        1.0  0.71724  0.61004  0.85579  1.0000
  N   N9        1.0  0.73441  0.09884  0.85038  1.0000
  N   N10       1.0  0.26559  0.90116  0.14962  1.0000
  N   N11       1.0  0.64056  0.23662  0.84355  1.0000
  N   N12       1.0  0.35944  0.76338  0.15645  1.0000
  N   N13       1.0  0.58772  0.24239  0.96872  1.0000
  N   N14       1.0  0.41228  0.75761  0.03128  1.0000
  N   N15       1.0  0.64502  0.10833  0.06113  1.0000
  N   N16       1.0  0.35498  0.89167  0.93887  1.0000
  Cl  Cl1       1.0  0.13159  0.00276  0.62378  1.0000
  Cl  Cl2       1.0  0.86841  0.99724  0.37622  1.0000
  Cl  Cl3       1.0  0.48597  0.85395  0.42686  1.0000
  Cl  Cl4       1.0  0.51403  0.14605  0.57314  1.0000
  Cl  Cl5       1.0  0.37271  0.60254  0.76211  1.0000
  Cl  Cl6       1.0  0.62729  0.39746  0.23789  1.0000
  O   O1        1.0  0.13655  0.67953  0.42899  1.0000
  O   O2        1.0  0.86345  0.32047  0.57101  1.0000
