data_image0
_chemical_formula_structural       Zn2H48C42N4O8
_chemical_formula_sum              "Zn2 H48 C42 N4 O8"
_cell_length_a       10.0463
_cell_length_b       10.8171
_cell_length_c       11.8976
_cell_angle_alpha    81.26
_cell_angle_beta     90.4556
_cell_angle_gamma    71.6393

_space_group_name_H-M_alt    "P 1"
_space_group_IT_number       1

loop_
  _space_group_symop_operation_xyz
  'x, y, z'

loop_
  _atom_site_type_symbol
  _atom_site_label
  _atom_site_symmetry_multiplicity
  _atom_site_fract_x
  _atom_site_fract_y
  _atom_site_fract_z
  _atom_site_occupancy
  Zn  Zn1       1.0  0.70384  0.08879  0.49059  1.0000
  Zn  Zn2       1.0  0.29615  0.91121  0.50941  1.0000
  H   H1        1.0  0.00129  0.30611  0.57649  1.0000
  H   H2        1.0  0.99870  0.69390  0.42350  1.0000
  H   H3        1.0  0.89259  0.34377  0.76582  1.0000
  H   H4        1.0  0.10740  0.65623  0.23417  1.0000
  H   H5        1.0  0.94195  0.47674  0.69182  1.0000
  H   H6        1.0  0.05804  0.52326  0.30818  1.0000
  H   H7        1.0  0.64389  0.45704  0.70278  1.0000
  H   H8        1.0  0.35610  0.54297  0.29722  1.0000
  H   H9        1.0  0.70758  0.56304  0.76997  1.0000
  H   H10       1.0  0.29242  0.43696  0.23003  1.0000
  H   H11       1.0  0.74944  0.67458  0.57768  1.0000
  H   H12       1.0  0.25055  0.32543  0.42233  1.0000
  H   H13       1.0  0.61062  0.49183  0.48714  1.0000
  H   H14       1.0  0.38937  0.50818  0.51285  1.0000
  H   H15       1.0  0.65106  0.62318  0.40383  1.0000
  H   H16       1.0  0.34894  0.37683  0.59617  1.0000
  H   H17       1.0  0.90384  0.51815  0.45922  1.0000
  H   H18       1.0  0.09615  0.48185  0.54078  1.0000
  H   H19       1.0  0.83840  0.40543  0.40111  1.0000
  H   H20       1.0  0.16160  0.59458  0.59889  1.0000
  H   H21       1.0  0.66302  0.85250  0.40087  1.0000
  H   H22       1.0  0.33699  0.14747  0.59913  1.0000
  H   H23       1.0  0.73103  0.74178  0.23225  1.0000
  H   H24       1.0  0.26899  0.25820  0.76775  1.0000
  H   H25       1.0  0.94830  0.02236  0.12234  1.0000
  H   H26       1.0  0.05171  0.97763  0.87767  1.0000
  H   H27       1.0  0.86485  0.12604  0.29351  1.0000
  H   H28       1.0  0.13515  0.87395  0.70651  1.0000
  H   H29       1.0  0.95776  0.85468  0.57100  1.0000
  H   H30       1.0  0.04223  0.14532  0.42900  1.0000
  H   H31       1.0  0.03796  0.68711  0.74490  1.0000
  H   H32       1.0  0.96204  0.31289  0.25510  1.0000
  H   H33       1.0  0.62080  0.83169  0.86469  1.0000
  H   H34       1.0  0.37919  0.16832  0.13531  1.0000
  H   H35       1.0  0.55779  0.99736  0.68709  1.0000
  H   H36       1.0  0.44221  0.00264  0.31291  1.0000
  H   H37       1.0  0.85720  0.89181  0.98149  1.0000
  H   H38       1.0  0.14281  0.10820  0.01852  1.0000
  H   H39       1.0  0.00723  0.77865  0.05870  1.0000
  H   H40       1.0  0.99278  0.22136  0.94130  1.0000
  H   H41       1.0  0.72214  0.73135  0.03863  1.0000
  H   H42       1.0  0.27787  0.26866  0.96137  1.0000
  H   H43       1.0  0.87603  0.61774  0.11094  1.0000
  H   H44       1.0  0.12398  0.38226  0.88906  1.0000
  H   H45       1.0  0.00022  0.60495  0.93192  1.0000
  H   H46       1.0  0.99978  0.39505  0.06807  1.0000
  H   H47       1.0  0.84518  0.56281  0.92173  1.0000
  H   H48       1.0  0.15482  0.43719  0.07828  1.0000
  C   C1        1.0  0.88785  0.35526  0.58317  1.0000
  C   C2        1.0  0.11215  0.64474  0.41682  1.0000
  C   C3        1.0  0.86701  0.42102  0.69017  1.0000
  C   C4        1.0  0.13299  0.57898  0.30983  1.0000
  C   C5        1.0  0.71732  0.51425  0.69445  1.0000
  C   C6        1.0  0.28268  0.48576  0.30555  1.0000
  C   C7        1.0  0.67470  0.61789  0.58682  1.0000
  C   C8        1.0  0.32530  0.38212  0.41318  1.0000
  C   C9        1.0  0.68432  0.54912  0.48151  1.0000
  C   C10       1.0  0.31568  0.45089  0.51849  1.0000
  C   C11       1.0  0.83366  0.45771  0.47395  1.0000
  C   C12       1.0  0.16634  0.54230  0.52605  1.0000
  C   C13       1.0  0.82075  0.24508  0.58908  1.0000
  C   C14       1.0  0.17924  0.75493  0.41092  1.0000
  C   C15       1.0  0.52937  0.71808  0.58888  1.0000
  C   C16       1.0  0.47062  0.28193  0.41112  1.0000
  C   C17       1.0  0.72664  0.88712  0.33684  1.0000
  C   C18       1.0  0.27337  0.11286  0.66317  1.0000
  C   C19       1.0  0.76492  0.82606  0.24171  1.0000
  C   C20       1.0  0.23510  0.17392  0.75829  1.0000
  C   C21       1.0  0.84567  0.87295  0.16108  1.0000
  C   C22       1.0  0.15435  0.12705  0.83892  1.0000
  C   C23       1.0  0.88400  0.98203  0.18115  1.0000
  C   C24       1.0  0.11600  0.01797  0.81885  1.0000
  C   C25       1.0  0.84004  0.03952  0.27650  1.0000
  C   C26       1.0  0.15997  0.96047  0.72351  1.0000
  C   C27       1.0  0.88517  0.84714  0.63776  1.0000
  C   C28       1.0  0.11483  0.15285  0.36224  1.0000
  C   C29       1.0  0.92987  0.75359  0.73581  1.0000
  C   C30       1.0  0.07012  0.24640  0.26419  1.0000
  C   C31       1.0  0.83713  0.74576  0.82151  1.0000
  C   C32       1.0  0.16287  0.25424  0.17849  1.0000
  C   C33       1.0  0.69967  0.83375  0.80273  1.0000
  C   C34       1.0  0.30033  0.16625  0.19727  1.0000
  C   C35       1.0  0.66269  0.92576  0.70347  1.0000
  C   C36       1.0  0.33731  0.07424  0.29653  1.0000
  C   C37       1.0  0.89119  0.81247  0.05602  1.0000
  C   C38       1.0  0.10883  0.18753  0.94398  1.0000
  C   C39       1.0  0.83763  0.69902  0.03871  1.0000
  C   C40       1.0  0.16238  0.30098  0.96129  1.0000
  C   C41       1.0  0.88487  0.64572  0.92840  1.0000
  C   C42       1.0  0.11513  0.35428  0.07160  1.0000
  N   N1        1.0  0.76309  0.99270  0.35370  1.0000
  N   N2        1.0  0.23692  0.00728  0.64630  1.0000
  N   N3        1.0  0.75386  0.93300  0.62254  1.0000
  N   N4        1.0  0.24614  0.06700  0.37746  1.0000
  O   O1        1.0  0.83800  0.18676  0.49877  1.0000
  O   O2        1.0  0.16198  0.81325  0.50123  1.0000
  O   O3        1.0  0.75614  0.21568  0.67227  1.0000
  O   O4        1.0  0.24386  0.78432  0.32773  1.0000
  O   O5        1.0  0.44621  0.70423  0.66321  1.0000
  O   O6        1.0  0.55379  0.29577  0.33679  1.0000
  O   O7        1.0  0.49848  0.81860  0.50502  1.0000
  O   O8        1.0  0.50152  0.18140  0.49497  1.0000
