data_image0
_chemical_formula_structural       Ni2H40C44N4O8
_chemical_formula_sum              "Ni2 H40 C44 N4 O8"
_cell_length_a       8.69726
_cell_length_b       8.69727
_cell_length_c       13.2264
_cell_angle_alpha    75.855
_cell_angle_beta     75.8552
_cell_angle_gamma    75.8252

_space_group_name_H-M_alt    "P 1"
_space_group_IT_number       1

loop_
  _space_group_symop_operation_xyz
  'x, y, z'

loop_
  _atom_site_type_symbol
  _atom_site_label
  _atom_site_symmetry_multiplicity
  _atom_site_fract_x
  _atom_site_fract_y
  _atom_site_fract_z
  _atom_site_occupancy
  Ni  Ni1       1.0  0.58408  0.41592  0.75000  1.0000
  Ni  Ni2       1.0  0.41591  0.58408  0.25000  1.0000
  H   H1        1.0  0.18912  0.61580  0.73453  1.0000
  H   H2        1.0  0.38420  0.81087  0.76547  1.0000
  H   H3        1.0  0.81087  0.38420  0.26547  1.0000
  H   H4        1.0  0.61580  0.18913  0.23453  1.0000
  H   H5        1.0  0.03640  0.78433  0.76409  1.0000
  H   H6        1.0  0.21567  0.96360  0.73592  1.0000
  H   H7        1.0  0.96360  0.21567  0.23592  1.0000
  H   H8        1.0  0.78433  0.03640  0.26408  1.0000
  H   H9        1.0  0.98451  0.62274  0.73119  1.0000
  H   H10       1.0  0.37725  0.01549  0.76881  1.0000
  H   H11       1.0  0.01548  0.37726  0.26881  1.0000
  H   H12       1.0  0.62274  0.98452  0.23119  1.0000
  H   H13       1.0  0.26415  0.17135  0.11766  1.0000
  H   H14       1.0  0.82865  0.73585  0.38234  1.0000
  H   H15       1.0  0.73584  0.82865  0.88235  1.0000
  H   H16       1.0  0.17135  0.26416  0.61765  1.0000
  H   H17       1.0  0.25944  0.33165  0.17864  1.0000
  H   H18       1.0  0.66834  0.74056  0.32136  1.0000
  H   H19       1.0  0.74056  0.66834  0.82136  1.0000
  H   H20       1.0  0.33166  0.25944  0.67864  1.0000
  H   H21       1.0  0.38331  0.32110  0.05310  1.0000
  H   H22       1.0  0.67890  0.61669  0.44690  1.0000
  H   H23       1.0  0.61669  0.67889  0.94691  1.0000
  H   H24       1.0  0.32111  0.38331  0.55309  1.0000
  H   H25       1.0  0.54867  0.15214  0.94074  1.0000
  H   H26       1.0  0.84786  0.45133  0.55926  1.0000
  H   H27       1.0  0.45133  0.84786  0.05926  1.0000
  H   H28       1.0  0.15214  0.54867  0.44074  1.0000
  H   H29       1.0  0.73243  0.94891  0.04679  1.0000
  H   H30       1.0  0.05109  0.26757  0.45321  1.0000
  H   H31       1.0  0.26757  0.05109  0.95321  1.0000
  H   H32       1.0  0.94892  0.73243  0.54679  1.0000
  H   H33       1.0  0.11406  0.20963  0.87234  1.0000
  H   H34       1.0  0.79037  0.88594  0.62766  1.0000
  H   H35       1.0  0.88594  0.79036  0.12766  1.0000
  H   H36       1.0  0.20964  0.11406  0.37234  1.0000
  H   H37       1.0  0.91379  0.39684  0.77445  1.0000
  H   H38       1.0  0.60317  0.08621  0.72555  1.0000
  H   H39       1.0  0.08621  0.60316  0.22555  1.0000
  H   H40       1.0  0.39684  0.91379  0.27445  1.0000
  C   C1        1.0  0.32267  0.44247  0.87677  1.0000
  C   C2        1.0  0.55754  0.67733  0.62324  1.0000
  C   C3        1.0  0.67733  0.55754  0.12324  1.0000
  C   C4        1.0  0.44246  0.32267  0.37676  1.0000
  C   C5        1.0  0.15539  0.47472  0.94122  1.0000
  C   C6        1.0  0.52528  0.84462  0.55878  1.0000
  C   C7        1.0  0.84461  0.52528  0.05879  1.0000
  C   C8        1.0  0.47472  0.15539  0.44121  1.0000
  C   C9        1.0  0.12784  0.40164  0.04960  1.0000
  C   C10       1.0  0.59836  0.87216  0.45040  1.0000
  C   C11       1.0  0.87216  0.59836  0.95041  1.0000
  C   C12       1.0  0.40164  0.12785  0.54960  1.0000
  C   C13       1.0  0.03090  0.57377  0.89052  1.0000
  C   C14       1.0  0.42623  0.96910  0.60948  1.0000
  C   C15       1.0  0.96909  0.42624  0.10948  1.0000
  C   C16       1.0  0.57377  0.03091  0.39052  1.0000
  C   C17       1.0  0.06363  0.65154  0.77453  1.0000
  C   C18       1.0  0.34846  0.93637  0.72547  1.0000
  C   C19       1.0  0.93637  0.34846  0.22547  1.0000
  C   C20       1.0  0.65154  0.06363  0.27453  1.0000
  C   C21       1.0  0.26562  0.30147  0.10169  1.0000
  C   C22       1.0  0.69853  0.73438  0.39831  1.0000
  C   C23       1.0  0.73438  0.69852  0.89831  1.0000
  C   C24       1.0  0.30147  0.26563  0.60169  1.0000
  C   C25       1.0  0.67505  0.15967  0.92967  1.0000
  C   C26       1.0  0.84033  0.32495  0.57033  1.0000
  C   C27       1.0  0.32495  0.84032  0.07033  1.0000
  C   C28       1.0  0.15968  0.67505  0.42967  1.0000
  C   C29       1.0  0.77940  0.04699  0.98831  1.0000
  C   C30       1.0  0.95301  0.22060  0.51169  1.0000
  C   C31       1.0  0.22060  0.95300  0.01169  1.0000
  C   C32       1.0  0.04700  0.77940  0.48831  1.0000
  C   C33       1.0  0.94253  0.05917  0.96998  1.0000
  C   C34       1.0  0.94083  0.05747  0.53001  1.0000
  C   C35       1.0  0.05747  0.94082  0.03001  1.0000
  C   C36       1.0  0.05918  0.94252  0.46999  1.0000
  C   C37       1.0  0.99087  0.18881  0.89145  1.0000
  C   C38       1.0  0.81119  0.00913  0.60855  1.0000
  C   C39       1.0  0.00913  0.81118  0.10854  1.0000
  C   C40       1.0  0.18881  0.99087  0.39146  1.0000
  C   C41       1.0  0.87890  0.29625  0.83632  1.0000
  C   C42       1.0  0.70375  0.12109  0.66368  1.0000
  C   C43       1.0  0.12109  0.70375  0.16368  1.0000
  C   C44       1.0  0.29625  0.87890  0.33632  1.0000
  N   N1        1.0  0.72313  0.28306  0.85406  1.0000
  N   N2        1.0  0.71694  0.27686  0.64594  1.0000
  N   N3        1.0  0.27687  0.71694  0.14594  1.0000
  N   N4        1.0  0.28306  0.72313  0.35406  1.0000
  O   O1        1.0  0.37036  0.31578  0.83462  1.0000
  O   O2        1.0  0.68423  0.62964  0.66538  1.0000
  O   O3        1.0  0.62964  0.68423  0.16539  1.0000
  O   O4        1.0  0.31577  0.37036  0.33461  1.0000
  O   O5        1.0  0.41651  0.54065  0.86192  1.0000
  O   O6        1.0  0.45935  0.58350  0.63808  1.0000
  O   O7        1.0  0.58349  0.45935  0.13808  1.0000
  O   O8        1.0  0.54065  0.41651  0.36192  1.0000
