data_image0
_chemical_formula_structural       V8Zn4H56C40N16O24
_chemical_formula_sum              "V8 Zn4 H56 C40 N16 O24"
_cell_length_a       9.18451
_cell_length_b       10.5591
_cell_length_c       18.4111
_cell_angle_alpha    97.2016
_cell_angle_beta     89.9854
_cell_angle_gamma    115.788

_space_group_name_H-M_alt    "P 1"
_space_group_IT_number       1

loop_
  _space_group_symop_operation_xyz
  'x, y, z'

loop_
  _atom_site_type_symbol
  _atom_site_label
  _atom_site_symmetry_multiplicity
  _atom_site_fract_x
  _atom_site_fract_y
  _atom_site_fract_z
  _atom_site_occupancy
  V   V1        1.0  0.91856  0.85302  0.33459  1.0000
  V   V2        1.0  0.93433  0.85309  0.83448  1.0000
  V   V3        1.0  0.22448  0.76126  0.38858  1.0000
  V   V4        1.0  0.53670  0.76135  0.88853  1.0000
  V   V5        1.0  0.31041  0.49562  0.31908  1.0000
  V   V6        1.0  0.18510  0.49565  0.81933  1.0000
  V   V7        1.0  0.60393  0.69416  0.22438  1.0000
  V   V8        1.0  0.09049  0.69415  0.72450  1.0000
  Zn  Zn1       1.0  0.25996  0.78189  0.56869  1.0000
  Zn  Zn2       1.0  0.52202  0.78182  0.06865  1.0000
  Zn  Zn3       1.0  0.99475  0.20108  0.35328  1.0000
  Zn  Zn4       1.0  0.20628  0.20113  0.85335  1.0000
  H   H1        1.0  0.13029  0.46868  0.48133  1.0000
  H   H2        1.0  0.33862  0.46873  0.98138  1.0000
  H   H3        1.0  0.07463  0.42463  0.62689  1.0000
  H   H4        1.0  0.34993  0.42465  0.12696  1.0000
  H   H5        1.0  0.92096  0.02677  0.49191  1.0000
  H   H6        1.0  0.10595  0.02684  0.99195  1.0000
  H   H7        1.0  0.01270  0.20141  0.68991  1.0000
  H   H8        1.0  0.18880  0.20158  0.18997  1.0000
  H   H9        1.0  0.94389  0.03482  0.63440  1.0000
  H   H10       1.0  0.09096  0.03493  0.13452  1.0000
  H   H11       1.0  0.73989  0.20118  0.66094  1.0000
  H   H12       1.0  0.46139  0.20139  0.16093  1.0000
  H   H13       1.0  0.67619  0.03225  0.60871  1.0000
  H   H14       1.0  0.35615  0.03247  0.10869  1.0000
  H   H15       1.0  0.56912  0.96956  0.72321  1.0000
  H   H16       1.0  0.40077  0.96984  0.22317  1.0000
  H   H17       1.0  0.75134  0.95419  0.72843  1.0000
  H   H18       1.0  0.20304  0.95417  0.22838  1.0000
  H   H19       1.0  0.74105  0.07361  0.84342  1.0000
  H   H20       1.0  0.33233  0.07361  0.34338  1.0000
  H   H21       1.0  0.88028  0.21307  0.79870  1.0000
  H   H22       1.0  0.33263  0.21308  0.29868  1.0000
  H   H23       1.0  0.80906  0.41753  0.78310  1.0000
  H   H24       1.0  0.60852  0.41768  0.28320  1.0000
  H   H25       1.0  0.53027  0.45707  0.80806  1.0000
  H   H26       1.0  0.92678  0.45720  0.30820  1.0000
  H   H27       1.0  0.43532  0.03772  0.83877  1.0000
  H   H28       1.0  0.60217  0.03785  0.33885  1.0000
  H   H29       1.0  0.25278  0.01967  0.69664  1.0000
  H   H30       1.0  0.76636  0.01964  0.19663  1.0000
  H   H31       1.0  0.35743  0.29939  0.67060  1.0000
  H   H32       1.0  0.94154  0.29934  0.17058  1.0000
  H   H33       1.0  0.41233  0.05274  0.48140  1.0000
  H   H34       1.0  0.64023  0.05261  0.98137  1.0000
  H   H35       1.0  0.43963  0.41806  0.55691  1.0000
  H   H36       1.0  0.97833  0.41794  0.05693  1.0000
  H   H37       1.0  0.42208  0.31361  0.47207  1.0000
  H   H38       1.0  0.89165  0.31351  0.97208  1.0000
  H   H39       1.0  0.68774  0.31171  0.50005  1.0000
  H   H40       1.0  0.62405  0.31170  0.99988  1.0000
  H   H41       1.0  0.71216  0.41820  0.58500  1.0000
  H   H42       1.0  0.70589  0.41813  0.08487  1.0000
  H   H43       1.0  0.85481  0.53368  0.46779  1.0000
  H   H44       1.0  0.67952  0.53371  0.96760  1.0000
  H   H45       1.0  0.66364  0.52301  0.44301  1.0000
  H   H46       1.0  0.86010  0.52296  0.94299  1.0000
  H   H47       1.0  0.87605  0.68112  0.58414  1.0000
  H   H48       1.0  0.80512  0.68095  0.08403  1.0000
  H   H49       1.0  0.85188  0.75725  0.50655  1.0000
  H   H50       1.0  0.90556  0.75719  0.00649  1.0000
  H   H51       1.0  0.55909  0.74957  0.48359  1.0000
  H   H52       1.0  0.19098  0.75006  0.98371  1.0000
  H   H53       1.0  0.40448  0.68569  0.69873  1.0000
  H   H54       1.0  0.28126  0.68592  0.19882  1.0000
  H   H55       1.0  0.67926  0.64033  0.68108  1.0000
  H   H56       1.0  0.96110  0.64052  0.18110  1.0000
  C   C1        1.0  0.07943  0.37050  0.50508  1.0000
  C   C2        1.0  0.29126  0.37055  0.00514  1.0000
  C   C3        1.0  0.05352  0.35061  0.57710  1.0000
  C   C4        1.0  0.29717  0.35067  0.07716  1.0000
  C   C5        1.0  0.97307  0.14113  0.50841  1.0000
  C   C6        1.0  0.16822  0.14119  0.00847  1.0000
  C   C7        1.0  0.93046  0.13396  0.64280  1.0000
  C   C8        1.0  0.20356  0.13408  0.14287  1.0000
  C   C9        1.0  0.75433  0.10225  0.65644  1.0000
  C   C10       1.0  0.34801  0.10243  0.15644  1.0000
  C   C11       1.0  0.70147  0.03108  0.72557  1.0000
  C   C12       1.0  0.32978  0.03121  0.22555  1.0000
  C   C13       1.0  0.75374  0.13359  0.79739  1.0000
  C   C14       1.0  0.37974  0.13365  0.29738  1.0000
  C   C15       1.0  0.68954  0.34618  0.79773  1.0000
  C   C16       1.0  0.65662  0.34633  0.29786  1.0000
  C   C17       1.0  0.55205  0.36454  0.81040  1.0000
  C   C18       1.0  0.81245  0.36469  0.31056  1.0000
  C   C19       1.0  0.49636  0.14702  0.82780  1.0000
  C   C20       1.0  0.65050  0.14715  0.32788  1.0000
  C   C21       1.0  0.30095  0.06839  0.64812  1.0000
  C   C22       1.0  0.76698  0.06834  0.14811  1.0000
  C   C23       1.0  0.35279  0.20674  0.63590  1.0000
  C   C24       1.0  0.85355  0.20669  0.13589  1.0000
  C   C25       1.0  0.38246  0.08115  0.53633  1.0000
  C   C26       1.0  0.69849  0.08107  0.03629  1.0000
  C   C27       1.0  0.47605  0.33986  0.52840  1.0000
  C   C28       1.0  0.86375  0.33975  0.02839  1.0000
  C   C29       1.0  0.66055  0.39652  0.52821  1.0000
  C   C30       1.0  0.73601  0.39646  0.02811  1.0000
  C   C31       1.0  0.74180  0.52921  0.48989  1.0000
  C   C32       1.0  0.78792  0.52918  0.98980  1.0000
  C   C33       1.0  0.79153  0.67064  0.53919  1.0000
  C   C34       1.0  0.87941  0.67063  0.03914  1.0000
  C   C35       1.0  0.55125  0.72644  0.53966  1.0000
  C   C36       1.0  0.17557  0.72690  0.03977  1.0000
  C   C37       1.0  0.47377  0.68892  0.65080  1.0000
  C   C38       1.0  0.21531  0.68922  0.15089  1.0000
  C   C39       1.0  0.60870  0.66513  0.64290  1.0000
  C   C40       1.0  0.05658  0.66543  0.14296  1.0000
  N   N1        1.0  0.02938  0.23900  0.46274  1.0000
  N   N2        1.0  0.20987  0.23904  0.96280  1.0000
  N   N3        1.0  0.98691  0.20547  0.57811  1.0000
  N   N4        1.0  0.21860  0.20554  0.07817  1.0000
  N   N5        1.0  0.65217  0.20869  0.80928  1.0000
  N   N6        1.0  0.55642  0.20883  0.30937  1.0000
  N   N7        1.0  0.43274  0.23933  0.82907  1.0000
  N   N8        1.0  0.80648  0.23945  0.32920  1.0000
  N   N9        1.0  0.31991  0.99094  0.58539  1.0000
  N   N10       1.0  0.67071  0.99089  0.08537  1.0000
  N   N11       1.0  0.40294  0.21256  0.56502  1.0000
  N   N12       1.0  0.80940  0.21247  0.06500  1.0000
  N   N13       1.0  0.65582  0.68925  0.57258  1.0000
  N   N14       1.0  0.03371  0.68955  0.07263  1.0000
  N   N15       1.0  0.43943  0.72782  0.58615  1.0000
  N   N16       1.0  0.28867  0.72820  0.08626  1.0000
  O   O1        1.0  0.79985  0.72032  0.25850  1.0000
  O   O2        1.0  0.92065  0.72055  0.75838  1.0000
  O   O3        1.0  0.56588  0.82528  0.25890  1.0000
  O   O4        1.0  0.25970  0.82527  0.75899  1.0000
  O   O5        1.0  0.45169  0.52824  0.24740  1.0000
  O   O6        1.0  0.07631  0.52828  0.74776  1.0000
  O   O7        1.0  0.16071  0.32880  0.29627  1.0000
  O   O8        1.0  0.16776  0.32879  0.79648  1.0000
  O   O9        1.0  0.40020  0.50778  0.39753  1.0000
  O   O10       1.0  0.10789  0.50801  0.89790  1.0000
  O   O11       1.0  0.21862  0.61551  0.32420  1.0000
  O   O12       1.0  0.39680  0.61545  0.82422  1.0000
  O   O13       1.0  0.40736  0.89032  0.40247  1.0000
  O   O14       1.0  0.48277  0.89030  0.90254  1.0000
  O   O15       1.0  0.09441  0.82660  0.35144  1.0000
  O   O16       1.0  0.73200  0.82673  0.85124  1.0000
  O   O17       1.0  0.15980  0.70299  0.46952  1.0000
  O   O18       1.0  0.54331  0.70306  0.96945  1.0000
  O   O19       1.0  0.97858  0.01781  0.31123  1.0000
  O   O20       1.0  0.03939  0.01789  0.81117  1.0000
  O   O21       1.0  0.81667  0.83877  0.40807  1.0000
  O   O22       1.0  0.02165  0.83864  0.90797  1.0000
  O   O23       1.0  0.08720  0.68240  0.63172  1.0000
  O   O24       1.0  0.59596  0.68268  0.13159  1.0000
