data_image0
_chemical_formula_structural       Ca4H52C16N4O32
_chemical_formula_sum              "Ca4 H52 C16 N4 O32"
_cell_length_a       6.48032
_cell_length_b       11.8646
_cell_length_c       13.9703
_cell_angle_alpha    67.9652
_cell_angle_beta     76.587
_cell_angle_gamma    74.1447

_space_group_name_H-M_alt    "P 1"
_space_group_IT_number       1

loop_
  _space_group_symop_operation_xyz
  'x, y, z'

loop_
  _atom_site_type_symbol
  _atom_site_label
  _atom_site_symmetry_multiplicity
  _atom_site_fract_x
  _atom_site_fract_y
  _atom_site_fract_z
  _atom_site_occupancy
  Ca  Ca1       1.0  0.33561  0.52536  0.71566  1.0000
  Ca  Ca2       1.0  0.57657  0.47463  0.28434  1.0000
  Ca  Ca3       1.0  0.56067  0.02467  0.21852  1.0000
  Ca  Ca4       1.0  0.80351  0.97539  0.78148  1.0000
  H   H1        1.0  0.83179  0.59048  0.72664  1.0000
  H   H2        1.0  0.14885  0.40954  0.27337  1.0000
  H   H3        1.0  0.93075  0.71472  0.68994  1.0000
  H   H4        1.0  0.33541  0.28529  0.31001  1.0000
  H   H5        1.0  0.85558  0.58147  0.56784  1.0000
  H   H6        1.0  0.00494  0.41854  0.43214  1.0000
  H   H7        1.0  0.69738  0.78608  0.45628  1.0000
  H   H8        1.0  0.93951  0.21413  0.54370  1.0000
  H   H9        1.0  0.81061  0.86156  0.51150  1.0000
  H   H10       1.0  0.18353  0.13847  0.48866  1.0000
  H   H11       1.0  0.70667  0.37806  0.85106  1.0000
  H   H12       1.0  0.93573  0.62184  0.14898  1.0000
  H   H13       1.0  0.62040  0.50908  0.86667  1.0000
  H   H14       1.0  0.99611  0.49084  0.13332  1.0000
  H   H15       1.0  0.11556  0.29753  0.82019  1.0000
  H   H16       1.0  0.23326  0.70236  0.17979  1.0000
  H   H17       1.0  0.25539  0.30351  0.70809  1.0000
  H   H18       1.0  0.26693  0.69649  0.29186  1.0000
  H   H19       1.0  0.15994  0.48504  0.94801  1.0000
  H   H20       1.0  0.59302  0.51494  0.05193  1.0000
  H   H21       1.0  0.96142  0.56311  0.88794  1.0000
  H   H22       1.0  0.41253  0.43688  0.11199  1.0000
  H   H23       1.0  0.70486  0.32395  0.66097  1.0000
  H   H24       1.0  0.68971  0.67610  0.33903  1.0000
  H   H25       1.0  0.57041  0.39390  0.56604  1.0000
  H   H26       1.0  0.53024  0.60619  0.43394  1.0000
  H   H27       1.0  0.00876  0.06861  0.19911  1.0000
  H   H28       1.0  0.27613  0.93125  0.80088  1.0000
  H   H29       1.0  0.84650  0.18554  0.22949  1.0000
  H   H30       1.0  0.26122  0.81433  0.77050  1.0000
  H   H31       1.0  0.81907  0.31284  0.06911  1.0000
  H   H32       1.0  0.20087  0.68701  0.93089  1.0000
  H   H33       1.0  0.18050  0.28811  0.95558  1.0000
  H   H34       1.0  0.42397  0.71185  0.04439  1.0000
  H   H35       1.0  0.25617  0.13519  0.04451  1.0000
  H   H36       1.0  0.43533  0.86481  0.95547  1.0000
  H   H37       1.0  0.20736  0.86711  0.35025  1.0000
  H   H38       1.0  0.42407  0.13279  0.64986  1.0000
  H   H39       1.0  0.12997  0.99962  0.36260  1.0000
  H   H40       1.0  0.49142  0.00029  0.63754  1.0000
  H   H41       1.0  0.91213  0.79103  0.31971  1.0000
  H   H42       1.0  0.02261  0.20905  0.68025  1.0000
  H   H43       1.0  0.87423  0.80288  0.20616  1.0000
  H   H44       1.0  0.88312  0.19710  0.79383  1.0000
  H   H45       1.0  0.49208  0.00579  0.44796  1.0000
  H   H46       1.0  0.94562  0.99435  0.55201  1.0000
  H   H47       1.0  0.68254  0.07612  0.39002  1.0000
  H   H48       1.0  0.14838  0.92397  0.61000  1.0000
  H   H49       1.0  0.45219  0.82657  0.15847  1.0000
  H   H50       1.0  0.43718  0.17352  0.84155  1.0000
  H   H51       1.0  0.61697  0.89769  0.06716  1.0000
  H   H52       1.0  0.58181  0.10234  0.93284  1.0000
  C   C1        1.0  0.12319  0.66918  0.49315  1.0000
  C   C2        1.0  0.28545  0.33093  0.50688  1.0000
  C   C3        1.0  0.90965  0.66138  0.56926  1.0000
  C   C4        1.0  0.14037  0.33863  0.43073  1.0000
  C   C5        1.0  0.74034  0.78030  0.52984  1.0000
  C   C6        1.0  0.05040  0.21977  0.47021  1.0000
  C   C7        1.0  0.52539  0.79883  0.59948  1.0000
  C   C8        1.0  0.92375  0.20120  0.40052  1.0000
  C   C9        1.0  0.83102  0.18685  0.99453  1.0000
  C   C10       1.0  0.01221  0.81301  0.00550  1.0000
  C   C11       1.0  0.91778  0.21983  0.07205  1.0000
  C   C12       1.0  0.20941  0.78005  0.92793  1.0000
  C   C13       1.0  0.15781  0.22875  0.03720  1.0000
  C   C14       1.0  0.42347  0.77121  0.96276  1.0000
  C   C15       1.0  0.23246  0.28435  0.10154  1.0000
  C   C16       1.0  0.61815  0.71567  0.89840  1.0000
  N   N1        1.0  0.95079  0.63324  0.67559  1.0000
  N   N2        1.0  0.25964  0.36676  0.32440  1.0000
  N   N3        1.0  0.87300  0.13627  0.17951  1.0000
  N   N4        1.0  0.18843  0.86361  0.82048  1.0000
  O   O1        1.0  0.30041  0.61845  0.52877  1.0000
  O   O2        1.0  0.44769  0.38151  0.47130  1.0000
  O   O3        1.0  0.11147  0.72790  0.39543  1.0000
  O   O4        1.0  0.23445  0.27231  0.60460  1.0000
  O   O5        1.0  0.41821  0.91241  0.57817  1.0000
  O   O6        1.0  0.90910  0.08761  0.42176  1.0000
  O   O7        1.0  0.45521  0.70958  0.67095  1.0000
  O   O8        1.0  0.83568  0.29045  0.32910  1.0000
  O   O9        1.0  0.60700  0.45908  0.82608  1.0000
  O   O10       1.0  0.89209  0.54083  0.17392  1.0000
  O   O11       1.0  0.25193  0.31853  0.77439  1.0000
  O   O12       1.0  0.34481  0.68145  0.22559  1.0000
  O   O13       1.0  0.12218  0.53809  0.87700  1.0000
  O   O14       1.0  0.53738  0.46186  0.12293  1.0000
  O   O15       1.0  0.62193  0.40580  0.62282  1.0000
  O   O16       1.0  0.65032  0.59430  0.37712  1.0000
  O   O17       1.0  0.69725  0.11602  0.02984  1.0000
  O   O18       1.0  0.84292  0.88399  0.97021  1.0000
  O   O19       1.0  0.88944  0.23978  0.89631  1.0000
  O   O20       1.0  0.02526  0.76007  0.10370  1.0000
  O   O21       1.0  0.20190  0.40389  0.07213  1.0000
  O   O22       1.0  0.67787  0.59615  0.92775  1.0000
  O   O23       1.0  0.31993  0.21388  0.18091  1.0000
  O   O24       1.0  0.71436  0.78620  0.81900  1.0000
  O   O25       1.0  0.24065  0.95091  0.32309  1.0000
  O   O26       1.0  0.51382  0.04894  0.67711  1.0000
  O   O27       1.0  0.80081  0.82038  0.27207  1.0000
  O   O28       1.0  0.89298  0.17972  0.72788  1.0000
  O   O29       1.0  0.54863  0.05962  0.37822  1.0000
  O   O30       1.0  0.98615  0.94055  0.62179  1.0000
  O   O31       1.0  0.49569  0.90771  0.12398  1.0000
  O   O32       1.0  0.52717  0.09234  0.87608  1.0000
