data_image0
_chemical_formula_structural       Zn4H16C20N8O16
_chemical_formula_sum              "Zn4 H16 C20 N8 O16"
_cell_length_a       8.26586
_cell_length_b       8.43047
_cell_length_c       9.41945
_cell_angle_alpha    90
_cell_angle_beta     90
_cell_angle_gamma    93.7774

_space_group_name_H-M_alt    "P 1"
_space_group_IT_number       1

loop_
  _space_group_symop_operation_xyz
  'x, y, z'

loop_
  _atom_site_type_symbol
  _atom_site_label
  _atom_site_symmetry_multiplicity
  _atom_site_fract_x
  _atom_site_fract_y
  _atom_site_fract_z
  _atom_site_occupancy
  Zn  Zn1       1.0  0.12072  0.37585  0.25787  1.0000
  Zn  Zn2       1.0  0.37928  0.62415  0.75787  1.0000
  Zn  Zn3       1.0  0.87928  0.62415  0.74213  1.0000
  Zn  Zn4       1.0  0.62072  0.37585  0.24212  1.0000
  H   H1        1.0  0.09363  0.77456  0.24830  1.0000
  H   H2        1.0  0.40637  0.22544  0.74830  1.0000
  H   H3        1.0  0.90637  0.22543  0.75170  1.0000
  H   H4        1.0  0.59363  0.77456  0.25170  1.0000
  H   H5        1.0  0.24264  0.16779  0.98533  1.0000
  H   H6        1.0  0.25736  0.83221  0.48533  1.0000
  H   H7        1.0  0.75736  0.83221  0.01467  1.0000
  H   H8        1.0  0.74264  0.16779  0.51467  1.0000
  H   H9        1.0  0.21954  0.83680  0.00067  1.0000
  H   H10       1.0  0.28046  0.16321  0.50067  1.0000
  H   H11       1.0  0.78046  0.16321  0.99933  1.0000
  H   H12       1.0  0.71954  0.83679  0.49933  1.0000
  H   H13       1.0  0.02692  0.02809  0.37510  1.0000
  H   H14       1.0  0.47308  0.97191  0.87511  1.0000
  H   H15       1.0  0.97308  0.97190  0.62490  1.0000
  H   H16       1.0  0.52692  0.02810  0.12489  1.0000
  C   C1        1.0  0.19470  0.08953  0.06836  1.0000
  C   C2        1.0  0.30530  0.91047  0.56836  1.0000
  C   C3        1.0  0.80530  0.91047  0.93165  1.0000
  C   C4        1.0  0.69470  0.08953  0.43164  1.0000
  C   C5        1.0  0.18388  0.92633  0.07461  1.0000
  C   C6        1.0  0.31612  0.07367  0.57461  1.0000
  C   C7        1.0  0.81612  0.07367  0.92540  1.0000
  C   C8        1.0  0.68388  0.92633  0.42539  1.0000
  C   C9        1.0  0.08380  0.02280  0.27190  1.0000
  C   C10       1.0  0.41621  0.97720  0.77190  1.0000
  C   C11       1.0  0.91620  0.97720  0.72810  1.0000
  C   C12       1.0  0.58379  0.02280  0.22810  1.0000
  C   C13       1.0  0.09104  0.52282  0.98152  1.0000
  C   C14       1.0  0.40895  0.47717  0.48152  1.0000
  C   C15       1.0  0.90895  0.47717  0.01848  1.0000
  C   C16       1.0  0.59105  0.52282  0.51848  1.0000
  C   C17       1.0  0.98555  0.41485  0.53030  1.0000
  C   C18       1.0  0.51446  0.58514  0.03030  1.0000
  C   C19       1.0  0.01446  0.58514  0.46970  1.0000
  C   C20       1.0  0.48555  0.41485  0.96970  1.0000
  N   N1        1.0  0.13306  0.14852  0.19281  1.0000
  N   N2        1.0  0.36695  0.85148  0.69281  1.0000
  N   N3        1.0  0.86694  0.85148  0.80719  1.0000
  N   N4        1.0  0.63306  0.14852  0.30719  1.0000
  N   N5        1.0  0.11344  0.88711  0.20372  1.0000
  N   N6        1.0  0.38656  0.11289  0.70372  1.0000
  N   N7        1.0  0.88656  0.11289  0.79628  1.0000
  N   N8        1.0  0.61344  0.88711  0.29628  1.0000
  O   O1        1.0  0.19582  0.49197  0.07374  1.0000
  O   O2        1.0  0.30418  0.50803  0.57375  1.0000
  O   O3        1.0  0.80418  0.50803  0.92625  1.0000
  O   O4        1.0  0.69582  0.49197  0.42626  1.0000
  O   O5        1.0  0.12054  0.58880  0.86221  1.0000
  O   O6        1.0  0.37946  0.41120  0.36221  1.0000
  O   O7        1.0  0.87946  0.41120  0.13779  1.0000
  O   O8        1.0  0.62054  0.58880  0.63779  1.0000
  O   O9        1.0  0.02039  0.29978  0.45316  1.0000
  O   O10       1.0  0.47961  0.70023  0.95316  1.0000
  O   O11       1.0  0.97961  0.70023  0.54684  1.0000
  O   O12       1.0  0.52039  0.29978  0.04684  1.0000
  O   O13       1.0  0.92654  0.40235  0.65493  1.0000
  O   O14       1.0  0.57346  0.59765  0.15492  1.0000
  O   O15       1.0  0.07346  0.59765  0.34508  1.0000
  O   O16       1.0  0.42654  0.40235  0.84507  1.0000
