data_image0
_chemical_formula_structural       Ag4H14C14S2Br2O16
_chemical_formula_sum              "Ag4 H14 C14 S2 Br2 O16"
_cell_length_a       6.61537
_cell_length_b       9.31867
_cell_length_c       10.1365
_cell_angle_alpha    83.587
_cell_angle_beta     75.9289
_cell_angle_gamma    86.406

_space_group_name_H-M_alt    "P 1"
_space_group_IT_number       1

loop_
  _space_group_symop_operation_xyz
  'x, y, z'

loop_
  _atom_site_type_symbol
  _atom_site_label
  _atom_site_symmetry_multiplicity
  _atom_site_fract_x
  _atom_site_fract_y
  _atom_site_fract_z
  _atom_site_occupancy
  Ag  Ag1       1.0  0.65801  0.02469  0.63970  1.0000
  Ag  Ag2       1.0  0.34199  0.97532  0.36030  1.0000
  Ag  Ag3       1.0  0.96815  0.65145  0.02543  1.0000
  Ag  Ag4       1.0  0.03185  0.34855  0.97457  1.0000
  H   H1        1.0  0.50270  0.10587  0.88806  1.0000
  H   H2        1.0  0.49729  0.89413  0.11195  1.0000
  H   H3        1.0  0.71135  0.19440  0.84691  1.0000
  H   H4        1.0  0.28865  0.80560  0.15310  1.0000
  H   H5        1.0  0.77184  0.94569  0.96850  1.0000
  H   H6        1.0  0.22816  0.05431  0.03150  1.0000
  H   H7        1.0  0.80538  0.95393  0.11434  1.0000
  H   H8        1.0  0.19462  0.04606  0.88567  1.0000
  H   H9        1.0  0.38420  0.25871  0.14166  1.0000
  H   H10       1.0  0.61580  0.74129  0.85834  1.0000
  H   H11       1.0  0.46892  0.68695  0.27090  1.0000
  H   H12       1.0  0.53108  0.31305  0.72909  1.0000
  H   H13       1.0  0.92624  0.39652  0.40804  1.0000
  H   H14       1.0  0.07376  0.60348  0.59196  1.0000
  C   C1        1.0  0.73375  0.30567  0.29856  1.0000
  C   C2        1.0  0.26625  0.69433  0.70144  1.0000
  C   C3        1.0  0.56780  0.32704  0.23239  1.0000
  C   C4        1.0  0.43220  0.67296  0.76761  1.0000
  C   C5        1.0  0.47342  0.46788  0.22058  1.0000
  C   C6        1.0  0.52658  0.53212  0.77942  1.0000
  C   C7        1.0  0.54308  0.57985  0.27804  1.0000
  C   C8        1.0  0.45692  0.42015  0.72196  1.0000
  C   C9        1.0  0.70381  0.55453  0.34496  1.0000
  C   C10       1.0  0.29619  0.44547  0.65504  1.0000
  C   C11       1.0  0.80012  0.41757  0.35564  1.0000
  C   C12       1.0  0.19988  0.58243  0.64436  1.0000
  C   C13       1.0  0.30407  0.49543  0.14704  1.0000
  C   C14       1.0  0.69593  0.50457  0.85296  1.0000
  S   S1        1.0  0.85371  0.13099  0.31675  1.0000
  S   S2        1.0  0.14629  0.86901  0.68325  1.0000
  Br  Br1       1.0  0.79477  0.70662  0.42341  1.0000
  Br  Br2       1.0  0.20522  0.29338  0.57659  1.0000
  O   O1        1.0  0.68800  0.04147  0.40869  1.0000
  O   O2        1.0  0.31200  0.95853  0.59131  1.0000
  O   O3        1.0  0.65787  0.09773  0.84654  1.0000
  O   O4        1.0  0.34213  0.90227  0.15346  1.0000
  O   O5        1.0  0.91614  0.08111  0.17967  1.0000
  O   O6        1.0  0.08386  0.91889  0.82033  1.0000
  O   O7        1.0  0.75098  0.88979  0.05929  1.0000
  O   O8        1.0  0.24902  0.11021  0.94071  1.0000
  O   O9        1.0  0.02850  0.14875  0.37753  1.0000
  O   O10       1.0  0.97150  0.85125  0.62247  1.0000
  O   O11       1.0  0.50285  0.21460  0.18383  1.0000
  O   O12       1.0  0.49716  0.78540  0.81617  1.0000
  O   O13       1.0  0.22285  0.62205  0.13273  1.0000
  O   O14       1.0  0.77715  0.37795  0.86727  1.0000
  O   O15       1.0  0.24952  0.38461  0.09997  1.0000
  O   O16       1.0  0.75048  0.61539  0.90003  1.0000
