data_image0
_chemical_formula_structural       Ag6H24C14S2N6O12
_chemical_formula_sum              "Ag6 H24 C14 S2 N6 O12"
_cell_length_a       6.16479
_cell_length_b       8.33379
_cell_length_c       12.8315
_cell_angle_alpha    90.3731
_cell_angle_beta     79.0153
_cell_angle_gamma    83.9152

_space_group_name_H-M_alt    "P 1"
_space_group_IT_number       1

loop_
  _space_group_symop_operation_xyz
  'x, y, z'

loop_
  _atom_site_type_symbol
  _atom_site_label
  _atom_site_symmetry_multiplicity
  _atom_site_fract_x
  _atom_site_fract_y
  _atom_site_fract_z
  _atom_site_occupancy
  Ag  Ag1       1.0  0.00000  0.00000  0.50000  1.0000
  Ag  Ag2       1.0  0.66391  0.88439  0.37919  1.0000
  Ag  Ag3       1.0  0.33610  0.11561  0.62081  1.0000
  Ag  Ag4       1.0  0.49999  0.00000  0.00000  1.0000
  Ag  Ag5       1.0  0.45443  0.67208  0.02919  1.0000
  Ag  Ag6       1.0  0.54558  0.32792  0.97081  1.0000
  H   H1        1.0  0.28254  0.78708  0.58387  1.0000
  H   H2        1.0  0.71746  0.21292  0.41613  1.0000
  H   H3        1.0  0.21157  0.69045  0.48398  1.0000
  H   H4        1.0  0.78843  0.30955  0.51602  1.0000
  H   H5        1.0  0.03556  0.72269  0.59739  1.0000
  H   H6        1.0  0.96444  0.27731  0.40261  1.0000
  H   H7        1.0  0.73415  0.57009  0.34624  1.0000
  H   H8        1.0  0.26585  0.42991  0.65376  1.0000
  H   H9        1.0  0.79946  0.61364  0.46195  1.0000
  H   H10       1.0  0.20054  0.38636  0.53805  1.0000
  H   H11       1.0  0.97745  0.63582  0.34746  1.0000
  H   H12       1.0  0.02255  0.36419  0.65254  1.0000
  H   H13       1.0  0.74482  0.55501  0.14294  1.0000
  H   H14       1.0  0.25517  0.44498  0.85706  1.0000
  H   H15       1.0  0.73709  0.75589  0.14309  1.0000
  H   H16       1.0  0.26290  0.24411  0.85691  1.0000
  H   H17       1.0  0.89453  0.65197  0.04220  1.0000
  H   H18       1.0  0.10547  0.34802  0.95780  1.0000
  H   H19       1.0  0.32740  0.86257  0.28926  1.0000
  H   H20       1.0  0.67260  0.13742  0.71074  1.0000
  H   H21       1.0  0.04633  0.87916  0.17634  1.0000
  H   H22       1.0  0.95366  0.12084  0.82366  1.0000
  H   H23       1.0  0.06365  0.39357  0.15971  1.0000
  H   H24       1.0  0.93636  0.60643  0.84029  1.0000
  C   C1        1.0  0.27484  0.26994  0.25444  1.0000
  C   C2        1.0  0.72516  0.73007  0.74556  1.0000
  C   C3        1.0  0.35592  0.11965  0.29423  1.0000
  C   C4        1.0  0.64408  0.88035  0.70577  1.0000
  C   C5        1.0  0.26658  0.98037  0.26264  1.0000
  C   C6        1.0  0.73343  0.01963  0.73736  1.0000
  C   C7        1.0  0.10941  0.98921  0.19830  1.0000
  C   C8        1.0  0.89061  0.01079  0.80170  1.0000
  C   C9        1.0  0.03235  0.13819  0.15969  1.0000
  C   C10       1.0  0.96765  0.86181  0.84031  1.0000
  C   C11       1.0  0.12019  0.27677  0.18791  1.0000
  C   C12       1.0  0.87982  0.72323  0.81209  1.0000
  C   C13       1.0  0.85900  0.14847  0.09404  1.0000
  C   C14       1.0  0.14100  0.85153  0.90596  1.0000
  S   S1        1.0  0.36561  0.45329  0.29130  1.0000
  S   S2        1.0  0.63439  0.54671  0.70871  1.0000
  N   N1        1.0  0.15332  0.77416  0.54484  1.0000
  N   N2        1.0  0.84668  0.22584  0.45515  1.0000
  N   N3        1.0  0.81357  0.64878  0.38451  1.0000
  N   N4        1.0  0.18643  0.35122  0.61549  1.0000
  N   N5        1.0  0.74744  0.65460  0.09607  1.0000
  N   N6        1.0  0.25256  0.34540  0.90393  1.0000
  O   O1        1.0  0.61000  0.43421  0.26439  1.0000
  O   O2        1.0  0.39000  0.56579  0.73561  1.0000
  O   O3        1.0  0.28156  0.47758  0.40681  1.0000
  O   O4        1.0  0.71844  0.52243  0.59319  1.0000
  O   O5        1.0  0.26199  0.58094  0.23158  1.0000
  O   O6        1.0  0.73801  0.41906  0.76842  1.0000
  O   O7        1.0  0.50053  0.11209  0.35729  1.0000
  O   O8        1.0  0.49948  0.88791  0.64271  1.0000
  O   O9        1.0  0.82962  0.27889  0.04273  1.0000
  O   O10       1.0  0.17038  0.72111  0.95727  1.0000
  O   O11       1.0  0.74962  0.02686  0.09305  1.0000
  O   O12       1.0  0.25037  0.97315  0.90695  1.0000
