data_image0
_chemical_formula_structural       Ag4H28C28S4O28
_chemical_formula_sum              "Ag4 H28 C28 S4 O28"
_cell_length_a       7.73575
_cell_length_b       10.9033
_cell_length_c       11.7833
_cell_angle_alpha    103.224
_cell_angle_beta     89.989
_cell_angle_gamma    110.779

_space_group_name_H-M_alt    "P 1"
_space_group_IT_number       1

loop_
  _space_group_symop_operation_xyz
  'x, y, z'

loop_
  _atom_site_type_symbol
  _atom_site_label
  _atom_site_symmetry_multiplicity
  _atom_site_fract_x
  _atom_site_fract_y
  _atom_site_fract_z
  _atom_site_occupancy
  Ag  Ag1       1.0  0.80973  0.97124  0.58870  1.0000
  Ag  Ag2       1.0  0.83851  0.02886  0.91124  1.0000
  Ag  Ag3       1.0  0.19027  0.02876  0.41130  1.0000
  Ag  Ag4       1.0  0.16149  0.97114  0.08876  1.0000
  H   H1        1.0  0.96794  0.21708  0.43713  1.0000
  H   H2        1.0  0.75087  0.78292  0.06276  1.0000
  H   H3        1.0  0.03206  0.78292  0.56287  1.0000
  H   H4        1.0  0.24913  0.21708  0.93724  1.0000
  H   H5        1.0  0.32820  0.76344  0.41169  1.0000
  H   H6        1.0  0.56451  0.23655  0.08836  1.0000
  H   H7        1.0  0.67180  0.23656  0.58831  1.0000
  H   H8        1.0  0.43550  0.76345  0.91164  1.0000
  H   H9        1.0  0.65762  0.15523  0.74279  1.0000
  H   H10       1.0  0.50253  0.84483  0.75720  1.0000
  H   H11       1.0  0.34238  0.84476  0.25721  1.0000
  H   H12       1.0  0.49747  0.15517  0.24280  1.0000
  H   H13       1.0  0.48955  0.08276  0.64542  1.0000
  H   H14       1.0  0.40690  0.91733  0.85457  1.0000
  H   H15       1.0  0.51045  0.91724  0.35458  1.0000
  H   H16       1.0  0.59310  0.08267  0.14543  1.0000
  H   H17       1.0  0.11964  0.44543  0.44830  1.0000
  H   H18       1.0  0.67392  0.55460  0.05155  1.0000
  H   H19       1.0  0.88036  0.55457  0.55170  1.0000
  H   H20       1.0  0.32608  0.44540  0.94844  1.0000
  H   H21       1.0  0.57929  0.65829  0.71305  1.0000
  H   H22       1.0  0.92096  0.34159  0.78704  1.0000
  H   H23       1.0  0.42071  0.34171  0.28695  1.0000
  H   H24       1.0  0.07904  0.65841  0.21296  1.0000
  H   H25       1.0  0.50969  0.44941  0.78559  1.0000
  H   H26       1.0  0.06069  0.55046  0.71455  1.0000
  H   H27       1.0  0.49031  0.55059  0.21441  1.0000
  H   H28       1.0  0.93931  0.44953  0.28545  1.0000
  C   C1        1.0  0.27706  0.33209  0.65849  1.0000
  C   C2        1.0  0.94515  0.66785  0.84149  1.0000
  C   C3        1.0  0.72295  0.66791  0.34151  1.0000
  C   C4        1.0  0.05485  0.33215  0.15851  1.0000
  C   C5        1.0  0.16800  0.32792  0.56073  1.0000
  C   C6        1.0  0.84000  0.67203  0.93915  1.0000
  C   C7        1.0  0.83200  0.67208  0.43927  1.0000
  C   C8        1.0  0.16000  0.32798  0.06085  1.0000
  C   C9        1.0  0.20427  0.44635  0.52241  1.0000
  C   C10       1.0  0.75771  0.55360  0.97747  1.0000
  C   C11       1.0  0.79573  0.55365  0.47759  1.0000
  C   C12       1.0  0.24230  0.44640  0.02253  1.0000
  C   C13       1.0  0.34944  0.56537  0.57919  1.0000
  C   C14       1.0  0.78382  0.43454  0.92076  1.0000
  C   C15       1.0  0.65056  0.43463  0.42081  1.0000
  C   C16       1.0  0.21619  0.56546  0.07924  1.0000
  C   C17       1.0  0.46200  0.56681  0.67295  1.0000
  C   C18       1.0  0.89514  0.43308  0.82710  1.0000
  C   C19       1.0  0.53800  0.43319  0.32705  1.0000
  C   C20       1.0  0.10486  0.56692  0.17291  1.0000
  C   C21       1.0  0.42444  0.45016  0.71256  1.0000
  C   C22       1.0  0.97455  0.54974  0.78753  1.0000
  C   C23       1.0  0.57556  0.54983  0.28744  1.0000
  C   C24       1.0  0.02545  0.45026  0.21247  1.0000
  C   C25       1.0  0.38881  0.69264  0.54088  1.0000
  C   C26       1.0  0.69568  0.30731  0.95911  1.0000
  C   C27       1.0  0.61119  0.30736  0.45912  1.0000
  C   C28       1.0  0.30432  0.69269  0.04089  1.0000
  S   S1        1.0  0.22415  0.18651  0.71485  1.0000
  S   S2        1.0  0.03758  0.81344  0.78513  1.0000
  S   S3        1.0  0.77585  0.81349  0.28515  1.0000
  S   S4        1.0  0.96243  0.18655  0.21487  1.0000
  O   O1        1.0  0.02811  0.14890  0.74044  1.0000
  O   O2        1.0  0.87899  0.85082  0.75949  1.0000
  O   O3        1.0  0.97189  0.85110  0.25956  1.0000
  O   O4        1.0  0.12101  0.14918  0.24051  1.0000
  O   O5        1.0  0.25739  0.07954  0.62484  1.0000
  O   O6        1.0  0.17751  0.92054  0.87518  1.0000
  O   O7        1.0  0.74261  0.92045  0.37516  1.0000
  O   O8        1.0  0.82249  0.07946  0.12482  1.0000
  O   O9        1.0  0.35196  0.22902  0.82097  1.0000
  O   O10       1.0  0.12311  0.77108  0.67904  1.0000
  O   O11       1.0  0.64804  0.77097  0.17903  1.0000
  O   O12       1.0  0.87689  0.22892  0.32096  1.0000
  O   O13       1.0  0.03331  0.20867  0.50765  1.0000
  O   O14       1.0  0.82460  0.79131  0.99222  1.0000
  O   O15       1.0  0.96669  0.79133  0.49236  1.0000
  O   O16       1.0  0.17540  0.20869  0.00778  1.0000
  O   O17       1.0  0.29495  0.67705  0.44180  1.0000
  O   O18       1.0  0.61760  0.32295  0.05826  1.0000
  O   O19       1.0  0.70505  0.32295  0.55820  1.0000
  O   O20       1.0  0.38240  0.67705  0.94174  1.0000
  O   O21       1.0  0.50069  0.80331  0.59907  1.0000
  O   O22       1.0  0.69669  0.19657  0.90089  1.0000
  O   O23       1.0  0.49930  0.19669  0.40093  1.0000
  O   O24       1.0  0.30331  0.80343  0.09911  1.0000
  O   O25       1.0  0.62710  0.12137  0.65661  1.0000
  O   O26       1.0  0.50580  0.87870  0.84337  1.0000
  O   O27       1.0  0.37290  0.87863  0.34339  1.0000
  O   O28       1.0  0.49420  0.12130  0.15663  1.0000
