data_image0
_chemical_formula_structural       Ag8H16C28S4O24
_chemical_formula_sum              "Ag8 H16 C28 S4 O24"
_cell_length_a       8.22469
_cell_length_b       10.4723
_cell_length_c       11.5276
_cell_angle_alpha    104.75
_cell_angle_beta     89.9935
_cell_angle_gamma    113.144

_space_group_name_H-M_alt    "P 1"
_space_group_IT_number       1

loop_
  _space_group_symop_operation_xyz
  'x, y, z'

loop_
  _atom_site_type_symbol
  _atom_site_label
  _atom_site_symmetry_multiplicity
  _atom_site_fract_x
  _atom_site_fract_y
  _atom_site_fract_z
  _atom_site_occupancy
  Ag  Ag1       1.0  0.37607  0.03448  0.90910  1.0000
  Ag  Ag2       1.0  0.34176  0.96540  0.59090  1.0000
  Ag  Ag3       1.0  0.62393  0.96552  0.09090  1.0000
  Ag  Ag4       1.0  0.65824  0.03460  0.40909  1.0000
  Ag  Ag5       1.0  0.00861  0.08084  0.12028  1.0000
  Ag  Ag6       1.0  0.92755  0.91908  0.37979  1.0000
  Ag  Ag7       1.0  0.99139  0.91916  0.87972  1.0000
  Ag  Ag8       1.0  0.07245  0.08092  0.62022  1.0000
  H   H1        1.0  0.76116  0.24037  0.94337  1.0000
  H   H2        1.0  0.52073  0.75963  0.55658  1.0000
  H   H3        1.0  0.23884  0.75963  0.05663  1.0000
  H   H4        1.0  0.47927  0.24037  0.44342  1.0000
  H   H5        1.0  0.83143  0.48511  0.95747  1.0000
  H   H6        1.0  0.34627  0.51496  0.54249  1.0000
  H   H7        1.0  0.16857  0.51489  0.04253  1.0000
  H   H8        1.0  0.65373  0.48504  0.45751  1.0000
  H   H9        1.0  0.60358  0.70241  0.23481  1.0000
  H   H10       1.0  0.90119  0.29735  0.26502  1.0000
  H   H11       1.0  0.39642  0.29759  0.76519  1.0000
  H   H12       1.0  0.09881  0.70265  0.73498  1.0000
  H   H13       1.0  0.45535  0.47525  0.29581  1.0000
  H   H14       1.0  0.97999  0.52452  0.20406  1.0000
  H   H15       1.0  0.54465  0.52475  0.70419  1.0000
  H   H16       1.0  0.02001  0.47548  0.79594  1.0000
  C   C1        1.0  0.56507  0.35566  0.16454  1.0000
  C   C2        1.0  0.20925  0.64430  0.33544  1.0000
  C   C3        1.0  0.43493  0.64434  0.83546  1.0000
  C   C4        1.0  0.79075  0.35570  0.66456  1.0000
  C   C5        1.0  0.66898  0.35525  0.06723  1.0000
  C   C6        1.0  0.31359  0.64474  0.43275  1.0000
  C   C7        1.0  0.33103  0.64475  0.93277  1.0000
  C   C8        1.0  0.68641  0.35526  0.56725  1.0000
  C   C9        1.0  0.75015  0.48244  0.03216  1.0000
  C   C10       1.0  0.26763  0.51757  0.46779  1.0000
  C   C11       1.0  0.24985  0.51756  0.96784  1.0000
  C   C12       1.0  0.73237  0.48243  0.53221  1.0000
  C   C13       1.0  0.73002  0.60794  0.09466  1.0000
  C   C14       1.0  0.12203  0.39199  0.40525  1.0000
  C   C15       1.0  0.26998  0.39206  0.90534  1.0000
  C   C16       1.0  0.87797  0.60801  0.59475  1.0000
  C   C17       1.0  0.62332  0.60596  0.18934  1.0000
  C   C18       1.0  0.01736  0.39387  0.31052  1.0000
  C   C19       1.0  0.37668  0.39404  0.81066  1.0000
  C   C20       1.0  0.98264  0.60613  0.68949  1.0000
  C   C21       1.0  0.54026  0.47945  0.22326  1.0000
  C   C22       1.0  0.06069  0.52037  0.27662  1.0000
  C   C23       1.0  0.45974  0.52055  0.77674  1.0000
  C   C24       1.0  0.93930  0.47963  0.72338  1.0000
  C   C25       1.0  0.82454  0.74586  0.06083  1.0000
  C   C26       1.0  0.07879  0.25411  0.43911  1.0000
  C   C27       1.0  0.17546  0.25414  0.93917  1.0000
  C   C28       1.0  0.92121  0.74589  0.56089  1.0000
  S   S1        1.0  0.46511  0.19906  0.21486  1.0000
  S   S2        1.0  0.26597  0.80091  0.28514  1.0000
  S   S3        1.0  0.53489  0.80094  0.78514  1.0000
  S   S4        1.0  0.73403  0.19910  0.71486  1.0000
  O   O1        1.0  0.38405  0.24089  0.32353  1.0000
  O   O2        1.0  0.14304  0.75913  0.17651  1.0000
  O   O3        1.0  0.61595  0.75911  0.67647  1.0000
  O   O4        1.0  0.85696  0.24087  0.82349  1.0000
  O   O5        1.0  0.33033  0.08621  0.11677  1.0000
  O   O6        1.0  0.24419  0.91374  0.38329  1.0000
  O   O7        1.0  0.66967  0.91379  0.88323  1.0000
  O   O8        1.0  0.75581  0.08626  0.61671  1.0000
  O   O9        1.0  0.60941  0.15583  0.24178  1.0000
  O   O10       1.0  0.45353  0.84411  0.25816  1.0000
  O   O11       1.0  0.39059  0.84417  0.75822  1.0000
  O   O12       1.0  0.54647  0.15589  0.74184  1.0000
  O   O13       1.0  0.68555  0.23041  0.01236  1.0000
  O   O14       1.0  0.45509  0.76962  0.48761  1.0000
  O   O15       1.0  0.31445  0.76959  0.98764  1.0000
  O   O16       1.0  0.54491  0.23039  0.51239  1.0000
  O   O17       1.0  0.83678  0.86313  0.13990  1.0000
  O   O18       1.0  0.97379  0.13676  0.36008  1.0000
  O   O19       1.0  0.16322  0.13687  0.86010  1.0000
  O   O20       1.0  0.02621  0.86324  0.63992  1.0000
  O   O21       1.0  0.88379  0.73779  0.95938  1.0000
  O   O22       1.0  0.14621  0.26232  0.54058  1.0000
  O   O23       1.0  0.11621  0.26221  0.04062  1.0000
  O   O24       1.0  0.85380  0.73768  0.45942  1.0000
