data_image0
_chemical_formula_structural       Ag4H8C14S2O12
_chemical_formula_sum              "Ag4 H8 C14 S2 O12"
_cell_length_a       6.93395
_cell_length_b       7.55016
_cell_length_c       9.56162
_cell_angle_alpha    72.3623
_cell_angle_beta     83.8344
_cell_angle_gamma    70.8568

_space_group_name_H-M_alt    "P 1"
_space_group_IT_number       1

loop_
  _space_group_symop_operation_xyz
  'x, y, z'

loop_
  _atom_site_type_symbol
  _atom_site_label
  _atom_site_symmetry_multiplicity
  _atom_site_fract_x
  _atom_site_fract_y
  _atom_site_fract_z
  _atom_site_occupancy
  Ag  Ag1       1.0  0.91595  0.91621  0.92371  1.0000
  Ag  Ag2       1.0  0.08405  0.08379  0.07628  1.0000
  Ag  Ag3       1.0  0.45479  0.75613  0.05859  1.0000
  Ag  Ag4       1.0  0.54520  0.24387  0.94141  1.0000
  H   H1        1.0  0.24907  0.59908  0.77364  1.0000
  H   H2        1.0  0.75093  0.40092  0.22635  1.0000
  H   H3        1.0  0.20297  0.74751  0.52663  1.0000
  H   H4        1.0  0.79703  0.25249  0.47337  1.0000
  H   H5        1.0  0.35838  0.87939  0.28958  1.0000
  H   H6        1.0  0.64162  0.12061  0.71041  1.0000
  H   H7        1.0  0.92654  0.72839  0.50645  1.0000
  H   H8        1.0  0.07346  0.27161  0.49355  1.0000
  C   C1        1.0  0.68197  0.65563  0.64380  1.0000
  C   C2        1.0  0.31803  0.34437  0.35620  1.0000
  C   C3        1.0  0.47557  0.66232  0.65130  1.0000
  C   C4        1.0  0.52443  0.33768  0.34870  1.0000
  C   C5        1.0  0.36247  0.74100  0.52143  1.0000
  C   C6        1.0  0.63753  0.25900  0.47856  1.0000
  C   C7        1.0  0.45138  0.81403  0.38869  1.0000
  C   C8        1.0  0.54862  0.18597  0.61131  1.0000
  C   C9        1.0  0.65515  0.81187  0.38126  1.0000
  C   C10       1.0  0.34485  0.18814  0.61874  1.0000
  C   C11       1.0  0.76858  0.73119  0.51041  1.0000
  C   C12       1.0  0.23142  0.26882  0.48959  1.0000
  C   C13       1.0  0.75389  0.89772  0.24290  1.0000
  C   C14       1.0  0.24611  0.10228  0.75710  1.0000
  S   S1        1.0  0.83076  0.56933  0.80444  1.0000
  S   S2        1.0  0.16924  0.43067  0.19556  1.0000
  O   O1        1.0  0.73979  0.71353  0.88865  1.0000
  O   O2        1.0  0.26021  0.28647  0.11135  1.0000
  O   O3        1.0  0.81859  0.37390  0.88718  1.0000
  O   O4        1.0  0.18141  0.62610  0.11282  1.0000
  O   O5        1.0  0.03795  0.56600  0.75256  1.0000
  O   O6        1.0  0.96205  0.43400  0.24744  1.0000
  O   O7        1.0  0.39307  0.59520  0.78384  1.0000
  O   O8        1.0  0.60693  0.40480  0.21616  1.0000
  O   O9        1.0  0.68036  0.91325  0.11955  1.0000
  O   O10       1.0  0.31964  0.08675  0.88045  1.0000
  O   O11       1.0  0.90511  0.95080  0.25580  1.0000
  O   O12       1.0  0.09489  0.04920  0.74420  1.0000
