data_image0
_chemical_formula_structural       Fe2Cu4H40C24N20
_chemical_formula_sum              "Fe2 Cu4 H40 C24 N20"
_cell_length_a       7.65879
_cell_length_b       9.92662
_cell_length_c       12.7049
_cell_angle_alpha    89.9997
_cell_angle_beta     89.0849
_cell_angle_gamma    90.0001

_space_group_name_H-M_alt    "P 1"
_space_group_IT_number       1

loop_
  _space_group_symop_operation_xyz
  'x, y, z'

loop_
  _atom_site_type_symbol
  _atom_site_label
  _atom_site_symmetry_multiplicity
  _atom_site_fract_x
  _atom_site_fract_y
  _atom_site_fract_z
  _atom_site_occupancy
  Fe  Fe1       1.0  1.00000  0.50000  1.00000  1.0000
  Fe  Fe2       1.0  0.50000  0.00001  0.50001  1.0000
  Cu  Cu1       1.0  0.51573  0.70292  0.81732  1.0000
  Cu  Cu2       1.0  0.98428  0.20291  0.68268  1.0000
  Cu  Cu3       1.0  0.48427  0.29708  0.18268  1.0000
  Cu  Cu4       1.0  0.01572  0.79709  0.31732  1.0000
  H   H1        1.0  0.72535  0.55145  0.72731  1.0000
  H   H2        1.0  0.77466  0.05143  0.77269  1.0000
  H   H3        1.0  0.27465  0.44856  0.27269  1.0000
  H   H4        1.0  0.22534  0.94856  0.22731  1.0000
  H   H5        1.0  0.59663  0.45399  0.79740  1.0000
  H   H6        1.0  0.90340  0.95399  0.70260  1.0000
  H   H7        1.0  0.40337  0.54601  0.20260  1.0000
  H   H8        1.0  0.09661  0.04601  0.29740  1.0000
  H   H9        1.0  0.96622  0.35716  0.53277  1.0000
  H   H10       1.0  0.53378  0.85715  0.96724  1.0000
  H   H11       1.0  0.03377  0.64284  0.46724  1.0000
  H   H12       1.0  0.46623  0.14285  0.03276  1.0000
  H   H13       1.0  0.97729  0.44963  0.64124  1.0000
  H   H14       1.0  0.52271  0.94962  0.85877  1.0000
  H   H15       1.0  0.02270  0.55037  0.35877  1.0000
  H   H16       1.0  0.47729  0.05038  0.14122  1.0000
  H   H17       1.0  0.57685  0.40860  0.60659  1.0000
  H   H18       1.0  0.92315  0.90858  0.89341  1.0000
  H   H19       1.0  0.42314  0.59141  0.39341  1.0000
  H   H20       1.0  0.07685  0.09141  0.10659  1.0000
  H   H21       1.0  0.50181  0.57921  0.59543  1.0000
  H   H22       1.0  0.99820  0.07920  0.90457  1.0000
  H   H23       1.0  0.49819  0.42079  0.40456  1.0000
  H   H24       1.0  0.00180  0.92080  0.09543  1.0000
  H   H25       1.0  0.25110  0.52098  0.71882  1.0000
  H   H26       1.0  0.24890  0.02096  0.78118  1.0000
  H   H27       1.0  0.74889  0.47903  0.28118  1.0000
  H   H28       1.0  0.75110  0.97903  0.21882  1.0000
  H   H29       1.0  0.32203  0.35196  0.72116  1.0000
  H   H30       1.0  0.17798  0.85194  0.77885  1.0000
  H   H31       1.0  0.67797  0.64805  0.27885  1.0000
  H   H32       1.0  0.82202  0.14805  0.22116  1.0000
  H   H33       1.0  0.27960  0.33073  0.52812  1.0000
  H   H34       1.0  0.22040  0.83072  0.97188  1.0000
  H   H35       1.0  0.72040  0.66927  0.47188  1.0000
  H   H36       1.0  0.77960  0.16928  0.02812  1.0000
  H   H37       1.0  0.22419  0.50456  0.52115  1.0000
  H   H38       1.0  0.27581  0.00454  0.97886  1.0000
  H   H39       1.0  0.77580  0.49545  0.47885  1.0000
  H   H40       1.0  0.72420  0.99546  0.02114  1.0000
  C   C1        1.0  0.85986  0.62958  0.93470  1.0000
  C   C2        1.0  0.64014  0.12957  0.56530  1.0000
  C   C3        1.0  0.14014  0.37042  0.06530  1.0000
  C   C4        1.0  0.35985  0.87041  0.43469  1.0000
  C   C5        1.0  0.20419  0.56728  0.93563  1.0000
  C   C6        1.0  0.29582  0.06728  0.56437  1.0000
  C   C7        1.0  0.79581  0.43272  0.06437  1.0000
  C   C8        1.0  0.70419  0.93272  0.43563  1.0000
  C   C9        1.0  0.50454  0.49018  0.64677  1.0000
  C   C10       1.0  0.99546  0.99017  0.85323  1.0000
  C   C11       1.0  0.49546  0.50982  0.35323  1.0000
  C   C12       1.0  0.00454  0.00982  0.14677  1.0000
  C   C13       1.0  0.31973  0.44345  0.67221  1.0000
  C   C14       1.0  0.18028  0.94343  0.82779  1.0000
  C   C15       1.0  0.68027  0.55656  0.32779  1.0000
  C   C16       1.0  0.81972  0.05656  0.17221  1.0000
  C   C17       1.0  0.22030  0.41460  0.57220  1.0000
  C   C18       1.0  0.27971  0.91459  0.92780  1.0000
  C   C19       1.0  0.77970  0.58541  0.42780  1.0000
  C   C20       1.0  0.72029  0.08541  0.07220  1.0000
  C   C21       1.0  0.03077  0.61599  0.11510  1.0000
  C   C22       1.0  0.46924  0.11599  0.38489  1.0000
  C   C23       1.0  0.96923  0.38401  0.88490  1.0000
  C   C24       1.0  0.53077  0.88401  0.61510  1.0000
  N   N1        1.0  0.76502  0.70760  0.89445  1.0000
  N   N2        1.0  0.73500  0.20760  0.60556  1.0000
  N   N3        1.0  0.23498  0.29240  0.10555  1.0000
  N   N4        1.0  0.26502  0.79240  0.39445  1.0000
  N   N5        1.0  0.33397  0.60819  0.89609  1.0000
  N   N6        1.0  0.16603  0.10819  0.60391  1.0000
  N   N7        1.0  0.66603  0.39182  0.10391  1.0000
  N   N8        1.0  0.83397  0.89180  0.39608  1.0000
  N   N9        1.0  0.59710  0.52994  0.74287  1.0000
  N   N10       1.0  0.90291  0.02994  0.75713  1.0000
  N   N11       1.0  0.40290  0.47005  0.25713  1.0000
  N   N12       1.0  0.09709  0.97006  0.24287  1.0000
  N   N13       1.0  0.04989  0.68913  0.18738  1.0000
  N   N14       1.0  0.45011  0.18913  0.31261  1.0000
  N   N15       1.0  0.95011  0.31087  0.81263  1.0000
  N   N16       1.0  0.54989  0.81087  0.68739  1.0000
  N   N17       1.0  0.03884  0.37664  0.59777  1.0000
  N   N18       1.0  0.46116  0.87664  0.90224  1.0000
  N   N19       1.0  0.96116  0.62336  0.40223  1.0000
  N   N20       1.0  0.53884  0.12336  0.09776  1.0000
