data_image0
_chemical_formula_structural       Mg4H20C28N4O20
_chemical_formula_sum              "Mg4 H20 C28 N4 O20"
_cell_length_a       8.53912
_cell_length_b       8.88026
_cell_length_c       10.0025
_cell_angle_alpha    90
_cell_angle_beta     90.0001
_cell_angle_gamma    97.2352

_space_group_name_H-M_alt    "P 1"
_space_group_IT_number       1

loop_
  _space_group_symop_operation_xyz
  'x, y, z'

loop_
  _atom_site_type_symbol
  _atom_site_label
  _atom_site_symmetry_multiplicity
  _atom_site_fract_x
  _atom_site_fract_y
  _atom_site_fract_z
  _atom_site_occupancy
  Mg  Mg1       1.0  0.20752  0.85989  0.55751  1.0000
  Mg  Mg2       1.0  0.29249  0.14011  0.05751  1.0000
  Mg  Mg3       1.0  0.79248  0.14011  0.44249  1.0000
  Mg  Mg4       1.0  0.70752  0.85989  0.94249  1.0000
  H   H1        1.0  0.10760  0.49486  0.47042  1.0000
  H   H2        1.0  0.39240  0.50514  0.97042  1.0000
  H   H3        1.0  0.89240  0.50514  0.52958  1.0000
  H   H4        1.0  0.60760  0.49486  0.02959  1.0000
  H   H5        1.0  0.43446  0.25166  0.68380  1.0000
  H   H6        1.0  0.06554  0.74834  0.18380  1.0000
  H   H7        1.0  0.56554  0.74833  0.31620  1.0000
  H   H8        1.0  0.93446  0.25167  0.81619  1.0000
  H   H9        1.0  0.58828  0.50521  0.73922  1.0000
  H   H10       1.0  0.91172  0.49479  0.23923  1.0000
  H   H11       1.0  0.41172  0.49478  0.26078  1.0000
  H   H12       1.0  0.08828  0.50522  0.76078  1.0000
  H   H13       1.0  0.41187  0.96144  0.36926  1.0000
  H   H14       1.0  0.08814  0.03856  0.86926  1.0000
  H   H15       1.0  0.58813  0.03855  0.63073  1.0000
  H   H16       1.0  0.91187  0.96145  0.13074  1.0000
  H   H17       1.0  0.26283  0.90533  0.28533  1.0000
  H   H18       1.0  0.23717  0.09467  0.78533  1.0000
  H   H19       1.0  0.73716  0.09468  0.71467  1.0000
  H   H20       1.0  0.76284  0.90532  0.21467  1.0000
  C   C1        1.0  0.14577  0.20836  0.55532  1.0000
  C   C2        1.0  0.35424  0.79164  0.05532  1.0000
  C   C3        1.0  0.85424  0.79163  0.44468  1.0000
  C   C4        1.0  0.64577  0.20836  0.94467  1.0000
  C   C5        1.0  0.25326  0.35419  0.57903  1.0000
  C   C6        1.0  0.24674  0.64581  0.07903  1.0000
  C   C7        1.0  0.74673  0.64581  0.42097  1.0000
  C   C8        1.0  0.75326  0.35419  0.92097  1.0000
  C   C9        1.0  0.21077  0.49294  0.53394  1.0000
  C   C10       1.0  0.28923  0.50706  0.03394  1.0000
  C   C11       1.0  0.78923  0.50706  0.46606  1.0000
  C   C12       1.0  0.71077  0.49294  0.96606  1.0000
  C   C13       1.0  0.39316  0.35719  0.65210  1.0000
  C   C14       1.0  0.10684  0.64281  0.15210  1.0000
  C   C15       1.0  0.60683  0.64281  0.34790  1.0000
  C   C16       1.0  0.89317  0.35719  0.84789  1.0000
  C   C17       1.0  0.42098  0.62927  0.64230  1.0000
  C   C18       1.0  0.07902  0.37073  0.14230  1.0000
  C   C19       1.0  0.57901  0.37073  0.35770  1.0000
  C   C20       1.0  0.92099  0.62927  0.85770  1.0000
  C   C21       1.0  0.47870  0.49672  0.68311  1.0000
  C   C22       1.0  0.02130  0.50328  0.18311  1.0000
  C   C23       1.0  0.52130  0.50328  0.31689  1.0000
  C   C24       1.0  0.97870  0.49672  0.81689  1.0000
  C   C25       1.0  0.50102  0.78430  0.68204  1.0000
  C   C26       1.0  0.99899  0.21570  0.18204  1.0000
  C   C27       1.0  0.49898  0.21570  0.31796  1.0000
  C   C28       1.0  0.00102  0.78430  0.81796  1.0000
  N   N1        1.0  0.28999  0.62736  0.56666  1.0000
  N   N2        1.0  0.21001  0.37264  0.06666  1.0000
  N   N3        1.0  0.71001  0.37264  0.43334  1.0000
  N   N4        1.0  0.78999  0.62736  0.93334  1.0000
  O   O1        1.0  0.43723  0.89812  0.63954  1.0000
  O   O2        1.0  0.06277  0.10188  0.13954  1.0000
  O   O3        1.0  0.56277  0.10188  0.36046  1.0000
  O   O4        1.0  0.93723  0.89812  0.86046  1.0000
  O   O5        1.0  0.19979  0.08603  0.58567  1.0000
  O   O6        1.0  0.30021  0.91397  0.08567  1.0000
  O   O7        1.0  0.80021  0.91398  0.41432  1.0000
  O   O8        1.0  0.69979  0.08603  0.91432  1.0000
  O   O9        1.0  0.00881  0.22120  0.51241  1.0000
  O   O10       1.0  0.49119  0.77880  0.01241  1.0000
  O   O11       1.0  0.99118  0.77880  0.48759  1.0000
  O   O12       1.0  0.50881  0.22120  0.98759  1.0000
  O   O13       1.0  0.31243  0.88812  0.37128  1.0000
  O   O14       1.0  0.18757  0.11188  0.87128  1.0000
  O   O15       1.0  0.68756  0.11187  0.62871  1.0000
  O   O16       1.0  0.81244  0.88813  0.12871  1.0000
  O   O17       1.0  0.62398  0.79209  0.75215  1.0000
  O   O18       1.0  0.87602  0.20791  0.25215  1.0000
  O   O19       1.0  0.37601  0.20791  0.24786  1.0000
  O   O20       1.0  0.12398  0.79209  0.74786  1.0000
