data_image0
_chemical_formula_structural       Zn2H32C36Br4N12
_chemical_formula_sum              "Zn2 H32 C36 Br4 N12"
_cell_length_a       6.10059
_cell_length_b       12.2978
_cell_length_c       13.3323
_cell_angle_alpha    93.8766
_cell_angle_beta     103.217
_cell_angle_gamma    89.9848

_space_group_name_H-M_alt    "P 1"
_space_group_IT_number       1

loop_
  _space_group_symop_operation_xyz
  'x, y, z'

loop_
  _atom_site_type_symbol
  _atom_site_label
  _atom_site_symmetry_multiplicity
  _atom_site_fract_x
  _atom_site_fract_y
  _atom_site_fract_z
  _atom_site_occupancy
  Zn  Zn1       1.0  0.57042  0.75000  0.00004  1.0000
  Zn  Zn2       1.0  0.42957  0.25000  0.99996  1.0000
  H   H1        1.0  0.52990  0.27743  0.44545  1.0000
  H   H2        1.0  0.08394  0.22263  0.55427  1.0000
  H   H3        1.0  0.47010  0.72258  0.55456  1.0000
  H   H4        1.0  0.91606  0.77738  0.44572  1.0000
  H   H5        1.0  0.21437  0.52785  0.90851  1.0000
  H   H6        1.0  0.30588  0.97206  0.09136  1.0000
  H   H7        1.0  0.78562  0.47215  0.09149  1.0000
  H   H8        1.0  0.69411  0.02794  0.90863  1.0000
  H   H9        1.0  0.63168  0.55329  0.65582  1.0000
  H   H10       1.0  0.97597  0.94665  0.34412  1.0000
  H   H11       1.0  0.36833  0.44671  0.34418  1.0000
  H   H12       1.0  0.02403  0.05335  0.65588  1.0000
  H   H13       1.0  0.45701  0.66813  0.77523  1.0000
  H   H14       1.0  0.68188  0.83180  0.22475  1.0000
  H   H15       1.0  0.54299  0.33186  0.22477  1.0000
  H   H16       1.0  0.31813  0.16821  0.77524  1.0000
  H   H17       1.0  0.01339  0.63915  0.01842  1.0000
  H   H18       1.0  0.99510  0.86066  0.98154  1.0000
  H   H19       1.0  0.98659  0.36084  0.98158  1.0000
  H   H20       1.0  0.00490  0.13934  0.01846  1.0000
  H   H21       1.0  0.71763  0.30540  0.65630  1.0000
  H   H22       1.0  0.06111  0.19438  0.34341  1.0000
  H   H23       1.0  0.28238  0.69460  0.34370  1.0000
  H   H24       1.0  0.93889  0.80562  0.65658  1.0000
  H   H25       1.0  0.20440  0.50682  0.69177  1.0000
  H   H26       1.0  0.51244  0.99292  0.30818  1.0000
  H   H27       1.0  0.79561  0.49319  0.30823  1.0000
  H   H28       1.0  0.48756  0.00709  0.69181  1.0000
  H   H29       1.0  0.13035  0.38911  0.74703  1.0000
  H   H30       1.0  0.38365  0.11069  0.25289  1.0000
  H   H31       1.0  0.86967  0.61089  0.25297  1.0000
  H   H32       1.0  0.61634  0.88932  0.74710  1.0000
  C   C1        1.0  0.66486  0.33222  0.48668  1.0000
  C   C2        1.0  0.17780  0.16779  0.51311  1.0000
  C   C3        1.0  0.33514  0.66778  0.51333  1.0000
  C   C4        1.0  0.82220  0.83221  0.48688  1.0000
  C   C5        1.0  0.92490  0.45784  0.50912  1.0000
  C   C6        1.0  0.41568  0.04214  0.49081  1.0000
  C   C7        1.0  0.07510  0.54216  0.49089  1.0000
  C   C8        1.0  0.58432  0.95786  0.50918  1.0000
  C   C9        1.0  0.04610  0.55685  0.87535  1.0000
  C   C10       1.0  0.17080  0.94302  0.12457  1.0000
  C   C11       1.0  0.95389  0.44315  0.12465  1.0000
  C   C12       1.0  0.82919  0.05698  0.87542  1.0000
  C   C13       1.0  0.72529  0.57150  0.73507  1.0000
  C   C14       1.0  0.99027  0.92844  0.26484  1.0000
  C   C15       1.0  0.27471  0.42850  0.26493  1.0000
  C   C16       1.0  0.00974  0.07156  0.73516  1.0000
  C   C17       1.0  0.62422  0.63458  0.80171  1.0000
  C   C18       1.0  0.82267  0.86527  0.19830  1.0000
  C   C19       1.0  0.37578  0.36542  0.19829  1.0000
  C   C20       1.0  0.17733  0.13473  0.80170  1.0000
  C   C21       1.0  0.94052  0.53075  0.77188  1.0000
  C   C22       1.0  0.16862  0.96918  0.22802  1.0000
  C   C23       1.0  0.05949  0.46925  0.22812  1.0000
  C   C24       1.0  0.83139  0.03082  0.77198  1.0000
  C   C25       1.0  0.93341  0.61921  0.93746  1.0000
  C   C26       1.0  0.99609  0.88060  0.06250  1.0000
  C   C27       1.0  0.06658  0.38079  0.06254  1.0000
  C   C28       1.0  0.00390  0.11940  0.93749  1.0000
  C   C29       1.0  0.75510  0.34445  0.59142  1.0000
  C   C30       1.0  0.16342  0.15548  0.40839  1.0000
  C   C31       1.0  0.24490  0.65555  0.40859  1.0000
  C   C32       1.0  0.83658  0.84452  0.59161  1.0000
  C   C33       1.0  0.06150  0.46054  0.70576  1.0000
  C   C34       1.0  0.35569  0.03932  0.29415  1.0000
  C   C35       1.0  0.93850  0.53946  0.29424  1.0000
  C   C36       1.0  0.64431  0.96069  0.70585  1.0000
  Br  Br1       1.0  0.44058  0.64707  0.12179  1.0000
  Br  Br2       1.0  0.31881  0.85309  0.87846  1.0000
  Br  Br3       1.0  0.55939  0.35294  0.87821  1.0000
  Br  Br4       1.0  0.68122  0.14691  0.12154  1.0000
  N   N1        1.0  0.77057  0.40203  0.43611  1.0000
  N   N2        1.0  0.33417  0.09804  0.56373  1.0000
  N   N3        1.0  0.22943  0.59797  0.56389  1.0000
  N   N4        1.0  0.66584  0.90196  0.43626  1.0000
  N   N5        1.0  0.92150  0.42384  0.60547  1.0000
  N   N6        1.0  0.31591  0.07606  0.39441  1.0000
  N   N7        1.0  0.07851  0.57616  0.39453  1.0000
  N   N8        1.0  0.68409  0.92394  0.60558  1.0000
  N   N9        1.0  0.72560  0.65796  0.90190  1.0000
  N   N10       1.0  0.82387  0.84186  0.09809  1.0000
  N   N11       1.0  0.27439  0.34203  0.09810  1.0000
  N   N12       1.0  0.17613  0.15814  0.90191  1.0000
