data_image0
_chemical_formula_structural       Mn4H40C64N16O16
_chemical_formula_sum              "Mn4 H40 C64 N16 O16"
_cell_length_a       7.46341
_cell_length_b       14.157
_cell_length_c       17.9912
_cell_angle_alpha    90.0182
_cell_angle_beta     89.9995
_cell_angle_gamma    90.002

_space_group_name_H-M_alt    "P 1"
_space_group_IT_number       1

loop_
  _space_group_symop_operation_xyz
  'x, y, z'

loop_
  _atom_site_type_symbol
  _atom_site_label
  _atom_site_symmetry_multiplicity
  _atom_site_fract_x
  _atom_site_fract_y
  _atom_site_fract_z
  _atom_site_occupancy
  Mn  Mn1       1.0  0.48220  0.25718  0.52317  1.0000
  Mn  Mn2       1.0  0.01839  0.74267  0.02308  1.0000
  Mn  Mn3       1.0  0.51839  0.75734  0.97692  1.0000
  Mn  Mn4       1.0  0.98219  0.24281  0.47683  1.0000
  H   H1        1.0  0.13847  0.74443  0.83176  1.0000
  H   H2        1.0  0.36141  0.25533  0.33197  1.0000
  H   H3        1.0  0.86139  0.24466  0.66803  1.0000
  H   H4        1.0  0.63849  0.75557  0.16824  1.0000
  H   H5        1.0  0.08838  0.48911  0.58251  1.0000
  H   H6        1.0  0.41188  0.51090  0.08245  1.0000
  H   H7        1.0  0.91193  0.98908  0.91754  1.0000
  H   H8        1.0  0.58836  0.01091  0.41750  1.0000
  H   H9        1.0  0.57706  0.74910  0.78954  1.0000
  H   H10       1.0  0.92273  0.25103  0.28948  1.0000
  H   H11       1.0  0.42271  0.24896  0.71051  1.0000
  H   H12       1.0  0.07708  0.75093  0.21046  1.0000
  H   H13       1.0  0.85666  0.95498  0.50656  1.0000
  H   H14       1.0  0.64344  0.04484  0.00664  1.0000
  H   H15       1.0  0.14342  0.45515  0.99336  1.0000
  H   H16       1.0  0.35667  0.54504  0.49344  1.0000
  H   H17       1.0  0.15068  0.64156  0.65175  1.0000
  H   H18       1.0  0.34914  0.35861  0.15176  1.0000
  H   H19       1.0  0.84917  0.14137  0.84824  1.0000
  H   H20       1.0  0.65067  0.85846  0.34826  1.0000
  H   H21       1.0  0.58339  0.68939  0.67138  1.0000
  H   H22       1.0  0.91634  0.31045  0.17144  1.0000
  H   H23       1.0  0.41637  0.18955  0.82855  1.0000
  H   H24       1.0  0.08338  0.81061  0.32862  1.0000
  H   H25       1.0  0.52437  0.53214  0.61148  1.0000
  H   H26       1.0  0.97574  0.46755  0.11148  1.0000
  H   H27       1.0  0.47578  0.03246  0.88851  1.0000
  H   H28       1.0  0.02436  0.96786  0.38851  1.0000
  H   H29       1.0  0.70803  0.06687  0.71896  1.0000
  H   H30       1.0  0.79161  0.93317  0.21910  1.0000
  H   H31       1.0  0.29159  0.56683  0.78090  1.0000
  H   H32       1.0  0.20803  0.43313  0.28105  1.0000
  H   H33       1.0  0.92358  0.79914  0.56459  1.0000
  H   H34       1.0  0.57610  0.20067  0.06464  1.0000
  H   H35       1.0  0.07610  0.29932  0.93536  1.0000
  H   H36       1.0  0.42358  0.70087  0.43541  1.0000
  H   H37       1.0  0.79298  0.91714  0.77980  1.0000
  H   H38       1.0  0.70636  0.08291  0.27991  1.0000
  H   H39       1.0  0.20636  0.41708  0.72009  1.0000
  H   H40       1.0  0.29298  0.58286  0.22020  1.0000
  C   C1        1.0  0.99409  0.74452  0.83951  1.0000
  C   C2        1.0  0.50582  0.25530  0.33964  1.0000
  C   C3        1.0  0.00579  0.24468  0.66036  1.0000
  C   C4        1.0  0.49412  0.75549  0.16049  1.0000
  C   C5        1.0  0.80319  0.50201  0.59462  1.0000
  C   C6        1.0  0.69699  0.49782  0.09457  1.0000
  C   C7        1.0  0.19703  0.00218  0.90542  1.0000
  C   C8        1.0  0.30318  0.99799  0.40538  1.0000
  C   C9        1.0  0.76549  0.40857  0.55830  1.0000
  C   C10       1.0  0.73487  0.59125  0.05827  1.0000
  C   C11       1.0  0.23490  0.90876  0.94174  1.0000
  C   C12       1.0  0.26547  0.09142  0.44171  1.0000
  C   C13       1.0  0.73087  0.11317  0.57380  1.0000
  C   C14       1.0  0.76970  0.88674  0.07400  1.0000
  C   C15       1.0  0.26966  0.61326  0.92601  1.0000
  C   C16       1.0  0.23089  0.38683  0.42620  1.0000
  C   C17       1.0  0.87128  0.67248  0.66676  1.0000
  C   C18       1.0  0.62850  0.32749  0.16681  1.0000
  C   C19       1.0  0.12853  0.17249  0.83318  1.0000
  C   C20       1.0  0.37128  0.82752  0.33324  1.0000
  C   C21       1.0  0.97995  0.53286  0.60430  1.0000
  C   C22       1.0  0.52018  0.46709  0.10426  1.0000
  C   C23       1.0  0.02021  0.03289  0.89573  1.0000
  C   C24       1.0  0.47994  0.96715  0.39571  1.0000
  C   C25       1.0  0.70533  0.74618  0.81740  1.0000
  C   C26       1.0  0.79453  0.25382  0.31741  1.0000
  C   C27       1.0  0.29451  0.24616  0.68258  1.0000
  C   C28       1.0  0.20536  0.75384  0.18259  1.0000
  C   C29       1.0  0.86138  0.84690  0.67600  1.0000
  C   C30       1.0  0.63821  0.15307  0.17608  1.0000
  C   C31       1.0  0.13821  0.34692  0.82392  1.0000
  C   C32       1.0  0.36139  0.65311  0.32400  1.0000
  C   C33       1.0  0.77664  0.02077  0.60895  1.0000
  C   C34       1.0  0.72332  0.97917  0.10907  1.0000
  C   C35       1.0  0.22330  0.52082  0.89093  1.0000
  C   C36       1.0  0.27665  0.47924  0.39105  1.0000
  C   C37       1.0  0.83976  0.94490  0.56619  1.0000
  C   C38       1.0  0.66018  0.05496  0.06628  1.0000
  C   C39       1.0  0.16017  0.44503  0.93372  1.0000
  C   C40       1.0  0.33976  0.55511  0.43381  1.0000
  C   C41       1.0  0.01410  0.61736  0.64173  1.0000
  C   C42       1.0  0.48582  0.38267  0.14174  1.0000
  C   C43       1.0  0.98585  0.11731  0.85825  1.0000
  C   C44       1.0  0.51409  0.88266  0.35827  1.0000
  C   C45       1.0  0.69408  0.64416  0.65404  1.0000
  C   C46       1.0  0.80575  0.35570  0.15408  1.0000
  C   C47       1.0  0.30578  0.14430  0.84591  1.0000
  C   C48       1.0  0.19407  0.85584  0.34596  1.0000
  C   C49       1.0  0.66058  0.55802  0.61965  1.0000
  C   C50       1.0  0.83946  0.44176  0.11964  1.0000
  C   C51       1.0  0.33950  0.05824  0.88035  1.0000
  C   C52       1.0  0.16056  0.94198  0.38035  1.0000
  C   C53       1.0  0.75877  0.00836  0.68569  1.0000
  C   C54       1.0  0.74089  0.99164  0.18581  1.0000
  C   C55       1.0  0.24088  0.50835  0.81419  1.0000
  C   C56       1.0  0.25878  0.49164  0.31432  1.0000
  C   C57       1.0  0.87863  0.85824  0.59866  1.0000
  C   C58       1.0  0.62110  0.14163  0.09873  1.0000
  C   C59       1.0  0.12109  0.35836  0.90127  1.0000
  C   C60       1.0  0.37864  0.64177  0.40134  1.0000
  C   C61       1.0  0.80407  0.92335  0.71968  1.0000
  C   C62       1.0  0.69543  0.07667  0.21978  1.0000
  C   C63       1.0  0.19543  0.42333  0.78022  1.0000
  C   C64       1.0  0.30408  0.57665  0.28033  1.0000
  N   N1        1.0  0.90822  0.75834  0.70788  1.0000
  N   N2        1.0  0.59140  0.24169  0.20794  1.0000
  N   N3        1.0  0.09140  0.25830  0.79206  1.0000
  N   N4        1.0  0.40823  0.74167  0.29212  1.0000
  N   N5        1.0  0.87006  0.74954  0.78363  1.0000
  N   N6        1.0  0.62971  0.25051  0.28370  1.0000
  N   N7        1.0  0.12968  0.24948  0.71630  1.0000
  N   N8        1.0  0.37011  0.75048  0.21636  1.0000
  N   N9        1.0  0.90971  0.73816  0.90369  1.0000
  N   N10       1.0  0.59039  0.26153  0.40380  1.0000
  N   N11       1.0  0.09036  0.23845  0.59620  1.0000
  N   N12       1.0  0.40975  0.76186  0.09631  1.0000
  N   N13       1.0  0.72848  0.73978  0.88939  1.0000
  N   N14       1.0  0.77156  0.26004  0.38942  1.0000
  N   N15       1.0  0.27154  0.23995  0.61058  1.0000
  N   N16       1.0  0.22849  0.76024  0.11061  1.0000
  O   O1        1.0  0.88511  0.37565  0.51566  1.0000
  O   O2        1.0  0.61495  0.62439  0.01591  1.0000
  O   O3        1.0  0.11496  0.87562  0.98409  1.0000
  O   O4        1.0  0.38508  0.12434  0.48435  1.0000
  O   O5        1.0  0.79488  0.13096  0.50956  1.0000
  O   O6        1.0  0.70633  0.86887  0.00965  1.0000
  O   O7        1.0  0.20625  0.63111  0.99035  1.0000
  O   O8        1.0  0.29492  0.36905  0.49045  1.0000
  O   O9        1.0  0.63132  0.17050  0.60983  1.0000
  O   O10       1.0  0.86914  0.82956  0.11017  1.0000
  O   O11       1.0  0.36912  0.67044  0.88985  1.0000
  O   O12       1.0  0.13134  0.32950  0.39017  1.0000
  O   O13       1.0  0.61623  0.37014  0.57433  1.0000
  O   O14       1.0  0.88452  0.62939  0.07406  1.0000
  O   O15       1.0  0.38456  0.87062  0.92595  1.0000
  O   O16       1.0  0.11621  0.12986  0.42568  1.0000
