data_image0
_chemical_formula_structural       Zn2H40C48N4O8
_chemical_formula_sum              "Zn2 H40 C48 N4 O8"
_cell_length_a       8.57483
_cell_length_b       11.45
_cell_length_c       12.9355
_cell_angle_alpha    114.167
_cell_angle_beta     99.3983
_cell_angle_gamma    101.296

_space_group_name_H-M_alt    "P 1"
_space_group_IT_number       1

loop_
  _space_group_symop_operation_xyz
  'x, y, z'

loop_
  _atom_site_type_symbol
  _atom_site_label
  _atom_site_symmetry_multiplicity
  _atom_site_fract_x
  _atom_site_fract_y
  _atom_site_fract_z
  _atom_site_occupancy
  Zn  Zn1       1.0  0.64418  0.30966  0.39424  1.0000
  Zn  Zn2       1.0  0.35582  0.69034  0.60576  1.0000
  H   H1        1.0  0.98439  0.59856  0.74785  1.0000
  H   H2        1.0  0.01561  0.40144  0.25215  1.0000
  H   H3        1.0  0.03060  0.34966  0.77061  1.0000
  H   H4        1.0  0.96939  0.65034  0.22939  1.0000
  H   H5        1.0  0.15514  0.73389  0.91498  1.0000
  H   H6        1.0  0.84486  0.26611  0.08502  1.0000
  H   H7        1.0  0.34439  0.87544  0.11411  1.0000
  H   H8        1.0  0.65561  0.12456  0.88589  1.0000
  H   H9        1.0  0.46667  0.77139  0.23064  1.0000
  H   H10       1.0  0.53333  0.22861  0.76936  1.0000
  H   H11       1.0  0.20254  0.38105  0.94453  1.0000
  H   H12       1.0  0.79746  0.61895  0.05547  1.0000
  H   H13       1.0  0.50801  0.58020  0.24945  1.0000
  H   H14       1.0  0.49199  0.41980  0.75055  1.0000
  H   H15       1.0  0.27400  0.30689  0.06112  1.0000
  H   H16       1.0  0.72600  0.69311  0.93888  1.0000
  H   H17       1.0  0.98863  0.30847  0.40456  1.0000
  H   H18       1.0  0.01137  0.69154  0.59544  1.0000
  H   H19       1.0  0.53759  0.06348  0.16566  1.0000
  H   H20       1.0  0.46242  0.93652  0.83434  1.0000
  H   H21       1.0  0.67429  0.92364  0.02284  1.0000
  H   H22       1.0  0.32571  0.07636  0.97716  1.0000
  H   H23       1.0  0.14388  0.18547  0.26943  1.0000
  H   H24       1.0  0.85612  0.81453  0.73057  1.0000
  H   H25       1.0  0.13822  0.99861  0.09095  1.0000
  H   H26       1.0  0.86178  0.00139  0.90905  1.0000
  H   H27       1.0  0.95078  0.86644  0.00452  1.0000
  H   H28       1.0  0.04922  0.13357  0.99548  1.0000
  H   H29       1.0  0.11445  0.95333  0.56870  1.0000
  H   H30       1.0  0.88555  0.04667  0.43130  1.0000
  H   H31       1.0  0.06041  0.10619  0.62946  1.0000
  H   H32       1.0  0.93959  0.89381  0.37054  1.0000
  H   H33       1.0  0.18888  0.29730  0.59836  1.0000
  H   H34       1.0  0.81112  0.70270  0.40163  1.0000
  H   H35       1.0  0.27525  0.91456  0.41703  1.0000
  H   H36       1.0  0.72475  0.08544  0.58296  1.0000
  H   H37       1.0  0.49515  0.02974  0.35489  1.0000
  H   H38       1.0  0.50485  0.97025  0.64510  1.0000
  H   H39       1.0  0.40961  0.39641  0.53002  1.0000
  H   H40       1.0  0.59039  0.60359  0.46998  1.0000
  C   C1        1.0  0.86372  0.39548  0.60645  1.0000
  C   C2        1.0  0.13628  0.60451  0.39355  1.0000
  C   C3        1.0  0.97218  0.49389  0.72499  1.0000
  C   C4        1.0  0.02782  0.50611  0.27501  1.0000
  C   C5        1.0  0.05199  0.45715  0.79970  1.0000
  C   C6        1.0  0.94800  0.54285  0.20030  1.0000
  C   C7        1.0  0.16404  0.54625  0.91641  1.0000
  C   C8        1.0  0.83596  0.45375  0.08359  1.0000
  C   C9        1.0  0.20614  0.68712  0.96533  1.0000
  C   C10       1.0  0.79386  0.31288  0.03467  1.0000
  C   C11       1.0  0.31377  0.76683  0.07721  1.0000
  C   C12       1.0  0.68623  0.23317  0.92279  1.0000
  C   C13       1.0  0.38246  0.70885  0.14257  1.0000
  C   C14       1.0  0.61754  0.29115  0.85743  1.0000
  C   C15       1.0  0.23397  0.48990  0.98308  1.0000
  C   C16       1.0  0.76603  0.51010  0.01692  1.0000
  C   C17       1.0  0.34287  0.56893  0.09642  1.0000
  C   C18       1.0  0.65713  0.43107  0.90358  1.0000
  C   C19       1.0  0.41345  0.51080  0.16725  1.0000
  C   C20       1.0  0.58655  0.48920  0.83275  1.0000
  C   C21       1.0  0.36951  0.38035  0.14105  1.0000
  C   C22       1.0  0.63049  0.61965  0.85895  1.0000
  C   C23       1.0  0.44076  0.32383  0.21521  1.0000
  C   C24       1.0  0.55924  0.67617  0.78479  1.0000
  C   C25       1.0  0.92385  0.22154  0.32003  1.0000
  C   C26       1.0  0.07615  0.77846  0.67997  1.0000
  C   C27       1.0  0.67112  0.08185  0.18612  1.0000
  C   C28       1.0  0.32888  0.91815  0.81388  1.0000
  C   C29       1.0  0.74766  0.00682  0.10780  1.0000
  C   C30       1.0  0.25234  0.99319  0.89220  1.0000
  C   C31       1.0  0.00920  0.15253  0.24509  1.0000
  C   C32       1.0  0.99080  0.84747  0.75492  1.0000
  C   C33       1.0  0.92076  0.04368  0.13602  1.0000
  C   C34       1.0  0.07925  0.95632  0.86398  1.0000
  C   C35       1.0  0.00713  0.97548  0.04768  1.0000
  C   C36       1.0  0.99287  0.02453  0.95232  1.0000
  C   C37       1.0  0.08114  0.03212  0.55019  1.0000
  C   C38       1.0  0.91886  0.96788  0.44981  1.0000
  C   C39       1.0  0.21574  0.09760  0.51393  1.0000
  C   C40       1.0  0.78426  0.90239  0.48607  1.0000
  C   C41       1.0  0.25384  0.23413  0.54455  1.0000
  C   C42       1.0  0.74616  0.76587  0.45545  1.0000
  C   C43       1.0  0.30214  0.02153  0.44295  1.0000
  C   C44       1.0  0.69786  0.97847  0.55705  1.0000
  C   C45       1.0  0.42269  0.08456  0.40792  1.0000
  C   C46       1.0  0.57731  0.91543  0.59208  1.0000
  C   C47       1.0  0.37582  0.28982  0.50545  1.0000
  C   C48       1.0  0.62418  0.71018  0.49455  1.0000
  N   N1        1.0  0.75744  0.18807  0.29032  1.0000
  N   N2        1.0  0.24256  0.81193  0.70968  1.0000
  N   N3        1.0  0.45937  0.21624  0.43850  1.0000
  N   N4        1.0  0.54063  0.78376  0.56150  1.0000
  O   O1        1.0  0.83755  0.27162  0.57028  1.0000
  O   O2        1.0  0.16245  0.72838  0.42972  1.0000
  O   O3        1.0  0.80131  0.44928  0.54404  1.0000
  O   O4        1.0  0.19869  0.55072  0.45596  1.0000
  O   O5        1.0  0.55808  0.40510  0.31071  1.0000
  O   O6        1.0  0.44192  0.59490  0.68929  1.0000
  O   O7        1.0  0.38439  0.19996  0.18217  1.0000
  O   O8        1.0  0.61561  0.80004  0.81783  1.0000
