data_image0
_chemical_formula_structural       Mn2H24C34N12O8
_chemical_formula_sum              "Mn2 H24 C34 N12 O8"
_cell_length_a       7.47925
_cell_length_b       9.93325
_cell_length_c       11.7945
_cell_angle_alpha    93.2617
_cell_angle_beta     91.403
_cell_angle_gamma    95.0937

_space_group_name_H-M_alt    "P 1"
_space_group_IT_number       1

loop_
  _space_group_symop_operation_xyz
  'x, y, z'

loop_
  _atom_site_type_symbol
  _atom_site_label
  _atom_site_symmetry_multiplicity
  _atom_site_fract_x
  _atom_site_fract_y
  _atom_site_fract_z
  _atom_site_occupancy
  Mn  Mn1       1.0  0.48419  0.23469  0.37542  1.0000
  Mn  Mn2       1.0  0.51582  0.76531  0.62458  1.0000
  H   H1        1.0  0.25237  0.86374  0.97459  1.0000
  H   H2        1.0  0.74763  0.13626  0.02542  1.0000
  H   H3        1.0  0.25688  0.61327  0.26083  1.0000
  H   H4        1.0  0.74311  0.38673  0.73917  1.0000
  H   H5        1.0  0.77965  0.60763  0.04837  1.0000
  H   H6        1.0  0.22035  0.39237  0.95163  1.0000
  H   H7        1.0  0.65529  0.65348  0.87292  1.0000
  H   H8        1.0  0.34471  0.34652  0.12708  1.0000
  H   H9        1.0  0.85363  0.99531  0.70417  1.0000
  H   H10       1.0  0.14636  0.00471  0.29584  1.0000
  H   H11       1.0  0.56727  0.91071  0.00364  1.0000
  H   H12       1.0  0.43272  0.08929  0.99636  1.0000
  H   H13       1.0  0.80296  0.86360  0.32509  1.0000
  H   H14       1.0  0.19705  0.13640  0.67491  1.0000
  H   H15       1.0  0.62519  0.47144  0.18203  1.0000
  H   H16       1.0  0.37481  0.52855  0.81797  1.0000
  H   H17       1.0  0.91808  0.26401  0.41488  1.0000
  H   H18       1.0  0.08192  0.73598  0.58513  1.0000
  H   H19       1.0  0.08343  0.96929  0.85879  1.0000
  H   H20       1.0  0.91656  0.03072  0.14121  1.0000
  H   H21       1.0  0.49466  0.73652  0.32127  1.0000
  H   H22       1.0  0.50534  0.26348  0.67873  1.0000
  H   H23       1.0  0.14113  0.43621  0.32973  1.0000
  H   H24       1.0  0.85887  0.56379  0.67027  1.0000
  C   C1        1.0  0.18381  0.78958  0.02691  1.0000
  C   C2        1.0  0.81619  0.21042  0.97309  1.0000
  C   C3        1.0  0.27551  0.74450  0.12098  1.0000
  C   C4        1.0  0.72448  0.25551  0.87903  1.0000
  C   C5        1.0  0.18687  0.64814  0.18749  1.0000
  C   C6        1.0  0.81312  0.35186  0.81251  1.0000
  C   C7        1.0  0.00846  0.59722  0.16131  1.0000
  C   C8        1.0  0.99153  0.40278  0.83869  1.0000
  C   C9        1.0  0.91893  0.64481  0.06809  1.0000
  C   C10       1.0  0.08107  0.35519  0.93191  1.0000
  C   C11       1.0  0.00491  0.74141  0.00065  1.0000
  C   C12       1.0  0.99510  0.25859  0.99935  1.0000
  C   C13       1.0  0.90596  0.79056  0.90585  1.0000
  C   C14       1.0  0.09404  0.20945  0.09414  1.0000
  C   C15       1.0  0.74301  0.74150  0.85378  1.0000
  C   C16       1.0  0.25699  0.25850  0.14622  1.0000
  C   C17       1.0  0.84070  0.91691  0.76441  1.0000
  C   C18       1.0  0.15930  0.08310  0.23560  1.0000
  C   C19       1.0  0.45856  0.80081  0.14982  1.0000
  C   C20       1.0  0.54143  0.19920  0.85019  1.0000
  C   C21       1.0  0.58070  0.88040  0.08997  1.0000
  C   C22       1.0  0.41929  0.11961  0.91004  1.0000
  C   C23       1.0  0.71008  0.85619  0.25247  1.0000
  C   C24       1.0  0.28991  0.14382  0.74753  1.0000
  C   C25       1.0  0.91710  0.49565  0.22926  1.0000
  C   C26       1.0  0.08290  0.50434  0.77073  1.0000
  C   C27       1.0  0.73940  0.44256  0.23029  1.0000
  C   C28       1.0  0.26060  0.55743  0.76970  1.0000
  C   C29       1.0  0.88508  0.33470  0.35251  1.0000
  C   C30       1.0  0.11492  0.66529  0.64749  1.0000
  C   C31       1.0  0.55870  0.47478  0.54827  1.0000
  C   C32       1.0  0.44129  0.52521  0.45172  1.0000
  C   C33       1.0  0.39917  0.00155  0.51430  1.0000
  C   C34       1.0  0.60088  0.99845  0.48571  1.0000
  N   N1        1.0  0.96382  0.90251  0.84716  1.0000
  N   N2        1.0  0.03617  0.09750  0.15285  1.0000
  N   N3        1.0  0.70386  0.82023  0.76547  1.0000
  N   N4        1.0  0.29614  0.17978  0.23453  1.0000
  N   N5        1.0  0.73528  0.91481  0.15464  1.0000
  N   N6        1.0  0.26471  0.08519  0.84536  1.0000
  N   N7        1.0  0.54600  0.78638  0.25301  1.0000
  N   N8        1.0  0.45401  0.21362  0.74699  1.0000
  N   N9        1.0  0.72118  0.34249  0.30666  1.0000
  N   N10       1.0  0.27882  0.65750  0.69334  1.0000
  N   N11       1.0  0.00496  0.42573  0.30886  1.0000
  N   N12       1.0  0.99504  0.57427  0.69114  1.0000
  O   O1        1.0  0.56688  0.34859  0.55126  1.0000
  O   O2        1.0  0.43311  0.65142  0.44873  1.0000
  O   O3        1.0  0.63758  0.56539  0.61730  1.0000
  O   O4        1.0  0.36242  0.43462  0.38269  1.0000
  O   O5        1.0  0.31727  0.09681  0.47619  1.0000
  O   O6        1.0  0.68277  0.90319  0.52380  1.0000
  O   O7        1.0  0.33218  0.90960  0.57461  1.0000
  O   O8        1.0  0.66787  0.09042  0.42539  1.0000
