data_image0
_chemical_formula_structural       Gd4H40C56N4O28
_chemical_formula_sum              "Gd4 H40 C56 N4 O28"
_cell_length_a       9.32577
_cell_length_b       10.3968
_cell_length_c       14.4404
_cell_angle_alpha    89.9999
_cell_angle_beta     89.9998
_cell_angle_gamma    96.4417

_space_group_name_H-M_alt    "P 1"
_space_group_IT_number       1

loop_
  _space_group_symop_operation_xyz
  'x, y, z'

loop_
  _atom_site_type_symbol
  _atom_site_label
  _atom_site_symmetry_multiplicity
  _atom_site_fract_x
  _atom_site_fract_y
  _atom_site_fract_z
  _atom_site_occupancy
  Gd  Gd1       1.0  0.62984  0.98167  0.12899  1.0000
  Gd  Gd2       1.0  0.37016  0.51833  0.62899  1.0000
  Gd  Gd3       1.0  0.37016  0.01832  0.87101  1.0000
  Gd  Gd4       1.0  0.62984  0.48168  0.37101  1.0000
  H   H1        1.0  0.98915  0.98311  0.06816  1.0000
  H   H2        1.0  0.01085  0.51689  0.56816  1.0000
  H   H3        1.0  0.01084  0.01689  0.93183  1.0000
  H   H4        1.0  0.98916  0.48311  0.43184  1.0000
  H   H5        1.0  0.27139  0.19231  0.26653  1.0000
  H   H6        1.0  0.72861  0.30769  0.76653  1.0000
  H   H7        1.0  0.72860  0.80769  0.73347  1.0000
  H   H8        1.0  0.27140  0.69231  0.23347  1.0000
  H   H9        1.0  0.04984  0.27780  0.33428  1.0000
  H   H10       1.0  0.95016  0.22221  0.83428  1.0000
  H   H11       1.0  0.95015  0.72220  0.66571  1.0000
  H   H12       1.0  0.04985  0.77780  0.16571  1.0000
  H   H13       1.0  0.46354  0.54737  0.11623  1.0000
  H   H14       1.0  0.53646  0.95264  0.61623  1.0000
  H   H15       1.0  0.53646  0.45263  0.88377  1.0000
  H   H16       1.0  0.46354  0.04737  0.38377  1.0000
  H   H17       1.0  0.33927  0.32333  0.09977  1.0000
  H   H18       1.0  0.66073  0.17667  0.59977  1.0000
  H   H19       1.0  0.66073  0.67666  0.90023  1.0000
  H   H20       1.0  0.33927  0.82334  0.40024  1.0000
  H   H21       1.0  0.13144  0.27925  0.99299  1.0000
  H   H22       1.0  0.86855  0.22075  0.49298  1.0000
  H   H23       1.0  0.86855  0.72074  0.00702  1.0000
  H   H24       1.0  0.13144  0.77926  0.50702  1.0000
  H   H25       1.0  0.04775  0.46032  0.90084  1.0000
  H   H26       1.0  0.95225  0.03968  0.40084  1.0000
  H   H27       1.0  0.95225  0.53966  0.09917  1.0000
  H   H28       1.0  0.04775  0.96033  0.59917  1.0000
  H   H29       1.0  0.18013  0.68105  0.91203  1.0000
  H   H30       1.0  0.81988  0.81896  0.41203  1.0000
  H   H31       1.0  0.81987  0.31894  0.08796  1.0000
  H   H32       1.0  0.18012  0.18106  0.58797  1.0000
  H   H33       1.0  0.54527  0.78619  0.26670  1.0000
  H   H34       1.0  0.45473  0.71381  0.76669  1.0000
  H   H35       1.0  0.45474  0.21380  0.73331  1.0000
  H   H36       1.0  0.54527  0.28620  0.23330  1.0000
  H   H37       1.0  0.42481  0.88482  0.26155  1.0000
  H   H38       1.0  0.57520  0.61518  0.76155  1.0000
  H   H39       1.0  0.57520  0.11517  0.73845  1.0000
  H   H40       1.0  0.42481  0.38483  0.23845  1.0000
  C   C1        1.0  0.00779  0.04930  0.12651  1.0000
  C   C2        1.0  0.99221  0.45069  0.62651  1.0000
  C   C3        1.0  0.99221  0.95069  0.87349  1.0000
  C   C4        1.0  0.00780  0.54931  0.37349  1.0000
  C   C5        1.0  0.14781  0.08911  0.15751  1.0000
  C   C6        1.0  0.85220  0.41088  0.65751  1.0000
  C   C7        1.0  0.85219  0.91088  0.84249  1.0000
  C   C8        1.0  0.14781  0.58912  0.34249  1.0000
  C   C9        1.0  0.16435  0.16700  0.23674  1.0000
  C   C10       1.0  0.83565  0.33300  0.73673  1.0000
  C   C11       1.0  0.83564  0.83300  0.76326  1.0000
  C   C12       1.0  0.16436  0.66701  0.26326  1.0000
  C   C13       1.0  0.04258  0.21219  0.27529  1.0000
  C   C14       1.0  0.95742  0.28781  0.77529  1.0000
  C   C15       1.0  0.95741  0.78781  0.72471  1.0000
  C   C16       1.0  0.04259  0.71219  0.22471  1.0000
  C   C17       1.0  0.90712  0.17095  0.23771  1.0000
  C   C18       1.0  0.09288  0.32905  0.73771  1.0000
  C   C19       1.0  0.09287  0.82905  0.76229  1.0000
  C   C20       1.0  0.90713  0.67096  0.26229  1.0000
  C   C21       1.0  0.27501  0.05268  0.10322  1.0000
  C   C22       1.0  0.72499  0.44732  0.60322  1.0000
  C   C23       1.0  0.72499  0.94731  0.89678  1.0000
  C   C24       1.0  0.27501  0.55269  0.39678  1.0000
  C   C25       1.0  0.77003  0.21977  0.27154  1.0000
  C   C26       1.0  0.22997  0.28024  0.77155  1.0000
  C   C27       1.0  0.22996  0.78022  0.72845  1.0000
  C   C28       1.0  0.77004  0.71978  0.22845  1.0000
  C   C29       1.0  0.32822  0.62734  0.01541  1.0000
  C   C30       1.0  0.67178  0.87266  0.51541  1.0000
  C   C31       1.0  0.67177  0.37265  0.98459  1.0000
  C   C32       1.0  0.32822  0.12734  0.48459  1.0000
  C   C33       1.0  0.37155  0.52713  0.06993  1.0000
  C   C34       1.0  0.62845  0.97287  0.56993  1.0000
  C   C35       1.0  0.62845  0.47286  0.93007  1.0000
  C   C36       1.0  0.37154  0.02713  0.43007  1.0000
  C   C37       1.0  0.30069  0.40244  0.06101  1.0000
  C   C38       1.0  0.69931  0.09756  0.56101  1.0000
  C   C39       1.0  0.69930  0.59754  0.93899  1.0000
  C   C40       1.0  0.30069  0.90245  0.43899  1.0000
  C   C41       1.0  0.18475  0.37752  0.00004  1.0000
  C   C42       1.0  0.81524  0.12248  0.50003  1.0000
  C   C43       1.0  0.81525  0.62246  0.99997  1.0000
  C   C44       1.0  0.18475  0.87753  0.49997  1.0000
  C   C45       1.0  0.13999  0.47806  0.94704  1.0000
  C   C46       1.0  0.86001  0.02194  0.44704  1.0000
  C   C47       1.0  0.86001  0.52192  0.05297  1.0000
  C   C48       1.0  0.13998  0.97807  0.55297  1.0000
  C   C49       1.0  0.21253  0.60210  0.95383  1.0000
  C   C50       1.0  0.78747  0.89791  0.45383  1.0000
  C   C51       1.0  0.78746  0.39789  0.04617  1.0000
  C   C52       1.0  0.21253  0.10210  0.54617  1.0000
  C   C53       1.0  0.40835  0.75932  0.02048  1.0000
  C   C54       1.0  0.59165  0.74068  0.52048  1.0000
  C   C55       1.0  0.59165  0.24066  0.97952  1.0000
  C   C56       1.0  0.40835  0.25933  0.47953  1.0000
  N   N1        1.0  0.88995  0.08646  0.16666  1.0000
  N   N2        1.0  0.11006  0.41354  0.66666  1.0000
  N   N3        1.0  0.11005  0.91354  0.83334  1.0000
  N   N4        1.0  0.88996  0.58647  0.33334  1.0000
  O   O1        1.0  0.65193  0.15877  0.24266  1.0000
  O   O2        1.0  0.34807  0.34123  0.74266  1.0000
  O   O3        1.0  0.34807  0.84123  0.75735  1.0000
  O   O4        1.0  0.65194  0.65877  0.25735  1.0000
  O   O5        1.0  0.78231  0.32017  0.32159  1.0000
  O   O6        1.0  0.21769  0.17983  0.82159  1.0000
  O   O7        1.0  0.21768  0.67983  0.67840  1.0000
  O   O8        1.0  0.78232  0.82017  0.17840  1.0000
  O   O9        1.0  0.38330  0.02467  0.14906  1.0000
  O   O10       1.0  0.61670  0.47533  0.64905  1.0000
  O   O11       1.0  0.61668  0.97532  0.85094  1.0000
  O   O12       1.0  0.38332  0.52468  0.35095  1.0000
  O   O13       1.0  0.26136  0.05627  0.01579  1.0000
  O   O14       1.0  0.73864  0.44373  0.51579  1.0000
  O   O15       1.0  0.73864  0.94373  0.98420  1.0000
  O   O16       1.0  0.26136  0.55628  0.48420  1.0000
  O   O17       1.0  0.49627  0.78544  0.08672  1.0000
  O   O18       1.0  0.50373  0.71456  0.58672  1.0000
  O   O19       1.0  0.50371  0.21455  0.91327  1.0000
  O   O20       1.0  0.49628  0.28545  0.41327  1.0000
  O   O21       1.0  0.38500  0.83999  0.95733  1.0000
  O   O22       1.0  0.61500  0.66001  0.45734  1.0000
  O   O23       1.0  0.61499  0.16000  0.04266  1.0000
  O   O24       1.0  0.38500  0.33999  0.54267  1.0000
  O   O25       1.0  0.52754  0.87907  0.26995  1.0000
  O   O26       1.0  0.47246  0.62093  0.76995  1.0000
  O   O27       1.0  0.47246  0.12092  0.73004  1.0000
  O   O28       1.0  0.52754  0.37908  0.23005  1.0000
