data_image0
_chemical_formula_structural       Sm4H40C56N4O28
_chemical_formula_sum              "Sm4 H40 C56 N4 O28"
_cell_length_a       9.34597
_cell_length_b       10.4808
_cell_length_c       14.3534
_cell_angle_alpha    90.0002
_cell_angle_beta     89.9997
_cell_angle_gamma    96.3002

_space_group_name_H-M_alt    "P 1"
_space_group_IT_number       1

loop_
  _space_group_symop_operation_xyz
  'x, y, z'

loop_
  _atom_site_type_symbol
  _atom_site_label
  _atom_site_symmetry_multiplicity
  _atom_site_fract_x
  _atom_site_fract_y
  _atom_site_fract_z
  _atom_site_occupancy
  Sm  Sm1       1.0  0.87098  0.52830  0.86824  1.0000
  Sm  Sm2       1.0  0.12902  0.97170  0.36824  1.0000
  Sm  Sm3       1.0  0.12902  0.47170  0.13176  1.0000
  Sm  Sm4       1.0  0.87098  0.02829  0.63176  1.0000
  H   H1        1.0  0.44693  0.22563  0.66417  1.0000
  H   H2        1.0  0.55307  0.27436  0.16417  1.0000
  H   H3        1.0  0.55307  0.77437  0.33583  1.0000
  H   H4        1.0  0.44693  0.72564  0.83584  1.0000
  H   H5        1.0  0.22440  0.29745  0.73917  1.0000
  H   H6        1.0  0.77561  0.20255  0.23917  1.0000
  H   H7        1.0  0.77560  0.70255  0.26083  1.0000
  H   H8        1.0  0.22439  0.79745  0.76083  1.0000
  H   H9        1.0  0.50664  0.53020  0.92500  1.0000
  H   H10       1.0  0.49337  0.96980  0.42500  1.0000
  H   H11       1.0  0.49336  0.46981  0.07500  1.0000
  H   H12       1.0  0.50664  0.03020  0.57500  1.0000
  H   H13       1.0  0.67507  0.13746  0.89819  1.0000
  H   H14       1.0  0.32493  0.36254  0.39819  1.0000
  H   H15       1.0  0.32492  0.86255  0.10181  1.0000
  H   H16       1.0  0.67507  0.63744  0.60181  1.0000
  H   H17       1.0  0.55303  0.91687  0.92236  1.0000
  H   H18       1.0  0.44698  0.58313  0.42236  1.0000
  H   H19       1.0  0.44696  0.08313  0.07765  1.0000
  H   H20       1.0  0.55304  0.41686  0.57764  1.0000
  H   H21       1.0  0.62970  0.78196  0.05076  1.0000
  H   H22       1.0  0.37030  0.71805  0.55076  1.0000
  H   H23       1.0  0.37029  0.21804  0.94924  1.0000
  H   H24       1.0  0.62971  0.28195  0.44924  1.0000
  H   H25       1.0  0.82453  0.87111  0.15952  1.0000
  H   H26       1.0  0.17547  0.62890  0.65952  1.0000
  H   H27       1.0  0.17547  0.12889  0.84048  1.0000
  H   H28       1.0  0.82454  0.37111  0.34048  1.0000
  H   H29       1.0  0.94839  0.08999  0.13388  1.0000
  H   H30       1.0  0.05161  0.41002  0.63388  1.0000
  H   H31       1.0  0.05161  0.91001  0.86612  1.0000
  H   H32       1.0  0.94839  0.58999  0.36612  1.0000
  H   H33       1.0  0.94521  0.74913  0.74208  1.0000
  H   H34       1.0  0.05478  0.75086  0.24208  1.0000
  H   H35       1.0  0.05479  0.25087  0.25792  1.0000
  H   H36       1.0  0.94521  0.24913  0.75792  1.0000
  H   H37       1.0  0.93305  0.63726  0.67001  1.0000
  H   H38       1.0  0.06694  0.86273  0.17001  1.0000
  H   H39       1.0  0.06694  0.36273  0.32999  1.0000
  H   H40       1.0  0.93306  0.13727  0.82999  1.0000
  C   C1        1.0  0.58960  0.34534  0.75332  1.0000
  C   C2        1.0  0.41040  0.15465  0.25333  1.0000
  C   C3        1.0  0.41040  0.65466  0.24667  1.0000
  C   C4        1.0  0.58960  0.84535  0.74668  1.0000
  C   C5        1.0  0.45417  0.29414  0.72143  1.0000
  C   C6        1.0  0.54583  0.20586  0.22143  1.0000
  C   C7        1.0  0.54583  0.70586  0.27857  1.0000
  C   C8        1.0  0.45417  0.79414  0.77857  1.0000
  C   C9        1.0  0.33193  0.33306  0.76329  1.0000
  C   C10       1.0  0.66808  0.16694  0.26329  1.0000
  C   C11       1.0  0.66807  0.66694  0.23671  1.0000
  C   C12       1.0  0.33192  0.83306  0.73671  1.0000
  C   C13       1.0  0.34863  0.41604  0.83986  1.0000
  C   C14       1.0  0.65137  0.08396  0.33986  1.0000
  C   C15       1.0  0.65137  0.58397  0.16014  1.0000
  C   C16       1.0  0.34863  0.91603  0.66014  1.0000
  C   C17       1.0  0.48846  0.46333  0.86688  1.0000
  C   C18       1.0  0.51154  0.03667  0.36688  1.0000
  C   C19       1.0  0.51153  0.53668  0.13312  1.0000
  C   C20       1.0  0.48847  0.96332  0.63312  1.0000
  C   C21       1.0  0.72690  0.30638  0.71221  1.0000
  C   C22       1.0  0.27310  0.19362  0.21221  1.0000
  C   C23       1.0  0.27309  0.69362  0.28779  1.0000
  C   C24       1.0  0.72690  0.80638  0.78779  1.0000
  C   C25       1.0  0.22050  0.45000  0.89436  1.0000
  C   C26       1.0  0.77950  0.05000  0.39437  1.0000
  C   C27       1.0  0.77950  0.55000  0.10564  1.0000
  C   C28       1.0  0.22050  0.94999  0.60564  1.0000
  C   C29       1.0  0.82015  0.12629  0.01392  1.0000
  C   C30       1.0  0.17985  0.37372  0.51392  1.0000
  C   C31       1.0  0.17985  0.87371  0.98608  1.0000
  C   C32       1.0  0.82015  0.62628  0.48608  1.0000
  C   C33       1.0  0.70934  0.07678  0.95378  1.0000
  C   C34       1.0  0.29065  0.42322  0.45379  1.0000
  C   C35       1.0  0.29065  0.92322  0.04622  1.0000
  C   C36       1.0  0.70935  0.57678  0.54622  1.0000
  C   C37       1.0  0.64152  0.95343  0.96741  1.0000
  C   C38       1.0  0.35848  0.54657  0.46741  1.0000
  C   C39       1.0  0.35847  0.04657  0.03259  1.0000
  C   C40       1.0  0.64153  0.45342  0.53259  1.0000
  C   C41       1.0  0.68314  0.87862  0.04077  1.0000
  C   C42       1.0  0.31686  0.62138  0.54078  1.0000
  C   C43       1.0  0.31686  0.12138  0.95922  1.0000
  C   C44       1.0  0.68315  0.37862  0.45922  1.0000
  C   C45       1.0  0.79253  0.92778  0.10118  1.0000
  C   C46       1.0  0.20746  0.57223  0.60118  1.0000
  C   C47       1.0  0.20747  0.07222  0.89882  1.0000
  C   C48       1.0  0.79254  0.42778  0.39882  1.0000
  C   C49       1.0  0.86195  0.05101  0.08764  1.0000
  C   C50       1.0  0.13805  0.44899  0.58764  1.0000
  C   C51       1.0  0.13806  0.94898  0.91236  1.0000
  C   C52       1.0  0.86195  0.55101  0.41236  1.0000
  C   C53       1.0  0.88901  0.26021  0.99996  1.0000
  C   C54       1.0  0.11099  0.23980  0.49997  1.0000
  C   C55       1.0  0.11099  0.73979  0.00004  1.0000
  C   C56       1.0  0.88900  0.76020  0.50005  1.0000
  N   N1        1.0  0.60626  0.43153  0.82339  1.0000
  N   N2        1.0  0.39374  0.06847  0.32339  1.0000
  N   N3        1.0  0.39374  0.56848  0.17661  1.0000
  N   N4        1.0  0.60626  0.93153  0.67661  1.0000
  O   O1        1.0  0.84350  0.37598  0.73439  1.0000
  O   O2        1.0  0.15650  0.12402  0.23439  1.0000
  O   O3        1.0  0.15650  0.62402  0.26561  1.0000
  O   O4        1.0  0.84350  0.87598  0.76561  1.0000
  O   O5        1.0  0.71905  0.20636  0.66264  1.0000
  O   O6        1.0  0.28095  0.29364  0.16264  1.0000
  O   O7        1.0  0.28094  0.79365  0.33736  1.0000
  O   O8        1.0  0.71905  0.70636  0.83736  1.0000
  O   O9        1.0  0.96717  0.65890  0.73289  1.0000
  O   O10       1.0  0.03282  0.84110  0.23289  1.0000
  O   O11       1.0  0.03282  0.34110  0.26711  1.0000
  O   O12       1.0  0.96717  0.15890  0.76711  1.0000
  O   O13       1.0  0.10575  0.45830  0.84910  1.0000
  O   O14       1.0  0.89425  0.04170  0.34911  1.0000
  O   O15       1.0  0.89425  0.54170  0.15089  1.0000
  O   O16       1.0  0.10575  0.95829  0.65088  1.0000
  O   O17       1.0  0.23933  0.46568  0.98162  1.0000
  O   O18       1.0  0.76068  0.03433  0.48162  1.0000
  O   O19       1.0  0.76067  0.53433  0.01838  1.0000
  O   O20       1.0  0.23934  0.96568  0.51838  1.0000
  O   O21       1.0  0.85500  0.31685  0.92601  1.0000
  O   O22       1.0  0.14500  0.18315  0.42601  1.0000
  O   O23       1.0  0.14501  0.68315  0.07399  1.0000
  O   O24       1.0  0.85496  0.81684  0.57399  1.0000
  O   O25       1.0  0.97578  0.30979  0.06147  1.0000
  O   O26       1.0  0.02422  0.19022  0.56148  1.0000
  O   O27       1.0  0.02422  0.69021  0.93853  1.0000
  O   O28       1.0  0.97578  0.80979  0.43854  1.0000
