data_image0
_chemical_formula_structural       Ca4H40C40N8O20
_chemical_formula_sum              "Ca4 H40 C40 N8 O20"
_cell_length_a       6.45626
_cell_length_b       10.7856
_cell_length_c       16.5493
_cell_angle_alpha    89.9995
_cell_angle_beta     89.9995
_cell_angle_gamma    99.844

_space_group_name_H-M_alt    "P 1"
_space_group_IT_number       1

loop_
  _space_group_symop_operation_xyz
  'x, y, z'

loop_
  _atom_site_type_symbol
  _atom_site_label
  _atom_site_symmetry_multiplicity
  _atom_site_fract_x
  _atom_site_fract_y
  _atom_site_fract_z
  _atom_site_occupancy
  Ca  Ca1       1.0  0.78365  0.58302  0.95733  1.0000
  Ca  Ca2       1.0  0.71637  0.91698  0.45733  1.0000
  Ca  Ca3       1.0  0.21635  0.41698  0.04267  1.0000
  Ca  Ca4       1.0  0.28366  0.08303  0.54267  1.0000
  H   H1        1.0  0.19923  0.75367  0.76036  1.0000
  H   H2        1.0  0.30077  0.74632  0.26036  1.0000
  H   H3        1.0  0.80077  0.24632  0.23963  1.0000
  H   H4        1.0  0.69924  0.25367  0.73964  1.0000
  H   H5        1.0  0.82554  0.87260  0.66861  1.0000
  H   H6        1.0  0.67445  0.62742  0.16862  1.0000
  H   H7        1.0  0.17446  0.12739  0.33139  1.0000
  H   H8        1.0  0.32555  0.37260  0.83139  1.0000
  H   H9        1.0  0.42824  0.76218  0.04398  1.0000
  H   H10       1.0  0.07177  0.73781  0.54398  1.0000
  H   H11       1.0  0.57174  0.23782  0.95602  1.0000
  H   H12       1.0  0.92822  0.26218  0.45601  1.0000
  H   H13       1.0  0.95381  0.77103  0.79070  1.0000
  H   H14       1.0  0.54619  0.72899  0.29071  1.0000
  H   H15       1.0  0.04618  0.22896  0.20930  1.0000
  H   H16       1.0  0.45382  0.27103  0.70930  1.0000
  H   H17       1.0  0.27262  0.88522  0.11228  1.0000
  H   H18       1.0  0.22738  0.61477  0.61228  1.0000
  H   H19       1.0  0.72738  0.11478  0.88773  1.0000
  H   H20       1.0  0.77261  0.38523  0.38772  1.0000
  H   H21       1.0  0.37945  0.04900  0.10765  1.0000
  H   H22       1.0  0.12055  0.45099  0.60765  1.0000
  H   H23       1.0  0.62056  0.95100  0.89236  1.0000
  H   H24       1.0  0.87943  0.54900  0.39236  1.0000
  H   H25       1.0  0.42598  0.95946  0.19441  1.0000
  H   H26       1.0  0.07401  0.54052  0.69441  1.0000
  H   H27       1.0  0.57402  0.04054  0.80559  1.0000
  H   H28       1.0  0.92597  0.45947  0.30559  1.0000
  H   H29       1.0  0.91866  0.97333  0.07185  1.0000
  H   H30       1.0  0.58135  0.52667  0.57185  1.0000
  H   H31       1.0  0.08135  0.02666  0.92816  1.0000
  H   H32       1.0  0.41863  0.47332  0.42815  1.0000
  H   H33       1.0  0.83094  0.01043  0.17062  1.0000
  H   H34       1.0  0.66905  0.48957  0.67062  1.0000
  H   H35       1.0  0.16905  0.98956  0.82939  1.0000
  H   H36       1.0  0.33093  0.51043  0.32938  1.0000
  H   H37       1.0  0.78723  0.10505  0.08597  1.0000
  H   H38       1.0  0.71276  0.39495  0.58597  1.0000
  H   H39       1.0  0.21276  0.89494  0.91403  1.0000
  H   H40       1.0  0.28723  0.60505  0.41403  1.0000
  C   C1        1.0  0.45263  0.70061  0.82883  1.0000
  C   C2        1.0  0.04738  0.79939  0.32884  1.0000
  C   C3        1.0  0.54736  0.29939  0.17116  1.0000
  C   C4        1.0  0.95264  0.20061  0.67116  1.0000
  C   C5        1.0  0.39820  0.88375  0.63742  1.0000
  C   C6        1.0  0.10180  0.61626  0.13743  1.0000
  C   C7        1.0  0.60183  0.11626  0.36257  1.0000
  C   C8        1.0  0.89819  0.38374  0.86257  1.0000
  C   C9        1.0  0.36742  0.75688  0.76408  1.0000
  C   C10       1.0  0.13258  0.74311  0.26409  1.0000
  C   C11       1.0  0.63257  0.24311  0.23591  1.0000
  C   C12       1.0  0.86743  0.25689  0.73591  1.0000
  C   C13       1.0  0.71404  0.82379  0.71224  1.0000
  C   C14       1.0  0.78596  0.67622  0.21225  1.0000
  C   C15       1.0  0.28596  0.17620  0.28776  1.0000
  C   C16       1.0  0.21405  0.32379  0.78776  1.0000
  C   C17       1.0  0.49727  0.81884  0.70414  1.0000
  C   C18       1.0  0.00272  0.68117  0.20414  1.0000
  C   C19       1.0  0.50273  0.18116  0.29586  1.0000
  C   C20       1.0  0.99728  0.31884  0.79586  1.0000
  C   C21       1.0  0.58739  0.81926  0.04743  1.0000
  C   C22       1.0  0.91262  0.68075  0.54743  1.0000
  C   C23       1.0  0.41260  0.18074  0.95257  1.0000
  C   C24       1.0  0.08737  0.31925  0.45257  1.0000
  C   C25       1.0  0.31055  0.63720  0.89509  1.0000
  C   C26       1.0  0.18946  0.86280  0.39509  1.0000
  C   C27       1.0  0.68945  0.36281  0.10491  1.0000
  C   C28       1.0  0.81056  0.13720  0.60492  1.0000
  C   C29       1.0  0.78668  0.76669  0.77992  1.0000
  C   C30       1.0  0.71333  0.73332  0.27993  1.0000
  C   C31       1.0  0.21332  0.23331  0.22008  1.0000
  C   C32       1.0  0.28668  0.26669  0.72008  1.0000
  C   C33       1.0  0.40851  0.95664  0.12832  1.0000
  C   C34       1.0  0.09149  0.54335  0.62832  1.0000
  C   C35       1.0  0.59149  0.04336  0.87169  1.0000
  C   C36       1.0  0.90849  0.45664  0.37168  1.0000
  C   C37       1.0  0.79493  0.00857  0.10553  1.0000
  C   C38       1.0  0.70507  0.49142  0.60554  1.0000
  C   C39       1.0  0.20507  0.99142  0.89447  1.0000
  C   C40       1.0  0.29492  0.50857  0.39447  1.0000
  N   N1        1.0  0.66132  0.70466  0.83665  1.0000
  N   N2        1.0  0.83868  0.79534  0.33666  1.0000
  N   N3        1.0  0.33866  0.29533  0.16335  1.0000
  N   N4        1.0  0.16134  0.20467  0.66335  1.0000
  N   N5        1.0  0.59618  0.92544  0.09058  1.0000
  N   N6        1.0  0.90382  0.57456  0.59058  1.0000
  N   N7        1.0  0.40381  0.07455  0.90942  1.0000
  N   N8        1.0  0.09617  0.42544  0.40942  1.0000
  O   O1        1.0  0.39385  0.57186  0.94646  1.0000
  O   O2        1.0  0.10617  0.92814  0.44646  1.0000
  O   O3        1.0  0.60614  0.42814  0.05354  1.0000
  O   O4        1.0  0.89386  0.07186  0.55354  1.0000
  O   O5        1.0  0.48619  0.89547  0.56859  1.0000
  O   O6        1.0  0.01381  0.60455  0.06860  1.0000
  O   O7        1.0  0.51385  0.10455  0.43141  1.0000
  O   O8        1.0  0.98618  0.39546  0.93140  1.0000
  O   O9        1.0  0.23132  0.92590  0.65441  1.0000
  O   O10       1.0  0.26866  0.57410  0.15441  1.0000
  O   O11       1.0  0.76869  0.07410  0.34558  1.0000
  O   O12       1.0  0.73132  0.42589  0.84559  1.0000
  O   O13       1.0  0.12273  0.65581  0.89422  1.0000
  O   O14       1.0  0.37728  0.84419  0.39422  1.0000
  O   O15       1.0  0.87727  0.34419  0.10578  1.0000
  O   O16       1.0  0.62275  0.15582  0.60578  1.0000
  O   O17       1.0  0.74152  0.78510  0.01386  1.0000
  O   O18       1.0  0.75850  0.71491  0.51387  1.0000
  O   O19       1.0  0.25847  0.21490  0.98613  1.0000
  O   O20       1.0  0.24149  0.28508  0.48613  1.0000
