data_image0
_chemical_formula_structural       Ca4H40C40N8O20
_chemical_formula_sum              "Ca4 H40 C40 N8 O20"
_cell_length_a       6.45274
_cell_length_b       10.7862
_cell_length_c       16.3461
_cell_angle_alpha    89.9999
_cell_angle_beta     99.8186
_cell_angle_gamma    89.9996

_space_group_name_H-M_alt    "P 1"
_space_group_IT_number       1

loop_
  _space_group_symop_operation_xyz
  'x, y, z'

loop_
  _atom_site_type_symbol
  _atom_site_label
  _atom_site_symmetry_multiplicity
  _atom_site_fract_x
  _atom_site_fract_y
  _atom_site_fract_z
  _atom_site_occupancy
  Ca  Ca1       1.0  0.75779  0.07102  0.04923  1.0000
  Ca  Ca2       1.0  0.74221  0.57102  0.45077  1.0000
  Ca  Ca3       1.0  0.24221  0.92898  0.95077  1.0000
  Ca  Ca4       1.0  0.25779  0.42898  0.54923  1.0000
  H   H1        1.0  0.45697  0.29468  0.23387  1.0000
  H   H2        1.0  0.04302  0.79467  0.26613  1.0000
  H   H3        1.0  0.54304  0.70533  0.76613  1.0000
  H   H4        1.0  0.95698  0.20533  0.73387  1.0000
  H   H5        1.0  0.71146  0.21170  0.23363  1.0000
  H   H6        1.0  0.78855  0.71170  0.26637  1.0000
  H   H7        1.0  0.28855  0.78831  0.76637  1.0000
  H   H8        1.0  0.21146  0.28830  0.73363  1.0000
  H   H9        1.0  0.29267  0.38744  0.34550  1.0000
  H   H10       1.0  0.20732  0.88745  0.15450  1.0000
  H   H11       1.0  0.70734  0.61256  0.65450  1.0000
  H   H12       1.0  0.79268  0.11255  0.84550  1.0000
  H   H13       1.0  0.09235  0.26679  0.95117  1.0000
  H   H14       1.0  0.40763  0.76679  0.54883  1.0000
  H   H15       1.0  0.90762  0.73321  0.04883  1.0000
  H   H16       1.0  0.59236  0.23321  0.45117  1.0000
  H   H17       1.0  0.75515  0.58855  0.92143  1.0000
  H   H18       1.0  0.74486  0.08854  0.57857  1.0000
  H   H19       1.0  0.24487  0.41146  0.07857  1.0000
  H   H20       1.0  0.25514  0.91145  0.42143  1.0000
  H   H21       1.0  0.63079  0.45102  0.95185  1.0000
  H   H22       1.0  0.86920  0.95100  0.54815  1.0000
  H   H23       1.0  0.36920  0.54900  0.04814  1.0000
  H   H24       1.0  0.13079  0.04899  0.45185  1.0000
  H   H25       1.0  0.62720  0.48520  0.84409  1.0000
  H   H26       1.0  0.87280  0.98518  0.65591  1.0000
  H   H27       1.0  0.37281  0.51482  0.15590  1.0000
  H   H28       1.0  0.12720  0.01481  0.34409  1.0000
  H   H29       1.0  0.99061  0.45981  0.79359  1.0000
  H   H30       1.0  0.50939  0.95981  0.70640  1.0000
  H   H31       1.0  0.00941  0.54019  0.20641  1.0000
  H   H32       1.0  0.49059  0.04019  0.29360  1.0000
  H   H33       1.0  0.19741  0.39547  0.86773  1.0000
  H   H34       1.0  0.30259  0.89547  0.63227  1.0000
  H   H35       1.0  0.80260  0.60453  0.13227  1.0000
  H   H36       1.0  0.69740  0.10453  0.36773  1.0000
  H   H37       1.0  0.12157  0.55376  0.87689  1.0000
  H   H38       1.0  0.37843  0.05376  0.62311  1.0000
  H   H39       1.0  0.87844  0.44623  0.12312  1.0000
  H   H40       1.0  0.62156  0.94624  0.37689  1.0000
  C   C1        1.0  0.98820  0.30564  0.30013  1.0000
  C   C2        1.0  0.51179  0.80564  0.19987  1.0000
  C   C3        1.0  0.01180  0.69436  0.69987  1.0000
  C   C4        1.0  0.48822  0.19436  0.80013  1.0000
  C   C5        1.0  0.17393  0.19788  0.17796  1.0000
  C   C6        1.0  0.32607  0.69787  0.32204  1.0000
  C   C7        1.0  0.82608  0.80213  0.82204  1.0000
  C   C8        1.0  0.67393  0.30213  0.67796  1.0000
  C   C9        1.0  0.29353  0.27477  0.23666  1.0000
  C   C10       1.0  0.20647  0.77476  0.26335  1.0000
  C   C11       1.0  0.70648  0.72524  0.76334  1.0000
  C   C12       1.0  0.79354  0.22524  0.73666  1.0000
  C   C13       1.0  0.87865  0.23017  0.23744  1.0000
  C   C14       1.0  0.62134  0.73017  0.26256  1.0000
  C   C15       1.0  0.12136  0.76983  0.76256  1.0000
  C   C16       1.0  0.37866  0.26983  0.73744  1.0000
  C   C17       1.0  0.20105  0.32765  0.29914  1.0000
  C   C18       1.0  0.29893  0.82765  0.20087  1.0000
  C   C19       1.0  0.79895  0.67235  0.70086  1.0000
  C   C20       1.0  0.70107  0.17235  0.79914  1.0000
  C   C21       1.0  0.87949  0.36865  0.36305  1.0000
  C   C22       1.0  0.62051  0.86865  0.13695  1.0000
  C   C23       1.0  0.12053  0.63135  0.63696  1.0000
  C   C24       1.0  0.37950  0.13135  0.86305  1.0000
  C   C25       1.0  0.27240  0.13471  0.11081  1.0000
  C   C26       1.0  0.22760  0.63470  0.38919  1.0000
  C   C27       1.0  0.72760  0.86530  0.88919  1.0000
  C   C28       1.0  0.77240  0.36529  0.61081  1.0000
  C   C29       1.0  0.94657  0.31711  0.95755  1.0000
  C   C30       1.0  0.55341  0.81710  0.54245  1.0000
  C   C31       1.0  0.05341  0.68289  0.04244  1.0000
  C   C32       1.0  0.44657  0.18289  0.45756  1.0000
  C   C33       1.0  0.72044  0.49057  0.90699  1.0000
  C   C34       1.0  0.77956  0.99056  0.59301  1.0000
  C   C35       1.0  0.27957  0.50944  0.09301  1.0000
  C   C36       1.0  0.22043  0.00943  0.40699  1.0000
  C   C37       1.0  0.06402  0.45988  0.85941  1.0000
  C   C38       1.0  0.43597  0.95988  0.64058  1.0000
  C   C39       1.0  0.93599  0.54011  0.14059  1.0000
  C   C40       1.0  0.56401  0.04012  0.35941  1.0000
  N   N1        1.0  0.96808  0.17664  0.17831  1.0000
  N   N2        1.0  0.53192  0.67664  0.32169  1.0000
  N   N3        1.0  0.03193  0.82337  0.82168  1.0000
  N   N4        1.0  0.46808  0.32337  0.67831  1.0000
  N   N5        1.0  0.91401  0.42020  0.91106  1.0000
  N   N6        1.0  0.58599  0.92019  0.58894  1.0000
  N   N7        1.0  0.08598  0.57981  0.08894  1.0000
  N   N8        1.0  0.41401  0.07981  0.41106  1.0000
  O   O1        1.0  0.14866  0.07096  0.05694  1.0000
  O   O2        1.0  0.35134  0.57095  0.44306  1.0000
  O   O3        1.0  0.85134  0.92905  0.94306  1.0000
  O   O4        1.0  0.64866  0.42905  0.55694  1.0000
  O   O5        1.0  0.46774  0.14906  0.11442  1.0000
  O   O6        1.0  0.03226  0.64905  0.38558  1.0000
  O   O7        1.0  0.53227  0.85094  0.88558  1.0000
  O   O8        1.0  0.96774  0.35095  0.61442  1.0000
  O   O9        1.0  0.68757  0.39867  0.34236  1.0000
  O   O10       1.0  0.81243  0.89868  0.15765  1.0000
  O   O11       1.0  0.31245  0.60132  0.65765  1.0000
  O   O12       1.0  0.18757  0.10133  0.84235  1.0000
  O   O13       1.0  0.82526  0.27873  0.00386  1.0000
  O   O14       1.0  0.67474  0.77872  0.49613  1.0000
  O   O15       1.0  0.17471  0.72127  0.99613  1.0000
  O   O16       1.0  0.32527  0.22127  0.50387  1.0000
  O   O17       1.0  0.98805  0.39498  0.43352  1.0000
  O   O18       1.0  0.51195  0.89497  0.06648  1.0000
  O   O19       1.0  0.01195  0.60501  0.56648  1.0000
  O   O20       1.0  0.48806  0.10502  0.93353  1.0000
