data_image0
_chemical_formula_structural       Ca6H18C42N6O24
_chemical_formula_sum              "Ca6 H18 C42 N6 O24"
_cell_length_a       11.4644
_cell_length_b       11.4644
_cell_length_c       11.4644
_cell_angle_alpha    108.76
_cell_angle_beta     108.76
_cell_angle_gamma    108.761

_space_group_name_H-M_alt    "P 1"
_space_group_IT_number       1

loop_
  _space_group_symop_operation_xyz
  'x, y, z'

loop_
  _atom_site_type_symbol
  _atom_site_label
  _atom_site_symmetry_multiplicity
  _atom_site_fract_x
  _atom_site_fract_y
  _atom_site_fract_z
  _atom_site_occupancy
  Ca  Ca1       1.0  0.02267  0.95080  0.31499  1.0000
  Ca  Ca2       1.0  0.31499  0.02267  0.95080  1.0000
  Ca  Ca3       1.0  0.95080  0.31499  0.02267  1.0000
  Ca  Ca4       1.0  0.97734  0.04920  0.68501  1.0000
  Ca  Ca5       1.0  0.68501  0.97733  0.04920  1.0000
  Ca  Ca6       1.0  0.04920  0.68501  0.97733  1.0000
  H   H1        1.0  0.54589  0.17240  0.76957  1.0000
  H   H2        1.0  0.76957  0.54589  0.17241  1.0000
  H   H3        1.0  0.17241  0.76957  0.54589  1.0000
  H   H4        1.0  0.45411  0.82759  0.23043  1.0000
  H   H5        1.0  0.23043  0.45411  0.82759  1.0000
  H   H6        1.0  0.82759  0.23043  0.45411  1.0000
  H   H7        1.0  0.68723  0.25404  0.65828  1.0000
  H   H8        1.0  0.65828  0.68723  0.25404  1.0000
  H   H9        1.0  0.25404  0.65828  0.68723  1.0000
  H   H10       1.0  0.31277  0.74596  0.34172  1.0000
  H   H11       1.0  0.34172  0.31277  0.74596  1.0000
  H   H12       1.0  0.74596  0.34172  0.31277  1.0000
  H   H13       1.0  0.56054  0.18671  0.40140  1.0000
  H   H14       1.0  0.40140  0.56054  0.18671  1.0000
  H   H15       1.0  0.18671  0.40139  0.56054  1.0000
  H   H16       1.0  0.43946  0.81329  0.59860  1.0000
  H   H17       1.0  0.59860  0.43946  0.81329  1.0000
  H   H18       1.0  0.81329  0.59860  0.43946  1.0000
  C   C1        1.0  0.25488  0.03934  0.64498  1.0000
  C   C2        1.0  0.64497  0.25488  0.03934  1.0000
  C   C3        1.0  0.03934  0.64498  0.25489  1.0000
  C   C4        1.0  0.74512  0.96066  0.35502  1.0000
  C   C5        1.0  0.35503  0.74512  0.96066  1.0000
  C   C6        1.0  0.96066  0.35502  0.74511  1.0000
  C   C7        1.0  0.34954  0.08144  0.58352  1.0000
  C   C8        1.0  0.58353  0.34954  0.08144  1.0000
  C   C9        1.0  0.08144  0.58352  0.34955  1.0000
  C   C10       1.0  0.65046  0.91856  0.41648  1.0000
  C   C11       1.0  0.41647  0.65046  0.91856  1.0000
  C   C12       1.0  0.91856  0.41648  0.65045  1.0000
  C   C13       1.0  0.49540  0.15123  0.66154  1.0000
  C   C14       1.0  0.66155  0.49540  0.15123  1.0000
  C   C15       1.0  0.15123  0.66155  0.49540  1.0000
  C   C16       1.0  0.50461  0.84878  0.33846  1.0000
  C   C17       1.0  0.33845  0.50460  0.84877  1.0000
  C   C18       1.0  0.84877  0.33846  0.50460  1.0000
  C   C19       1.0  0.57360  0.19450  0.59802  1.0000
  C   C20       1.0  0.59803  0.57360  0.19451  1.0000
  C   C21       1.0  0.19450  0.59802  0.57360  1.0000
  C   C22       1.0  0.42641  0.80550  0.40198  1.0000
  C   C23       1.0  0.40197  0.42640  0.80550  1.0000
  C   C24       1.0  0.80550  0.40198  0.42640  1.0000
  C   C25       1.0  0.50474  0.15873  0.45718  1.0000
  C   C26       1.0  0.45718  0.50475  0.15873  1.0000
  C   C27       1.0  0.15873  0.45718  0.50475  1.0000
  C   C28       1.0  0.49525  0.84127  0.54282  1.0000
  C   C29       1.0  0.54282  0.49525  0.84127  1.0000
  C   C30       1.0  0.84127  0.54282  0.49525  1.0000
  C   C31       1.0  0.35883  0.08047  0.38469  1.0000
  C   C32       1.0  0.38469  0.35883  0.08046  1.0000
  C   C33       1.0  0.08046  0.38469  0.35884  1.0000
  C   C34       1.0  0.64117  0.91953  0.61531  1.0000
  C   C35       1.0  0.61531  0.64116  0.91954  1.0000
  C   C36       1.0  0.91954  0.61531  0.64117  1.0000
  C   C37       1.0  0.27660  0.01956  0.22795  1.0000
  C   C38       1.0  0.22795  0.27660  0.01955  1.0000
  C   C39       1.0  0.01956  0.22795  0.27660  1.0000
  C   C40       1.0  0.72340  0.98044  0.77205  1.0000
  C   C41       1.0  0.77205  0.72340  0.98045  1.0000
  C   C42       1.0  0.98044  0.77205  0.72340  1.0000
  N   N1        1.0  0.28329  0.04745  0.44825  1.0000
  N   N2        1.0  0.44825  0.28329  0.04745  1.0000
  N   N3        1.0  0.04745  0.44825  0.28329  1.0000
  N   N4        1.0  0.71671  0.95255  0.55175  1.0000
  N   N5        1.0  0.55175  0.71671  0.95255  1.0000
  N   N6        1.0  0.95255  0.55175  0.71671  1.0000
  O   O1        1.0  0.29826  0.00768  0.74025  1.0000
  O   O2        1.0  0.74025  0.29825  0.00768  1.0000
  O   O3        1.0  0.00768  0.74026  0.29826  1.0000
  O   O4        1.0  0.70174  0.99232  0.25975  1.0000
  O   O5        1.0  0.25975  0.70175  0.99232  1.0000
  O   O6        1.0  0.99232  0.25975  0.70174  1.0000
  O   O7        1.0  0.13771  0.03809  0.59320  1.0000
  O   O8        1.0  0.59320  0.13771  0.03810  1.0000
  O   O9        1.0  0.03809  0.59320  0.13772  1.0000
  O   O10       1.0  0.86229  0.96191  0.40680  1.0000
  O   O11       1.0  0.40681  0.86229  0.96191  1.0000
  O   O12       1.0  0.96191  0.40680  0.86228  1.0000
  O   O13       1.0  0.33722  0.07095  0.16886  1.0000
  O   O14       1.0  0.16886  0.33721  0.07094  1.0000
  O   O15       1.0  0.07095  0.16886  0.33722  1.0000
  O   O16       1.0  0.66278  0.92905  0.83114  1.0000
  O   O17       1.0  0.83114  0.66278  0.92906  1.0000
  O   O18       1.0  0.92905  0.83114  0.66278  1.0000
  O   O19       1.0  0.15339  0.91719  0.16877  1.0000
  O   O20       1.0  0.16877  0.15339  0.91719  1.0000
  O   O21       1.0  0.91719  0.16877  0.15339  1.0000
  O   O22       1.0  0.84661  0.08281  0.83123  1.0000
  O   O23       1.0  0.83123  0.84661  0.08281  1.0000
  O   O24       1.0  0.08281  0.83123  0.84661  1.0000
