data_image0
_chemical_formula_structural       Ca2H14C14N2O12
_chemical_formula_sum              "Ca2 H14 C14 N2 O12"
_cell_length_a       7.47011
_cell_length_b       8.17215
_cell_length_c       8.17214
_cell_angle_alpha    101.225
_cell_angle_beta     101.094
_cell_angle_gamma    101.094

_space_group_name_H-M_alt    "P 1"
_space_group_IT_number       1

loop_
  _space_group_symop_operation_xyz
  'x, y, z'

loop_
  _atom_site_type_symbol
  _atom_site_label
  _atom_site_symmetry_multiplicity
  _atom_site_fract_x
  _atom_site_fract_y
  _atom_site_fract_z
  _atom_site_occupancy
  Ca  Ca1       1.0  0.41091  0.78567  0.09799  1.0000
  Ca  Ca2       1.0  0.91091  0.09799  0.78567  1.0000
  H   H1        1.0  0.37628  0.76747  0.49652  1.0000
  H   H2        1.0  0.87628  0.49651  0.76748  1.0000
  H   H3        1.0  0.41157  0.27756  0.60591  1.0000
  H   H4        1.0  0.91158  0.60591  0.27757  1.0000
  H   H5        1.0  0.44338  0.38714  0.11550  1.0000
  H   H6        1.0  0.94337  0.11549  0.38713  1.0000
  H   H7        1.0  0.79720  0.83900  0.30167  1.0000
  H   H8        1.0  0.29720  0.30167  0.83900  1.0000
  H   H9        1.0  0.81198  0.93060  0.14753  1.0000
  H   H10       1.0  0.31198  0.14753  0.93060  1.0000
  H   H11       1.0  0.02480  0.58136  0.04354  1.0000
  H   H12       1.0  0.52480  0.04354  0.58135  1.0000
  H   H13       1.0  0.00988  0.73538  0.95159  1.0000
  H   H14       1.0  0.50988  0.95159  0.73538  1.0000
  C   C1        1.0  0.39469  0.63767  0.45953  1.0000
  C   C2        1.0  0.89469  0.45953  0.63767  1.0000
  C   C3        1.0  0.40132  0.53417  0.57718  1.0000
  C   C4        1.0  0.90133  0.57718  0.53417  1.0000
  C   C5        1.0  0.39923  0.61117  0.75902  1.0000
  C   C6        1.0  0.89923  0.75902  0.61117  1.0000
  C   C7        1.0  0.41101  0.36388  0.51950  1.0000
  C   C8        1.0  0.91101  0.51950  0.36389  1.0000
  C   C9        1.0  0.42000  0.30635  0.34901  1.0000
  C   C10       1.0  0.92000  0.34901  0.30635  1.0000
  C   C11       1.0  0.42268  0.12467  0.27193  1.0000
  C   C12       1.0  0.92268  0.27194  0.12467  1.0000
  C   C13       1.0  0.42558  0.42395  0.24549  1.0000
  C   C14       1.0  0.92557  0.24549  0.42394  1.0000
  N   N1        1.0  0.40994  0.58560  0.29774  1.0000
  N   N2        1.0  0.90994  0.29774  0.58560  1.0000
  O   O1        1.0  0.41035  0.77258  0.80245  1.0000
  O   O2        1.0  0.91035  0.80245  0.77258  1.0000
  O   O3        1.0  0.38786  0.51736  0.86580  1.0000
  O   O4        1.0  0.88786  0.86580  0.51736  1.0000
  O   O5        1.0  0.43445  0.01792  0.36578  1.0000
  O   O6        1.0  0.93445  0.36578  0.01792  1.0000
  O   O7        1.0  0.41169  0.08139  0.11056  1.0000
  O   O8        1.0  0.91168  0.11056  0.08139  1.0000
  O   O9        1.0  0.73642  0.83409  0.18074  1.0000
  O   O10       1.0  0.23643  0.18074  0.83408  1.0000
  O   O11       1.0  0.08539  0.70224  0.04818  1.0000
  O   O12       1.0  0.58539  0.04818  0.70223  1.0000
