data_image0
_chemical_formula_structural       Ca4H20C28N4O20
_chemical_formula_sum              "Ca4 H20 C28 N4 O20"
_cell_length_a       7.87905
_cell_length_b       9.99387
_cell_length_c       11.2886
_cell_angle_alpha    90.0003
_cell_angle_beta     104.315
_cell_angle_gamma    90.0001

_space_group_name_H-M_alt    "P 1"
_space_group_IT_number       1

loop_
  _space_group_symop_operation_xyz
  'x, y, z'

loop_
  _atom_site_type_symbol
  _atom_site_label
  _atom_site_symmetry_multiplicity
  _atom_site_fract_x
  _atom_site_fract_y
  _atom_site_fract_z
  _atom_site_occupancy
  Ca  Ca1       1.0  0.51596  0.84364  0.89933  1.0000
  Ca  Ca2       1.0  0.98404  0.34364  0.10067  1.0000
  Ca  Ca3       1.0  0.48404  0.15636  0.10067  1.0000
  Ca  Ca4       1.0  0.01596  0.65636  0.89933  1.0000
  H   H1        1.0  0.81612  0.93703  0.53525  1.0000
  H   H2        1.0  0.68388  0.43703  0.46475  1.0000
  H   H3        1.0  0.18388  0.06297  0.46475  1.0000
  H   H4        1.0  0.31612  0.56297  0.53525  1.0000
  H   H5        1.0  0.50504  0.27559  0.48891  1.0000
  H   H6        1.0  0.99496  0.77559  0.51109  1.0000
  H   H7        1.0  0.49496  0.72441  0.51109  1.0000
  H   H8        1.0  0.00504  0.22441  0.48891  1.0000
  H   H9        1.0  0.53137  0.29319  0.71462  1.0000
  H   H10       1.0  0.96863  0.79319  0.28538  1.0000
  H   H11       1.0  0.46863  0.70681  0.28537  1.0000
  H   H12       1.0  0.03137  0.20681  0.71462  1.0000
  H   H13       1.0  0.19132  0.91461  0.73055  1.0000
  H   H14       1.0  0.30868  0.41461  0.26945  1.0000
  H   H15       1.0  0.80868  0.08539  0.26945  1.0000
  H   H16       1.0  0.69132  0.58539  0.73055  1.0000
  H   H17       1.0  0.32754  0.91584  0.64667  1.0000
  H   H18       1.0  0.17246  0.41584  0.35333  1.0000
  H   H19       1.0  0.67246  0.08416  0.35332  1.0000
  H   H20       1.0  0.82754  0.58416  0.64667  1.0000
  C   C1        1.0  0.71898  0.13122  0.89250  1.0000
  C   C2        1.0  0.78103  0.63123  0.10750  1.0000
  C   C3        1.0  0.28102  0.86878  0.10750  1.0000
  C   C4        1.0  0.21897  0.36877  0.89250  1.0000
  C   C5        1.0  0.76873  0.01110  0.70368  1.0000
  C   C6        1.0  0.73127  0.51110  0.29632  1.0000
  C   C7        1.0  0.23127  0.98890  0.29632  1.0000
  C   C8        1.0  0.26873  0.48890  0.70368  1.0000
  C   C9        1.0  0.68950  0.11414  0.75575  1.0000
  C   C10       1.0  0.81050  0.61414  0.24425  1.0000
  C   C11       1.0  0.31050  0.88586  0.24425  1.0000
  C   C12       1.0  0.18950  0.38586  0.75575  1.0000
  C   C13       1.0  0.86282  0.89556  0.77564  1.0000
  C   C14       1.0  0.63718  0.39555  0.22435  1.0000
  C   C15       1.0  0.13718  0.10444  0.22436  1.0000
  C   C16       1.0  0.36282  0.60444  0.77565  1.0000
  C   C17       1.0  0.75336  0.01457  0.57762  1.0000
  C   C18       1.0  0.74664  0.51457  0.42238  1.0000
  C   C19       1.0  0.24664  0.98543  0.42238  1.0000
  C   C20       1.0  0.25336  0.48543  0.57762  1.0000
  C   C21       1.0  0.58155  0.20315  0.55283  1.0000
  C   C22       1.0  0.91845  0.70315  0.44717  1.0000
  C   C23       1.0  0.41845  0.79685  0.44717  1.0000
  C   C24       1.0  0.08155  0.29684  0.55283  1.0000
  C   C25       1.0  0.59395  0.21145  0.67770  1.0000
  C   C26       1.0  0.90605  0.71145  0.32230  1.0000
  C   C27       1.0  0.40605  0.78855  0.32230  1.0000
  C   C28       1.0  0.09395  0.28855  0.67770  1.0000
  N   N1        1.0  0.66219  0.10746  0.50299  1.0000
  N   N2        1.0  0.83780  0.60746  0.49701  1.0000
  N   N3        1.0  0.33780  0.89254  0.49701  1.0000
  N   N4        1.0  0.16220  0.39254  0.50299  1.0000
  O   O1        1.0  0.80028  0.84632  0.86030  1.0000
  O   O2        1.0  0.69972  0.34631  0.13970  1.0000
  O   O3        1.0  0.19972  0.15368  0.13970  1.0000
  O   O4        1.0  0.30028  0.65369  0.86030  1.0000
  O   O5        1.0  0.99592  0.84583  0.74738  1.0000
  O   O6        1.0  0.50408  0.34583  0.25262  1.0000
  O   O7        1.0  0.00408  0.15417  0.25262  1.0000
  O   O8        1.0  0.49592  0.65417  0.74738  1.0000
  O   O9        1.0  0.61933  0.07007  0.94801  1.0000
  O   O10       1.0  0.88067  0.57007  0.05199  1.0000
  O   O11       1.0  0.38068  0.92993  0.05199  1.0000
  O   O12       1.0  0.11933  0.42993  0.94801  1.0000
  O   O13       1.0  0.84131  0.20964  0.93943  1.0000
  O   O14       1.0  0.65870  0.70965  0.06058  1.0000
  O   O15       1.0  0.15869  0.79036  0.06057  1.0000
  O   O16       1.0  0.34130  0.29035  0.93942  1.0000
  O   O17       1.0  0.31344  0.93832  0.73075  1.0000
  O   O18       1.0  0.18656  0.43832  0.26925  1.0000
  O   O19       1.0  0.68656  0.06168  0.26925  1.0000
  O   O20       1.0  0.81344  0.56168  0.73075  1.0000
