data_image0
_chemical_formula_structural       Cu4H40C24N12Cl4O8
_chemical_formula_sum              "Cu4 H40 C24 N12 Cl4 O8"
_cell_length_a       3.95292
_cell_length_b       9.0775
_cell_length_c       24.8887
_cell_angle_alpha    90.0002
_cell_angle_beta     90.0001
_cell_angle_gamma    90.0006

_space_group_name_H-M_alt    "P 1"
_space_group_IT_number       1

loop_
  _space_group_symop_operation_xyz
  'x, y, z'

loop_
  _atom_site_type_symbol
  _atom_site_label
  _atom_site_symmetry_multiplicity
  _atom_site_fract_x
  _atom_site_fract_y
  _atom_site_fract_z
  _atom_site_occupancy
  Cu  Cu1       1.0  0.92928  0.50076  0.10306  1.0000
  Cu  Cu2       1.0  0.92929  0.00076  0.39694  1.0000
  Cu  Cu3       1.0  0.07071  0.50076  0.60306  1.0000
  Cu  Cu4       1.0  0.07070  0.00076  0.89694  1.0000
  H   H1        1.0  0.61762  0.82570  0.09815  1.0000
  H   H2        1.0  0.61763  0.32570  0.40185  1.0000
  H   H3        1.0  0.38237  0.82571  0.59814  1.0000
  H   H4        1.0  0.38236  0.32571  0.90185  1.0000
  H   H5        1.0  0.21175  0.61599  0.21597  1.0000
  H   H6        1.0  0.21178  0.11599  0.28403  1.0000
  H   H7        1.0  0.78824  0.61599  0.71597  1.0000
  H   H8        1.0  0.78822  0.11599  0.78403  1.0000
  H   H9        1.0  0.02756  0.89301  0.25343  1.0000
  H   H10       1.0  0.02757  0.39300  0.24657  1.0000
  H   H11       1.0  0.97244  0.89300  0.75343  1.0000
  H   H12       1.0  0.97244  0.39300  0.74657  1.0000
  H   H13       1.0  0.50902  0.06802  0.13734  1.0000
  H   H14       1.0  0.50903  0.56802  0.36266  1.0000
  H   H15       1.0  0.49099  0.06802  0.63734  1.0000
  H   H16       1.0  0.49100  0.56802  0.86266  1.0000
  H   H17       1.0  0.48098  0.06710  0.20907  1.0000
  H   H18       1.0  0.48098  0.56709  0.29093  1.0000
  H   H19       1.0  0.51903  0.06709  0.70907  1.0000
  H   H20       1.0  0.51903  0.56709  0.79093  1.0000
  H   H21       1.0  0.85389  0.13359  0.17685  1.0000
  H   H22       1.0  0.85389  0.63359  0.32315  1.0000
  H   H23       1.0  0.14612  0.13359  0.67685  1.0000
  H   H24       1.0  0.14612  0.63359  0.82315  1.0000
  H   H25       1.0  0.13217  0.26924  0.05349  1.0000
  H   H26       1.0  0.13219  0.76924  0.44651  1.0000
  H   H27       1.0  0.86782  0.26923  0.55349  1.0000
  H   H28       1.0  0.86782  0.76924  0.94651  1.0000
  H   H29       1.0  0.72435  0.26070  0.06313  1.0000
  H   H30       1.0  0.72437  0.76070  0.43687  1.0000
  H   H31       1.0  0.27564  0.26070  0.56313  1.0000
  H   H32       1.0  0.27564  0.76071  0.93687  1.0000
  H   H33       1.0  0.08456  0.39354  0.97445  1.0000
  H   H34       1.0  0.08456  0.89354  0.52555  1.0000
  H   H35       1.0  0.91545  0.39353  0.47445  1.0000
  H   H36       1.0  0.91543  0.89353  0.02555  1.0000
  H   H37       1.0  0.68732  0.30476  0.97504  1.0000
  H   H38       1.0  0.68734  0.80475  0.52496  1.0000
  H   H39       1.0  0.31267  0.30475  0.47504  1.0000
  H   H40       1.0  0.31266  0.80475  0.02496  1.0000
  C   C1        1.0  0.75855  0.80472  0.13456  1.0000
  C   C2        1.0  0.75856  0.30472  0.36545  1.0000
  C   C3        1.0  0.24144  0.80472  0.63455  1.0000
  C   C4        1.0  0.24144  0.30472  0.86545  1.0000
  C   C5        1.0  0.05718  0.70033  0.19757  1.0000
  C   C6        1.0  0.05719  0.20033  0.30243  1.0000
  C   C7        1.0  0.94281  0.70033  0.69757  1.0000
  C   C8        1.0  0.94280  0.20033  0.80243  1.0000
  C   C9        1.0  0.97327  0.83843  0.21565  1.0000
  C   C10       1.0  0.97328  0.33843  0.28435  1.0000
  C   C11       1.0  0.02673  0.83843  0.71565  1.0000
  C   C12       1.0  0.02673  0.33843  0.78434  1.0000
  C   C13       1.0  0.64991  0.05190  0.17468  1.0000
  C   C14       1.0  0.64992  0.55189  0.32532  1.0000
  C   C15       1.0  0.35009  0.05189  0.67468  1.0000
  C   C16       1.0  0.35009  0.55189  0.82532  1.0000
  C   C17       1.0  0.84728  0.38364  0.99695  1.0000
  C   C18       1.0  0.84729  0.88363  0.50305  1.0000
  C   C19       1.0  0.15272  0.38363  0.49695  1.0000
  C   C20       1.0  0.15271  0.88363  0.00305  1.0000
  C   C21       1.0  0.68631  0.53565  0.99735  1.0000
  C   C22       1.0  0.68631  0.03564  0.50265  1.0000
  C   C23       1.0  0.31369  0.53564  0.49735  1.0000
  C   C24       1.0  0.31368  0.03564  0.00266  1.0000
  N   N1        1.0  0.92109  0.68021  0.14699  1.0000
  N   N2        1.0  0.92110  0.18021  0.35301  1.0000
  N   N3        1.0  0.07891  0.68021  0.64699  1.0000
  N   N4        1.0  0.07889  0.18021  0.85301  1.0000
  N   N5        1.0  0.78748  0.90320  0.17505  1.0000
  N   N6        1.0  0.78749  0.40319  0.32495  1.0000
  N   N7        1.0  0.21252  0.90319  0.67505  1.0000
  N   N8        1.0  0.21252  0.40319  0.82495  1.0000
  N   N9        1.0  0.91527  0.33168  0.05191  1.0000
  N   N10       1.0  0.91528  0.83167  0.44809  1.0000
  N   N11       1.0  0.08472  0.33167  0.55191  1.0000
  N   N12       1.0  0.08472  0.83167  0.94809  1.0000
  Cl  Cl1       1.0  0.34135  0.38678  0.15326  1.0000
  Cl  Cl2       1.0  0.34135  0.88677  0.34674  1.0000
  Cl  Cl3       1.0  0.65866  0.38677  0.65325  1.0000
  Cl  Cl4       1.0  0.65865  0.88678  0.84675  1.0000
  O   O1        1.0  0.67970  0.60464  0.04263  1.0000
  O   O2        1.0  0.67968  0.10463  0.45737  1.0000
  O   O3        1.0  0.32031  0.60463  0.54262  1.0000
  O   O4        1.0  0.32030  0.10464  0.95738  1.0000
  O   O5        1.0  0.57678  0.58838  0.95396  1.0000
  O   O6        1.0  0.57678  0.08837  0.54604  1.0000
  O   O7        1.0  0.42322  0.58838  0.45396  1.0000
  O   O8        1.0  0.42322  0.08838  0.04604  1.0000
