data_image0
_chemical_formula_structural       Ba4H40C40N48O8
_chemical_formula_sum              "Ba4 H40 C40 N48 O8"
_cell_length_a       9.57043
_cell_length_b       11.5513
_cell_length_c       15.7906
_cell_angle_alpha    90
_cell_angle_beta     89.9984
_cell_angle_gamma    90.0004

_space_group_name_H-M_alt    "P 1"
_space_group_IT_number       1

loop_
  _space_group_symop_operation_xyz
  'x, y, z'

loop_
  _atom_site_type_symbol
  _atom_site_label
  _atom_site_symmetry_multiplicity
  _atom_site_fract_x
  _atom_site_fract_y
  _atom_site_fract_z
  _atom_site_occupancy
  Ba  Ba1       1.0  0.50000  0.03835  0.75002  1.0000
  Ba  Ba2       1.0  0.00001  0.46165  0.24999  1.0000
  Ba  Ba3       1.0  0.50001  0.96165  0.25001  1.0000
  Ba  Ba4       1.0  0.00001  0.53835  0.74999  1.0000
  H   H1        1.0  0.42629  0.78243  0.57767  1.0000
  H   H2        1.0  0.07365  0.71752  0.07760  1.0000
  H   H3        1.0  0.57368  0.78247  0.92235  1.0000
  H   H4        1.0  0.92627  0.71755  0.42232  1.0000
  H   H5        1.0  0.57368  0.21752  0.42236  1.0000
  H   H6        1.0  0.92630  0.28248  0.92236  1.0000
  H   H7        1.0  0.42631  0.21755  0.07766  1.0000
  H   H8        1.0  0.07369  0.28246  0.57765  1.0000
  H   H9        1.0  0.49333  0.58268  0.53100  1.0000
  H   H10       1.0  0.00665  0.91729  0.03096  1.0000
  H   H11       1.0  0.50667  0.58270  0.96899  1.0000
  H   H12       1.0  0.99329  0.91731  0.46898  1.0000
  H   H13       1.0  0.50668  0.41730  0.46901  1.0000
  H   H14       1.0  0.99331  0.08272  0.96903  1.0000
  H   H15       1.0  0.49332  0.41731  0.03101  1.0000
  H   H16       1.0  0.00666  0.08269  0.53100  1.0000
  H   H17       1.0  0.71324  0.49596  0.59525  1.0000
  H   H18       1.0  0.78679  0.00405  0.09524  1.0000
  H   H19       1.0  0.28679  0.49596  0.90474  1.0000
  H   H20       1.0  0.21319  0.00404  0.40474  1.0000
  H   H21       1.0  0.28682  0.50405  0.40474  1.0000
  H   H22       1.0  0.21320  0.99598  0.90478  1.0000
  H   H23       1.0  0.71322  0.50404  0.09525  1.0000
  H   H24       1.0  0.78677  0.99597  0.59525  1.0000
  H   H25       1.0  0.32061  0.00659  0.57846  1.0000
  H   H26       1.0  0.17944  0.49344  0.07844  1.0000
  H   H27       1.0  0.67943  0.00655  0.92156  1.0000
  H   H28       1.0  0.82060  0.49343  0.42155  1.0000
  H   H29       1.0  0.67941  0.99345  0.42156  1.0000
  H   H30       1.0  0.82060  0.50659  0.92157  1.0000
  H   H31       1.0  0.32060  0.99341  0.07845  1.0000
  H   H32       1.0  0.17942  0.50654  0.57844  1.0000
  H   H33       1.0  0.46265  0.95954  0.54464  1.0000
  H   H34       1.0  0.03736  0.54037  0.04458  1.0000
  H   H35       1.0  0.53736  0.95962  0.95543  1.0000
  H   H36       1.0  0.96265  0.54044  0.45538  1.0000
  H   H37       1.0  0.53733  0.04036  0.45543  1.0000
  H   H38       1.0  0.96265  0.45956  0.95537  1.0000
  H   H39       1.0  0.46264  0.04045  0.04463  1.0000
  H   H40       1.0  0.03734  0.45961  0.54457  1.0000
  C   C1        1.0  0.77594  0.80137  0.76503  1.0000
  C   C2        1.0  0.72407  0.69862  0.26502  1.0000
  C   C3        1.0  0.22406  0.80138  0.73497  1.0000
  C   C4        1.0  0.27593  0.69863  0.23496  1.0000
  C   C5        1.0  0.22408  0.19862  0.23498  1.0000
  C   C6        1.0  0.27593  0.30136  0.73497  1.0000
  C   C7        1.0  0.77593  0.19863  0.26503  1.0000
  C   C8        1.0  0.72407  0.30138  0.76504  1.0000
  C   C9        1.0  0.70419  0.74432  0.69480  1.0000
  C   C10       1.0  0.79579  0.75567  0.19478  1.0000
  C   C11       1.0  0.29580  0.74434  0.80520  1.0000
  C   C12       1.0  0.20418  0.75568  0.30519  1.0000
  C   C13       1.0  0.29581  0.25566  0.30521  1.0000
  C   C14       1.0  0.20418  0.24432  0.80521  1.0000
  C   C15       1.0  0.70421  0.25568  0.19480  1.0000
  C   C16       1.0  0.79581  0.24434  0.69481  1.0000
  C   C17       1.0  0.51890  0.73998  0.60352  1.0000
  C   C18       1.0  0.98106  0.75999  0.10347  1.0000
  C   C19       1.0  0.48108  0.74001  0.89649  1.0000
  C   C20       1.0  0.01888  0.76001  0.39647  1.0000
  C   C21       1.0  0.48109  0.25998  0.39650  1.0000
  C   C22       1.0  0.01890  0.24002  0.89651  1.0000
  C   C23       1.0  0.51891  0.26001  0.10351  1.0000
  C   C24       1.0  0.98109  0.24000  0.60351  1.0000
  C   C25       1.0  0.55537  0.62894  0.57742  1.0000
  C   C26       1.0  0.94462  0.87104  0.07739  1.0000
  C   C27       1.0  0.44463  0.62896  0.92258  1.0000
  C   C28       1.0  0.05533  0.87106  0.42257  1.0000
  C   C29       1.0  0.44465  0.37104  0.42259  1.0000
  C   C30       1.0  0.05536  0.12897  0.92261  1.0000
  C   C31       1.0  0.55536  0.37105  0.07742  1.0000
  C   C32       1.0  0.94463  0.12895  0.57742  1.0000
  C   C33       1.0  0.67560  0.58197  0.61298  1.0000
  C   C34       1.0  0.82440  0.91803  0.11296  1.0000
  C   C35       1.0  0.32442  0.58198  0.88701  1.0000
  C   C36       1.0  0.17557  0.91803  0.38701  1.0000
  C   C37       1.0  0.32444  0.41803  0.38702  1.0000
  C   C38       1.0  0.17558  0.08199  0.88704  1.0000
  C   C39       1.0  0.67559  0.41803  0.11298  1.0000
  C   C40       1.0  0.82440  0.08198  0.61298  1.0000
  N   N1        1.0  0.59206  0.79898  0.66164  1.0000
  N   N2        1.0  0.90790  0.70099  0.16160  1.0000
  N   N3        1.0  0.40792  0.79901  0.83837  1.0000
  N   N4        1.0  0.09205  0.70101  0.33835  1.0000
  N   N5        1.0  0.40793  0.20099  0.33838  1.0000
  N   N6        1.0  0.09206  0.29901  0.83838  1.0000
  N   N7        1.0  0.59208  0.20100  0.16164  1.0000
  N   N8        1.0  0.90794  0.29900  0.66164  1.0000
  N   N9        1.0  0.73915  0.90536  0.79581  1.0000
  N   N10       1.0  0.76087  0.59463  0.29580  1.0000
  N   N11       1.0  0.26086  0.90538  0.70419  1.0000
  N   N12       1.0  0.23914  0.59465  0.20417  1.0000
  N   N13       1.0  0.26088  0.09463  0.20420  1.0000
  N   N14       1.0  0.23913  0.40535  0.70419  1.0000
  N   N15       1.0  0.73915  0.09464  0.29581  1.0000
  N   N16       1.0  0.76088  0.40537  0.79583  1.0000
  N   N17       1.0  0.90493  0.83014  0.87360  1.0000
  N   N18       1.0  0.59510  0.66984  0.37361  1.0000
  N   N19       1.0  0.09509  0.83016  0.62639  1.0000
  N   N20       1.0  0.40494  0.66987  0.12639  1.0000
  N   N21       1.0  0.09509  0.16984  0.12640  1.0000
  N   N22       1.0  0.40491  0.33013  0.62639  1.0000
  N   N23       1.0  0.90491  0.16986  0.37362  1.0000
  N   N24       1.0  0.59507  0.33017  0.87361  1.0000
  N   N25       1.0  0.82087  0.92139  0.86378  1.0000
  N   N26       1.0  0.67916  0.57859  0.36377  1.0000
  N   N27       1.0  0.17914  0.92141  0.63622  1.0000
  N   N28       1.0  0.32088  0.57861  0.13621  1.0000
  N   N29       1.0  0.17915  0.07859  0.13623  1.0000
  N   N30       1.0  0.32086  0.42138  0.63621  1.0000
  N   N31       1.0  0.82086  0.07861  0.36379  1.0000
  N   N32       1.0  0.67914  0.42141  0.86380  1.0000
  N   N33       1.0  0.87828  0.75344  0.81229  1.0000
  N   N34       1.0  0.62172  0.74654  0.31229  1.0000
  N   N35       1.0  0.12173  0.75346  0.68770  1.0000
  N   N36       1.0  0.37829  0.74656  0.18770  1.0000
  N   N37       1.0  0.12174  0.24654  0.18771  1.0000
  N   N38       1.0  0.37827  0.25343  0.68771  1.0000
  N   N39       1.0  0.87828  0.24656  0.31230  1.0000
  N   N40       1.0  0.62170  0.25347  0.81230  1.0000
  N   N41       1.0  0.75071  0.63898  0.67127  1.0000
  N   N42       1.0  0.74930  0.86102  0.17125  1.0000
  N   N43       1.0  0.24930  0.63899  0.82873  1.0000
  N   N44       1.0  0.25069  0.86102  0.32873  1.0000
  N   N45       1.0  0.24931  0.36101  0.32873  1.0000
  N   N46       1.0  0.25069  0.13899  0.82875  1.0000
  N   N47       1.0  0.75071  0.36102  0.17126  1.0000
  N   N48       1.0  0.74929  0.13899  0.67128  1.0000
  O   O1        1.0  0.41933  0.02894  0.56839  1.0000
  O   O2        1.0  0.08074  0.47103  0.06838  1.0000
  O   O3        1.0  0.58073  0.02896  0.93162  1.0000
  O   O4        1.0  0.91931  0.47106  0.43162  1.0000
  O   O5        1.0  0.58071  0.97103  0.43161  1.0000
  O   O6        1.0  0.91931  0.52896  0.93163  1.0000
  O   O7        1.0  0.41931  0.97105  0.06838  1.0000
  O   O8        1.0  0.08071  0.52895  0.56838  1.0000
