data_image0
_chemical_formula_structural       Cd2H52C44I4N8
_chemical_formula_sum              "Cd2 H52 C44 I4 N8"
_cell_length_a       9.21364
_cell_length_b       10.4602
_cell_length_c       14.0387
_cell_angle_alpha    86.2694
_cell_angle_beta     76.6843
_cell_angle_gamma    70.7383

_space_group_name_H-M_alt    "P 1"
_space_group_IT_number       1

loop_
  _space_group_symop_operation_xyz
  'x, y, z'

loop_
  _atom_site_type_symbol
  _atom_site_label
  _atom_site_symmetry_multiplicity
  _atom_site_fract_x
  _atom_site_fract_y
  _atom_site_fract_z
  _atom_site_occupancy
  Cd  Cd1       1.0  0.76880  0.36361  0.21320  1.0000
  Cd  Cd2       1.0  0.23119  0.63639  0.78680  1.0000
  H   H1        1.0  0.62878  0.28610  0.02946  1.0000
  H   H2        1.0  0.37122  0.71390  0.97054  1.0000
  H   H3        1.0  0.94803  0.03218  0.26977  1.0000
  H   H4        1.0  0.05198  0.96782  0.73023  1.0000
  H   H5        1.0  0.90013  0.78111  0.99135  1.0000
  H   H6        1.0  0.09988  0.21889  0.00865  1.0000
  H   H7        1.0  0.78966  0.98417  0.87396  1.0000
  H   H8        1.0  0.21034  0.01583  0.12604  1.0000
  H   H9        1.0  0.63133  0.14004  0.89713  1.0000
  H   H10       1.0  0.36867  0.85996  0.10287  1.0000
  H   H11       1.0  0.41703  0.55790  0.33468  1.0000
  H   H12       1.0  0.58296  0.44209  0.66532  1.0000
  H   H13       1.0  0.81843  0.12387  0.40107  1.0000
  H   H14       1.0  0.18156  0.87613  0.59893  1.0000
  H   H15       1.0  0.29769  0.29343  0.64163  1.0000
  H   H16       1.0  0.70231  0.70656  0.35837  1.0000
  H   H17       1.0  0.37849  0.11125  0.74479  1.0000
  H   H18       1.0  0.62151  0.88875  0.25521  1.0000
  H   H19       1.0  0.58301  0.02048  0.73122  1.0000
  H   H20       1.0  0.41699  0.97952  0.26878  1.0000
  H   H21       1.0  0.46727  0.95920  0.67364  1.0000
  H   H22       1.0  0.53273  0.04080  0.32636  1.0000
  H   H23       1.0  0.10971  0.35786  0.51678  1.0000
  H   H24       1.0  0.89028  0.64214  0.48322  1.0000
  H   H25       1.0  0.11264  0.43896  0.40271  1.0000
  H   H26       1.0  0.88736  0.56104  0.59729  1.0000
  H   H27       1.0  0.17592  0.62819  0.47159  1.0000
  H   H28       1.0  0.82408  0.37181  0.52841  1.0000
  H   H29       1.0  0.17861  0.54219  0.58375  1.0000
  H   H30       1.0  0.82139  0.45781  0.41625  1.0000
  H   H31       1.0  0.07003  0.57914  0.03908  1.0000
  H   H32       1.0  0.92996  0.42086  0.96092  1.0000
  H   H33       1.0  0.03580  0.56003  0.16767  1.0000
  H   H34       1.0  0.96420  0.43998  0.83233  1.0000
  H   H35       1.0  0.20844  0.59184  0.10427  1.0000
  H   H36       1.0  0.79156  0.40815  0.89572  1.0000
  H   H37       1.0  0.06378  0.67864  0.30467  1.0000
  H   H38       1.0  0.93622  0.32136  0.69533  1.0000
  H   H39       1.0  0.10021  0.82935  0.32912  1.0000
  H   H40       1.0  0.89980  0.17066  0.67088  1.0000
  H   H41       1.0  0.23012  0.71510  0.23414  1.0000
  H   H42       1.0  0.76988  0.28490  0.76587  1.0000
  H   H43       1.0  0.89760  0.93205  0.49523  1.0000
  H   H44       1.0  0.10240  0.06794  0.50478  1.0000
  H   H45       1.0  0.73996  0.86736  0.54281  1.0000
  H   H46       1.0  0.26004  0.13264  0.45719  1.0000
  H   H47       1.0  0.81264  0.94016  0.62292  1.0000
  H   H48       1.0  0.18735  0.05984  0.37708  1.0000
  H   H49       1.0  0.53053  0.95045  0.89389  1.0000
  H   H50       1.0  0.46947  0.04955  0.10611  1.0000
  H   H51       1.0  0.63094  0.86136  0.98295  1.0000
  H   H52       1.0  0.36906  0.13865  0.01705  1.0000
  C   C1        1.0  0.70135  0.19278  0.05659  1.0000
  C   C2        1.0  0.29865  0.80722  0.94341  1.0000
  C   C3        1.0  0.83376  0.97478  0.06561  1.0000
  C   C4        1.0  0.16625  0.02522  0.93439  1.0000
  C   C5        1.0  0.84620  0.04685  0.14329  1.0000
  C   C6        1.0  0.15381  0.95315  0.85671  1.0000
  C   C7        1.0  0.93420  0.97766  0.21077  1.0000
  C   C8        1.0  0.06581  0.02234  0.78923  1.0000
  C   C9        1.0  0.00862  0.83805  0.19943  1.0000
  C   C10       1.0  0.99139  0.16195  0.80056  1.0000
  C   C11       1.0  0.99707  0.76688  0.11954  1.0000
  C   C12       1.0  0.00294  0.23312  0.88045  1.0000
  C   C13       1.0  0.90837  0.83553  0.05252  1.0000
  C   C14       1.0  0.09164  0.16447  0.94748  1.0000
  C   C15       1.0  0.68658  0.04212  0.92886  1.0000
  C   C16       1.0  0.31342  0.95789  0.07114  1.0000
  C   C17       1.0  0.45340  0.47023  0.38026  1.0000
  C   C18       1.0  0.54660  0.52977  0.61974  1.0000
  C   C19       1.0  0.44464  0.32685  0.50315  1.0000
  C   C20       1.0  0.55535  0.67315  0.49685  1.0000
  C   C21       1.0  0.59077  0.28040  0.43528  1.0000
  C   C22       1.0  0.40922  0.71960  0.56472  1.0000
  C   C23       1.0  0.70434  0.15958  0.45208  1.0000
  C   C24       1.0  0.29565  0.84042  0.54792  1.0000
  C   C25       1.0  0.66901  0.08477  0.53495  1.0000
  C   C26       1.0  0.33099  0.91523  0.46505  1.0000
  C   C27       1.0  0.52138  0.13329  0.60368  1.0000
  C   C28       1.0  0.47862  0.86670  0.39632  1.0000
  C   C29       1.0  0.40887  0.25560  0.58797  1.0000
  C   C30       1.0  0.59113  0.74439  0.41203  1.0000
  C   C31       1.0  0.48524  0.05238  0.69313  1.0000
  C   C32       1.0  0.51475  0.94762  0.30687  1.0000
  C   C33       1.0  0.08619  0.45803  0.48208  1.0000
  C   C34       1.0  0.91381  0.54197  0.51792  1.0000
  C   C35       1.0  0.19670  0.52737  0.50454  1.0000
  C   C36       1.0  0.80329  0.47263  0.49546  1.0000
  C   C37       1.0  0.08166  0.61772  0.10670  1.0000
  C   C38       1.0  0.91834  0.38228  0.89330  1.0000
  C   C39       1.0  0.10527  0.76196  0.27077  1.0000
  C   C40       1.0  0.89474  0.23805  0.72922  1.0000
  C   C41       1.0  0.78618  0.95009  0.54981  1.0000
  C   C42       1.0  0.21382  0.04991  0.45019  1.0000
  C   C43       1.0  0.57020  0.96387  0.95959  1.0000
  C   C44       1.0  0.42980  0.03613  0.04041  1.0000
  I   I1        1.0  0.07360  0.28758  0.23919  1.0000
  I   I2        1.0  0.92639  0.71242  0.76082  1.0000
  I   I3        1.0  0.61681  0.60149  0.12924  1.0000
  I   I4        1.0  0.38319  0.39851  0.87077  1.0000
  N   N1        1.0  0.76172  0.18349  0.13535  1.0000
  N   N2        1.0  0.23828  0.81651  0.86464  1.0000
  N   N3        1.0  0.74152  0.07079  0.01198  1.0000
  N   N4        1.0  0.25849  0.92922  0.98802  1.0000
  N   N5        1.0  0.59226  0.37278  0.35924  1.0000
  N   N6        1.0  0.40773  0.62722  0.64076  1.0000
  N   N7        1.0  0.36095  0.44852  0.46602  1.0000
  N   N8        1.0  0.63904  0.55148  0.53398  1.0000
