data_image0
_chemical_formula_structural       K4H40C40N12O36
_chemical_formula_sum              "K4 H40 C40 N12 O36"
_cell_length_a       7.15274
_cell_length_b       10.6394
_cell_length_c       18.0466
_cell_angle_alpha    89.9999
_cell_angle_beta     93.7871
_cell_angle_gamma    89.9999

_space_group_name_H-M_alt    "P 1"
_space_group_IT_number       1

loop_
  _space_group_symop_operation_xyz
  'x, y, z'

loop_
  _atom_site_type_symbol
  _atom_site_label
  _atom_site_symmetry_multiplicity
  _atom_site_fract_x
  _atom_site_fract_y
  _atom_site_fract_z
  _atom_site_occupancy
  K   K1        1.0  0.30101  0.71776  0.17055  1.0000
  K   K2        1.0  0.69899  0.21777  0.32946  1.0000
  K   K3        1.0  0.69899  0.28223  0.82946  1.0000
  K   K4        1.0  0.30101  0.78223  0.67054  1.0000
  H   H1        1.0  0.32343  0.50976  0.42735  1.0000
  H   H2        1.0  0.67657  0.00977  0.07265  1.0000
  H   H3        1.0  0.67657  0.49024  0.57265  1.0000
  H   H4        1.0  0.32343  0.99023  0.92735  1.0000
  H   H5        1.0  0.79359  0.69970  0.44119  1.0000
  H   H6        1.0  0.20642  0.19970  0.05881  1.0000
  H   H7        1.0  0.20641  0.30030  0.55881  1.0000
  H   H8        1.0  0.79358  0.80030  0.94119  1.0000
  H   H9        1.0  0.77940  0.60235  0.13673  1.0000
  H   H10       1.0  0.22060  0.10235  0.36327  1.0000
  H   H11       1.0  0.22061  0.39766  0.86327  1.0000
  H   H12       1.0  0.77940  0.89765  0.63673  1.0000
  H   H13       1.0  0.99917  0.53152  0.11762  1.0000
  H   H14       1.0  0.00083  0.03152  0.38238  1.0000
  H   H15       1.0  0.00084  0.46848  0.88238  1.0000
  H   H16       1.0  0.99917  0.96847  0.61762  1.0000
  H   H17       1.0  0.90275  0.33611  0.16386  1.0000
  H   H18       1.0  0.09725  0.83611  0.33614  1.0000
  H   H19       1.0  0.09725  0.66389  0.83613  1.0000
  H   H20       1.0  0.90274  0.16388  0.66386  1.0000
  H   H21       1.0  0.67323  0.40286  0.17223  1.0000
  H   H22       1.0  0.32677  0.90286  0.32777  1.0000
  H   H23       1.0  0.32677  0.59715  0.82777  1.0000
  H   H24       1.0  0.67323  0.09714  0.67223  1.0000
  H   H25       1.0  0.59035  0.71631  0.01894  1.0000
  H   H26       1.0  0.40965  0.21631  0.48106  1.0000
  H   H27       1.0  0.40965  0.28369  0.98106  1.0000
  H   H28       1.0  0.59036  0.78369  0.51894  1.0000
  H   H29       1.0  0.39758  0.65996  0.96015  1.0000
  H   H30       1.0  0.60242  0.15996  0.53985  1.0000
  H   H31       1.0  0.60242  0.34004  0.03985  1.0000
  H   H32       1.0  0.39758  0.84004  0.46015  1.0000
  H   H33       1.0  0.22713  0.47631  0.00531  1.0000
  H   H34       1.0  0.77287  0.97631  0.49469  1.0000
  H   H35       1.0  0.77287  0.52369  0.99469  1.0000
  H   H36       1.0  0.22713  0.02369  0.50531  1.0000
  H   H37       1.0  0.31375  0.41121  0.09305  1.0000
  H   H38       1.0  0.68625  0.91121  0.40695  1.0000
  H   H39       1.0  0.68625  0.58879  0.90695  1.0000
  H   H40       1.0  0.31375  0.08879  0.59305  1.0000
  C   C1        1.0  0.95021  0.53009  0.28941  1.0000
  C   C2        1.0  0.04979  0.03009  0.21059  1.0000
  C   C3        1.0  0.04978  0.46991  0.71059  1.0000
  C   C4        1.0  0.95021  0.96991  0.78941  1.0000
  C   C5        1.0  0.13364  0.49690  0.33167  1.0000
  C   C6        1.0  0.86635  0.99690  0.16833  1.0000
  C   C7        1.0  0.86635  0.50310  0.66833  1.0000
  C   C8        1.0  0.13364  0.00310  0.83167  1.0000
  C   C9        1.0  0.18750  0.53728  0.40191  1.0000
  C   C10       1.0  0.81250  0.03729  0.09809  1.0000
  C   C11       1.0  0.81250  0.46271  0.59810  1.0000
  C   C12       1.0  0.18750  0.96271  0.90191  1.0000
  C   C13       1.0  0.06838  0.61536  0.44034  1.0000
  C   C14       1.0  0.93162  0.11536  0.05966  1.0000
  C   C15       1.0  0.93162  0.38464  0.55966  1.0000
  C   C16       1.0  0.06838  0.88464  0.94034  1.0000
  C   C17       1.0  0.88876  0.64553  0.40938  1.0000
  C   C18       1.0  0.11125  0.14553  0.09062  1.0000
  C   C19       1.0  0.11124  0.35446  0.59062  1.0000
  C   C20       1.0  0.88876  0.85447  0.90938  1.0000
  C   C21       1.0  0.82963  0.60435  0.33994  1.0000
  C   C22       1.0  0.17037  0.10435  0.16006  1.0000
  C   C23       1.0  0.17038  0.39565  0.66006  1.0000
  C   C24       1.0  0.82962  0.89566  0.83994  1.0000
  C   C25       1.0  0.89428  0.54233  0.15904  1.0000
  C   C26       1.0  0.10572  0.04233  0.34096  1.0000
  C   C27       1.0  0.10572  0.45767  0.84096  1.0000
  C   C28       1.0  0.89428  0.95767  0.65904  1.0000
  C   C29       1.0  0.82408  0.41529  0.18555  1.0000
  C   C30       1.0  0.17592  0.91529  0.31445  1.0000
  C   C31       1.0  0.17592  0.58471  0.81445  1.0000
  C   C32       1.0  0.82408  0.08471  0.68554  1.0000
  C   C33       1.0  0.51673  0.63136  0.99847  1.0000
  C   C34       1.0  0.48328  0.13136  0.50153  1.0000
  C   C35       1.0  0.48328  0.36864  0.00153  1.0000
  C   C36       1.0  0.51672  0.86864  0.49847  1.0000
  C   C37       1.0  0.35426  0.45498  0.04140  1.0000
  C   C38       1.0  0.64573  0.95498  0.45860  1.0000
  C   C39       1.0  0.64574  0.54502  0.95860  1.0000
  C   C40       1.0  0.35426  0.04502  0.54140  1.0000
  N   N1        1.0  0.26061  0.41699  0.29548  1.0000
  N   N2        1.0  0.73939  0.91699  0.20452  1.0000
  N   N3        1.0  0.73939  0.58301  0.70452  1.0000
  N   N4        1.0  0.26061  0.08301  0.79548  1.0000
  N   N5        1.0  0.12774  0.66170  0.51161  1.0000
  N   N6        1.0  0.87226  0.16171  0.98840  1.0000
  N   N7        1.0  0.87226  0.33829  0.48840  1.0000
  N   N8        1.0  0.12775  0.83829  0.01160  1.0000
  N   N9        1.0  0.64231  0.63436  0.31357  1.0000
  N   N10       1.0  0.35768  0.13436  0.18643  1.0000
  N   N11       1.0  0.35768  0.36564  0.68643  1.0000
  N   N12       1.0  0.64231  0.86564  0.81357  1.0000
  O   O1        1.0  0.98336  0.60156  0.22382  1.0000
  O   O2        1.0  0.01663  0.10156  0.27618  1.0000
  O   O3        1.0  0.01664  0.39844  0.77618  1.0000
  O   O4        1.0  0.98336  0.89844  0.72382  1.0000
  O   O5        1.0  0.85714  0.41676  0.26496  1.0000
  O   O6        1.0  0.14287  0.91676  0.23504  1.0000
  O   O7        1.0  0.14286  0.58324  0.73504  1.0000
  O   O8        1.0  0.85714  0.08324  0.76496  1.0000
  O   O9        1.0  0.39576  0.37033  0.33378  1.0000
  O   O10       1.0  0.60423  0.87033  0.16622  1.0000
  O   O11       1.0  0.60423  0.62967  0.66623  1.0000
  O   O12       1.0  0.39577  0.12967  0.83378  1.0000
  O   O13       1.0  0.23321  0.39709  0.22733  1.0000
  O   O14       1.0  0.76679  0.89709  0.27267  1.0000
  O   O15       1.0  0.76679  0.60291  0.77267  1.0000
  O   O16       1.0  0.23321  0.10291  0.72733  1.0000
  O   O17       1.0  0.28147  0.62483  0.54182  1.0000
  O   O18       1.0  0.71853  0.12483  0.95818  1.0000
  O   O19       1.0  0.71853  0.37518  0.45818  1.0000
  O   O20       1.0  0.28146  0.87516  0.04182  1.0000
  O   O21       1.0  0.02482  0.73911  0.54297  1.0000
  O   O22       1.0  0.97517  0.23912  0.95703  1.0000
  O   O23       1.0  0.97517  0.26088  0.45703  1.0000
  O   O24       1.0  0.02482  0.76087  0.04297  1.0000
  O   O25       1.0  0.53686  0.69066  0.35507  1.0000
  O   O26       1.0  0.46315  0.19065  0.14493  1.0000
  O   O27       1.0  0.46314  0.30934  0.64493  1.0000
  O   O28       1.0  0.53685  0.80935  0.85507  1.0000
  O   O29       1.0  0.58920  0.60229  0.24869  1.0000
  O   O30       1.0  0.41080  0.10228  0.25131  1.0000
  O   O31       1.0  0.41081  0.39772  0.75130  1.0000
  O   O32       1.0  0.58920  0.89771  0.74869  1.0000
  O   O33       1.0  0.44841  0.57029  0.06248  1.0000
  O   O34       1.0  0.55159  0.07029  0.43752  1.0000
  O   O35       1.0  0.55159  0.42971  0.93753  1.0000
  O   O36       1.0  0.44841  0.92971  0.56247  1.0000
