data_image0
_chemical_formula_structural       K4H28Ru2C32N12O6
_chemical_formula_sum              "K4 H28 Ru2 C32 N12 O6"
_cell_length_a       6.89521
_cell_length_b       10.2047
_cell_length_c       15.487
_cell_angle_alpha    70.741
_cell_angle_beta     85.2768
_cell_angle_gamma    75.5364

_space_group_name_H-M_alt    "P 1"
_space_group_IT_number       1

loop_
  _space_group_symop_operation_xyz
  'x, y, z'

loop_
  _atom_site_type_symbol
  _atom_site_label
  _atom_site_symmetry_multiplicity
  _atom_site_fract_x
  _atom_site_fract_y
  _atom_site_fract_z
  _atom_site_occupancy
  K   K1        1.0  0.84086  0.12372  0.92587  1.0000
  K   K2        1.0  0.34140  0.04887  0.07439  1.0000
  K   K3        1.0  0.39717  0.48534  0.93329  1.0000
  K   K4        1.0  0.89717  0.41903  0.06655  1.0000
  H   H1        1.0  0.57510  0.29247  0.69215  1.0000
  H   H2        1.0  0.07517  0.98463  0.30783  1.0000
  H   H3        1.0  0.77053  0.30571  0.55058  1.0000
  H   H4        1.0  0.27061  0.85613  0.44941  1.0000
  H   H5        1.0  0.60439  0.45007  0.39666  1.0000
  H   H6        1.0  0.10460  0.84667  0.60332  1.0000
  H   H7        1.0  0.28866  0.60873  0.31219  1.0000
  H   H8        1.0  0.78899  0.92086  0.68777  1.0000
  H   H9        1.0  0.92241  0.71599  0.31575  1.0000
  H   H10       1.0  0.42271  0.03161  0.68422  1.0000
  H   H11       1.0  0.60930  0.76459  0.40824  1.0000
  H   H12       1.0  0.10956  0.17254  0.59179  1.0000
  H   H13       1.0  0.45474  0.73609  0.56633  1.0000
  H   H14       1.0  0.95474  0.30210  0.43374  1.0000
  H   H15       1.0  0.66343  0.59458  0.70330  1.0000
  H   H16       1.0  0.16327  0.29756  0.29672  1.0000
  H   H17       1.0  0.61286  0.77512  0.80171  1.0000
  H   H18       1.0  0.11275  0.57647  0.19835  1.0000
  H   H19       1.0  0.38882  0.76626  0.80071  1.0000
  H   H20       1.0  0.88867  0.56660  0.19934  1.0000
  H   H21       1.0  0.96650  0.73420  0.95264  1.0000
  H   H22       1.0  0.46622  0.68641  0.04741  1.0000
  H   H23       1.0  0.04358  0.66300  0.05401  1.0000
  H   H24       1.0  0.54326  0.71721  0.94599  1.0000
  H   H25       1.0  0.79439  0.84489  0.10047  1.0000
  H   H26       1.0  0.29374  0.94608  0.89950  1.0000
  H   H27       1.0  0.67552  0.80752  0.03414  1.0000
  H   H28       1.0  0.17540  0.84193  0.96583  1.0000
  Ru  Ru1       1.0  0.11920  0.42160  0.74126  1.0000
  Ru  Ru2       1.0  0.61917  0.16272  0.25871  1.0000
  C   C1        1.0  0.50432  0.35382  0.62599  1.0000
  C   C2        1.0  0.00439  0.97979  0.37399  1.0000
  C   C3        1.0  0.61373  0.36260  0.54470  1.0000
  C   C4        1.0  0.11384  0.90720  0.45527  1.0000
  C   C5        1.0  0.52272  0.44128  0.46101  1.0000
  C   C6        1.0  0.02295  0.90222  0.53896  1.0000
  C   C7        1.0  0.31775  0.51119  0.45924  1.0000
  C   C8        1.0  0.81793  0.97032  0.54072  1.0000
  C   C9        1.0  0.21713  0.49635  0.54426  1.0000
  C   C10       1.0  0.71724  0.04050  0.45571  1.0000
  C   C11       1.0  0.00907  0.56300  0.54660  1.0000
  C   C12       1.0  0.50915  0.10938  0.45338  1.0000
  C   C13       1.0  0.20671  0.59366  0.37674  1.0000
  C   C14       1.0  0.70695  0.97026  0.62324  1.0000
  C   C15       1.0  0.00610  0.65416  0.37882  1.0000
  C   C16       1.0  0.50635  0.03280  0.62116  1.0000
  C   C17       1.0  0.90131  0.64079  0.46407  1.0000
  C   C18       1.0  0.40151  0.10463  0.53591  1.0000
  C   C19       1.0  0.69618  0.70478  0.47081  1.0000
  C   C20       1.0  0.19634  0.17525  0.52921  1.0000
  C   C21       1.0  0.61166  0.68922  0.55677  1.0000
  C   C22       1.0  0.11166  0.24564  0.44326  1.0000
  C   C23       1.0  0.72807  0.61008  0.63512  1.0000
  C   C24       1.0  0.22798  0.24490  0.36489  1.0000
  C   C25       1.0  0.20144  0.59461  0.74785  1.0000
  C   C26       1.0  0.70112  0.34244  0.25202  1.0000
  C   C27       1.0  0.03078  0.24729  0.73818  1.0000
  C   C28       1.0  0.53092  0.98519  0.26188  1.0000
  C   C29       1.0  0.31518  0.29411  0.83558  1.0000
  C   C30       1.0  0.81543  0.12975  0.16446  1.0000
  C   C31       1.0  0.92028  0.43971  0.83594  1.0000
  C   C32       1.0  0.42017  0.27542  0.16403  1.0000
  N   N1        1.0  0.31034  0.41893  0.62640  1.0000
  N   N2        1.0  0.81041  0.04529  0.37358  1.0000
  N   N3        1.0  0.97215  0.14764  0.73879  1.0000
  N   N4        1.0  0.47229  0.88613  0.26133  1.0000
  N   N5        1.0  0.25044  0.69359  0.75525  1.0000
  N   N6        1.0  0.75012  0.44878  0.24469  1.0000
  N   N7        1.0  0.92238  0.54828  0.63081  1.0000
  N   N8        1.0  0.42232  0.17884  0.36918  1.0000
  N   N9        1.0  0.43026  0.21907  0.89461  1.0000
  N   N10       1.0  0.93068  0.11381  0.10549  1.0000
  N   N11       1.0  0.79613  0.44913  0.89276  1.0000
  N   N12       1.0  0.29598  0.34173  0.10721  1.0000
  O   O1        1.0  0.48677  0.79353  0.83383  1.0000
  O   O2        1.0  0.98668  0.62698  0.16617  1.0000
  O   O3        1.0  0.08768  0.68169  0.98833  1.0000
  O   O4        1.0  0.58743  0.67012  0.01167  1.0000
  O   O5        1.0  0.71853  0.88764  0.04330  1.0000
  O   O6        1.0  0.21781  0.93142  0.95665  1.0000
