data_image0
_chemical_formula_structural       K2Co2H44C48N4O6
_chemical_formula_sum              "K2 Co2 H44 C48 N4 O6"
_cell_length_a       7.45658
_cell_length_b       12.1168
_cell_length_c       12.1169
_cell_angle_alpha    79.5262
_cell_angle_beta     87.4245
_cell_angle_gamma    87.426

_space_group_name_H-M_alt    "P 1"
_space_group_IT_number       1

loop_
  _space_group_symop_operation_xyz
  'x, y, z'

loop_
  _atom_site_type_symbol
  _atom_site_label
  _atom_site_symmetry_multiplicity
  _atom_site_fract_x
  _atom_site_fract_y
  _atom_site_fract_z
  _atom_site_occupancy
  K   K1        1.0  0.84409  0.45030  0.46154  1.0000
  K   K2        1.0  0.34409  0.46153  0.45030  1.0000
  Co  Co1       1.0  0.61735  0.27794  0.65590  1.0000
  Co  Co2       1.0  0.11734  0.65589  0.27794  1.0000
  H   H1        1.0  0.67428  0.34649  0.94703  1.0000
  H   H2        1.0  0.17428  0.94703  0.34648  1.0000
  H   H3        1.0  0.70177  0.96877  0.63869  1.0000
  H   H4        1.0  0.20177  0.63869  0.96878  1.0000
  H   H5        1.0  0.63953  0.53406  0.96289  1.0000
  H   H6        1.0  0.13953  0.96289  0.53405  1.0000
  H   H7        1.0  0.75785  0.90670  0.79077  1.0000
  H   H8        1.0  0.25785  0.79077  0.90670  1.0000
  H   H9        1.0  0.49712  0.79124  0.68204  1.0000
  H   H10       1.0  0.99712  0.68204  0.79124  1.0000
  H   H11       1.0  0.65675  0.91760  0.46772  1.0000
  H   H12       1.0  0.15675  0.46772  0.91761  1.0000
  H   H13       1.0  0.72638  0.19882  0.03271  1.0000
  H   H14       1.0  0.22638  0.03271  0.19882  1.0000
  H   H15       1.0  0.50916  0.31222  0.28897  1.0000
  H   H16       1.0  0.00915  0.28896  0.31222  1.0000
  H   H17       1.0  0.57714  0.96165  0.26674  1.0000
  H   H18       1.0  0.07714  0.26674  0.96165  1.0000
  H   H19       1.0  0.49904  0.64843  0.56039  1.0000
  H   H20       1.0  0.99903  0.56039  0.64843  1.0000
  H   H21       1.0  0.57359  0.73565  0.88396  1.0000
  H   H22       1.0  0.07360  0.88397  0.73565  1.0000
  H   H23       1.0  0.50137  0.16007  0.17866  1.0000
  H   H24       1.0  0.00137  0.17865  0.16007  1.0000
  H   H25       1.0  0.06691  0.17372  0.82247  1.0000
  H   H26       1.0  0.56691  0.82246  0.17372  1.0000
  H   H27       1.0  0.29712  0.20562  0.79273  1.0000
  H   H28       1.0  0.79712  0.79273  0.20561  1.0000
  H   H29       1.0  0.97164  0.34740  0.72098  1.0000
  H   H30       1.0  0.47164  0.72098  0.34740  1.0000
  H   H31       1.0  0.20189  0.38792  0.70976  1.0000
  H   H32       1.0  0.70188  0.70976  0.38791  1.0000
  H   H33       1.0  0.16983  0.19902  0.48155  1.0000
  H   H34       1.0  0.66983  0.48155  0.19901  1.0000
  H   H35       1.0  0.95373  0.19389  0.55423  1.0000
  H   H36       1.0  0.45373  0.55422  0.19389  1.0000
  H   H37       1.0  0.82594  0.85646  0.99107  1.0000
  H   H38       1.0  0.32594  0.99107  0.85646  1.0000
  H   H39       1.0  0.31524  0.10716  0.64549  1.0000
  H   H40       1.0  0.81523  0.64550  0.10715  1.0000
  H   H41       1.0  0.09783  0.05689  0.68833  1.0000
  H   H42       1.0  0.59782  0.68832  0.05689  1.0000
  H   H43       1.0  0.80750  0.00218  0.11241  1.0000
  H   H44       1.0  0.30750  0.11241  0.00217  1.0000
  C   C1        1.0  0.56912  0.50847  0.69084  1.0000
  C   C2        1.0  0.06912  0.69084  0.50846  1.0000
  C   C3        1.0  0.64478  0.36181  0.85789  1.0000
  C   C4        1.0  0.14477  0.85790  0.36181  1.0000
  C   C5        1.0  0.60630  0.47569  0.80753  1.0000
  C   C6        1.0  0.10630  0.80753  0.47569  1.0000
  C   C7        1.0  0.58406  0.20327  0.44333  1.0000
  C   C8        1.0  0.08404  0.44333  0.20327  1.0000
  C   C9        1.0  0.62465  0.08893  0.49430  1.0000
  C   C10       1.0  0.12464  0.49429  0.08893  1.0000
  C   C11       1.0  0.66607  0.05738  0.60970  1.0000
  C   C12       1.0  0.16607  0.60970  0.05738  1.0000
  C   C13       1.0  0.69616  0.16600  0.86442  1.0000
  C   C14       1.0  0.19616  0.86442  0.16600  1.0000
  C   C15       1.0  0.60758  0.55999  0.87467  1.0000
  C   C16       1.0  0.10758  0.87467  0.55999  1.0000
  C   C17       1.0  0.75046  0.97180  0.84216  1.0000
  C   C18       1.0  0.25045  0.84215  0.97180  1.0000
  C   C19       1.0  0.70495  0.08338  0.79627  1.0000
  C   C20       1.0  0.20495  0.79627  0.08338  1.0000
  C   C21       1.0  0.52973  0.70362  0.71723  1.0000
  C   C22       1.0  0.02973  0.71723  0.70362  1.0000
  C   C23       1.0  0.62280  0.00396  0.42796  1.0000
  C   C24       1.0  0.12279  0.42796  0.00395  1.0000
  C   C25       1.0  0.73192  0.13628  0.97851  1.0000
  C   C26       1.0  0.23191  0.97850  0.13628  1.0000
  C   C27       1.0  0.54032  0.22554  0.32861  1.0000
  C   C28       1.0  0.04031  0.32860  0.22554  1.0000
  C   C29       1.0  0.57938  0.02816  0.31597  1.0000
  C   C30       1.0  0.07938  0.31597  0.02816  1.0000
  C   C31       1.0  0.52931  0.62338  0.64889  1.0000
  C   C32       1.0  0.02930  0.64889  0.62338  1.0000
  C   C33       1.0  0.57093  0.67220  0.83100  1.0000
  C   C34       1.0  0.07093  0.83100  0.67220  1.0000
  C   C35       1.0  0.53715  0.14000  0.26652  1.0000
  C   C36       1.0  0.03715  0.26652  0.14000  1.0000
  C   C37       1.0  0.16559  0.20539  0.75572  1.0000
  C   C38       1.0  0.66559  0.75572  0.20539  1.0000
  C   C39       1.0  0.11001  0.32378  0.69589  1.0000
  C   C40       1.0  0.61001  0.69589  0.32378  1.0000
  C   C41       1.0  0.09764  0.20820  0.56070  1.0000
  C   C42       1.0  0.59764  0.56070  0.20820  1.0000
  C   C43       1.0  0.78858  0.94312  0.95578  1.0000
  C   C44       1.0  0.28858  0.95579  0.94312  1.0000
  C   C45       1.0  0.17558  0.13255  0.66337  1.0000
  C   C46       1.0  0.67558  0.66336  0.13255  1.0000
  C   C47       1.0  0.77862  0.02483  0.02367  1.0000
  C   C48       1.0  0.27862  0.02368  0.02482  1.0000
  N   N1        1.0  0.66426  0.12721  0.68249  1.0000
  N   N2        1.0  0.16426  0.68250  0.12720  1.0000
  N   N3        1.0  0.65110  0.27540  0.80413  1.0000
  N   N4        1.0  0.15110  0.80413  0.27539  1.0000
  O   O1        1.0  0.58664  0.28779  0.49886  1.0000
  O   O2        1.0  0.08664  0.49886  0.28779  1.0000
  O   O3        1.0  0.57147  0.43585  0.62099  1.0000
  O   O4        1.0  0.07148  0.62099  0.43585  1.0000
  O   O5        1.0  0.11942  0.32238  0.57624  1.0000
  O   O6        1.0  0.61942  0.57623  0.32238  1.0000
