data_image0
_chemical_formula_structural       CdH16C26S2N14O6
_chemical_formula_sum              "Cd1 H16 C26 S2 N14 O6"
_cell_length_a       7.46076
_cell_length_b       8.675
_cell_length_c       13.0574
_cell_angle_alpha    104.22
_cell_angle_beta     101.648
_cell_angle_gamma    102.434

_space_group_name_H-M_alt    "P 1"
_space_group_IT_number       1

loop_
  _space_group_symop_operation_xyz
  'x, y, z'

loop_
  _atom_site_type_symbol
  _atom_site_label
  _atom_site_symmetry_multiplicity
  _atom_site_fract_x
  _atom_site_fract_y
  _atom_site_fract_z
  _atom_site_occupancy
  Cd  Cd1       1.0  1.00000  0.00000  0.50000  1.0000
  H   H1        1.0  0.50187  0.46787  0.30364  1.0000
  H   H2        1.0  0.49813  0.53213  0.69636  1.0000
  H   H3        1.0  0.60678  0.23453  0.34985  1.0000
  H   H4        1.0  0.39322  0.76547  0.65015  1.0000
  H   H5        1.0  0.42188  0.06897  0.44622  1.0000
  H   H6        1.0  0.57812  0.93103  0.55378  1.0000
  H   H7        1.0  0.03787  0.35102  0.44973  1.0000
  H   H8        1.0  0.96213  0.64898  0.55027  1.0000
  H   H9        1.0  0.13556  0.88793  0.98911  1.0000
  H   H10       1.0  0.86444  0.11208  0.01089  1.0000
  H   H11       1.0  0.16885  0.83698  0.79930  1.0000
  H   H12       1.0  0.83115  0.16303  0.20070  1.0000
  H   H13       1.0  0.33861  0.41410  0.80878  1.0000
  H   H14       1.0  0.66139  0.58589  0.19122  1.0000
  H   H15       1.0  0.30613  0.44389  0.99773  1.0000
  H   H16       1.0  0.69386  0.55611  0.00227  1.0000
  C   C1        1.0  0.19843  0.57097  0.36020  1.0000
  C   C2        1.0  0.80158  0.42903  0.63980  1.0000
  C   C3        1.0  0.19381  0.68633  0.11954  1.0000
  C   C4        1.0  0.80619  0.31367  0.88046  1.0000
  C   C5        1.0  0.12464  0.76706  0.29449  1.0000
  C   C6        1.0  0.87536  0.23294  0.70551  1.0000
  C   C7        1.0  0.26241  0.42896  0.37498  1.0000
  C   C8        1.0  0.73759  0.57104  0.62503  1.0000
  C   C9        1.0  0.42184  0.39329  0.34420  1.0000
  C   C10       1.0  0.57816  0.60671  0.65580  1.0000
  C   C11       1.0  0.48028  0.26224  0.36971  1.0000
  C   C12       1.0  0.51972  0.73776  0.63029  1.0000
  C   C13       1.0  0.37816  0.17093  0.42394  1.0000
  C   C14       1.0  0.62184  0.82907  0.57606  1.0000
  C   C15       1.0  0.16500  0.32865  0.42701  1.0000
  C   C16       1.0  0.83500  0.67136  0.57299  1.0000
  C   C17       1.0  0.21664  0.66817  0.00916  1.0000
  C   C18       1.0  0.78336  0.33183  0.99084  1.0000
  C   C19       1.0  0.17910  0.77978  0.95207  1.0000
  C   C20       1.0  0.82089  0.22022  0.04793  1.0000
  C   C21       1.0  0.19845  0.75183  0.84550  1.0000
  C   C22       1.0  0.80155  0.24816  0.15450  1.0000
  C   C23       1.0  0.29193  0.51761  0.85054  1.0000
  C   C24       1.0  0.70806  0.48239  0.14946  1.0000
  C   C25       1.0  0.27505  0.53373  0.95653  1.0000
  C   C26       1.0  0.72494  0.46626  0.04347  1.0000
  S   S1        1.0  0.10997  0.84867  0.18704  1.0000
  S   S2        1.0  0.89003  0.15133  0.81296  1.0000
  N   N1        1.0  0.09425  0.79264  0.39318  1.0000
  N   N2        1.0  0.90575  0.20736  0.60682  1.0000
  N   N3        1.0  0.14100  0.66981  0.43384  1.0000
  N   N4        1.0  0.85900  0.33020  0.56616  1.0000
  N   N5        1.0  0.19010  0.62952  0.27099  1.0000
  N   N6        1.0  0.80990  0.37049  0.72901  1.0000
  N   N7        1.0  0.22711  0.58110  0.17266  1.0000
  N   N8        1.0  0.77289  0.41891  0.82734  1.0000
  N   N9        1.0  0.22177  0.20202  0.45091  1.0000
  N   N10       1.0  0.77823  0.79798  0.54909  1.0000
  N   N11       1.0  0.25350  0.62290  0.79444  1.0000
  N   N12       1.0  0.74650  0.37710  0.20556  1.0000
  N   N13       1.0  0.32908  0.08594  0.72285  1.0000
  N   N14       1.0  0.67092  0.91406  0.27715  1.0000
  O   O1        1.0  0.15352  0.99573  0.67953  1.0000
  O   O2        1.0  0.84647  0.00427  0.32047  1.0000
  O   O3        1.0  0.39491  0.12640  0.82484  1.0000
  O   O4        1.0  0.60509  0.87359  0.17515  1.0000
  O   O5        1.0  0.42636  0.12906  0.66100  1.0000
  O   O6        1.0  0.57364  0.87094  0.33900  1.0000
