data_image0
_chemical_formula_structural       Zn2H44C52N12O12
_chemical_formula_sum              "Zn2 H44 C52 N12 O12"
_cell_length_a       10.1989
_cell_length_b       10.199
_cell_length_c       12.3375
_cell_angle_alpha    81.7226
_cell_angle_beta     81.7222
_cell_angle_gamma    88.6701

_space_group_name_H-M_alt    "P 1"
_space_group_IT_number       1

loop_
  _space_group_symop_operation_xyz
  'x, y, z'

loop_
  _atom_site_type_symbol
  _atom_site_label
  _atom_site_symmetry_multiplicity
  _atom_site_fract_x
  _atom_site_fract_y
  _atom_site_fract_z
  _atom_site_occupancy
  Zn  Zn1       1.0  0.56996  0.43005  0.75000  1.0000
  Zn  Zn2       1.0  0.43004  0.56996  0.25000  1.0000
  H   H1        1.0  0.70442  0.60318  0.87690  1.0000
  H   H2        1.0  0.39683  0.29559  0.62308  1.0000
  H   H3        1.0  0.29559  0.39682  0.12308  1.0000
  H   H4        1.0  0.60317  0.70441  0.37692  1.0000
  H   H5        1.0  0.56896  0.00135  0.78654  1.0000
  H   H6        1.0  0.99866  0.43104  0.71346  1.0000
  H   H7        1.0  0.43103  0.99865  0.21346  1.0000
  H   H8        1.0  0.00134  0.56896  0.28654  1.0000
  H   H9        1.0  0.44675  0.91503  0.64780  1.0000
  H   H10       1.0  0.08499  0.55324  0.85221  1.0000
  H   H11       1.0  0.55325  0.08498  0.35220  1.0000
  H   H12       1.0  0.91501  0.44675  0.14780  1.0000
  H   H13       1.0  0.46365  0.67391  0.62935  1.0000
  H   H14       1.0  0.32610  0.53634  0.87065  1.0000
  H   H15       1.0  0.53634  0.32610  0.37065  1.0000
  H   H16       1.0  0.67390  0.46366  0.12935  1.0000
  H   H17       1.0  0.70664  0.96553  0.92588  1.0000
  H   H18       1.0  0.03448  0.29337  0.57411  1.0000
  H   H19       1.0  0.29336  0.03447  0.07412  1.0000
  H   H20       1.0  0.96552  0.70663  0.42589  1.0000
  H   H21       1.0  0.14287  0.84482  0.16146  1.0000
  H   H22       1.0  0.15518  0.85713  0.33854  1.0000
  H   H23       1.0  0.85713  0.15518  0.83854  1.0000
  H   H24       1.0  0.84483  0.14287  0.66146  1.0000
  H   H25       1.0  0.78360  0.06119  0.24470  1.0000
  H   H26       1.0  0.93880  0.21639  0.25531  1.0000
  H   H27       1.0  0.21640  0.93881  0.75530  1.0000
  H   H28       1.0  0.06119  0.78360  0.74470  1.0000
  H   H29       1.0  0.67771  0.95535  0.11180  1.0000
  H   H30       1.0  0.04465  0.32229  0.38820  1.0000
  H   H31       1.0  0.32229  0.04465  0.88820  1.0000
  H   H32       1.0  0.95535  0.67770  0.61180  1.0000
  H   H33       1.0  0.99217  0.63722  0.99229  1.0000
  H   H34       1.0  0.36278  0.00784  0.50772  1.0000
  H   H35       1.0  0.00783  0.36278  0.00772  1.0000
  H   H36       1.0  0.63722  0.99216  0.49228  1.0000
  H   H37       1.0  0.13776  0.66298  0.05309  1.0000
  H   H38       1.0  0.33702  0.86224  0.44692  1.0000
  H   H39       1.0  0.86224  0.33702  0.94692  1.0000
  H   H40       1.0  0.66298  0.13776  0.55308  1.0000
  H   H41       1.0  0.10738  0.76291  0.92946  1.0000
  H   H42       1.0  0.23708  0.89263  0.57054  1.0000
  H   H43       1.0  0.89263  0.23709  0.07054  1.0000
  H   H44       1.0  0.76292  0.10737  0.42946  1.0000
  C   C1        1.0  0.64989  0.67528  0.82641  1.0000
  C   C2        1.0  0.32473  0.35012  0.67358  1.0000
  C   C3        1.0  0.35012  0.32473  0.17358  1.0000
  C   C4        1.0  0.67527  0.64988  0.32642  1.0000
  C   C5        1.0  0.64809  0.80899  0.84050  1.0000
  C   C6        1.0  0.19102  0.35192  0.65949  1.0000
  C   C7        1.0  0.35191  0.19101  0.15949  1.0000
  C   C8        1.0  0.80898  0.64808  0.34051  1.0000
  C   C9        1.0  0.57305  0.89691  0.77583  1.0000
  C   C10       1.0  0.10310  0.42695  0.72417  1.0000
  C   C11       1.0  0.42695  0.10309  0.22418  1.0000
  C   C12       1.0  0.89690  0.57305  0.27583  1.0000
  C   C13       1.0  0.50531  0.84928  0.69952  1.0000
  C   C14       1.0  0.15073  0.49469  0.80048  1.0000
  C   C15       1.0  0.49469  0.15072  0.30048  1.0000
  C   C16       1.0  0.84927  0.50531  0.19952  1.0000
  C   C17       1.0  0.51382  0.71553  0.68899  1.0000
  C   C18       1.0  0.28448  0.48618  0.81100  1.0000
  C   C19       1.0  0.48618  0.28448  0.31100  1.0000
  C   C20       1.0  0.71551  0.51382  0.18900  1.0000
  C   C21       1.0  0.71933  0.85891  0.92060  1.0000
  C   C22       1.0  0.14109  0.28069  0.57940  1.0000
  C   C23       1.0  0.28067  0.14109  0.07940  1.0000
  C   C24       1.0  0.85891  0.71932  0.42061  1.0000
  C   C25       1.0  0.85122  0.84328  0.05848  1.0000
  C   C26       1.0  0.15672  0.14878  0.44151  1.0000
  C   C27       1.0  0.14878  0.15672  0.94152  1.0000
  C   C28       1.0  0.84328  0.85122  0.55849  1.0000
  C   C29       1.0  0.98264  0.80832  0.07499  1.0000
  C   C30       1.0  0.19168  0.01736  0.42500  1.0000
  C   C31       1.0  0.01736  0.19168  0.92500  1.0000
  C   C32       1.0  0.80833  0.98264  0.57500  1.0000
  C   C33       1.0  0.04043  0.86935  0.15057  1.0000
  C   C34       1.0  0.13065  0.95957  0.34942  1.0000
  C   C35       1.0  0.95957  0.13065  0.84943  1.0000
  C   C36       1.0  0.86935  0.04043  0.65058  1.0000
  C   C37       1.0  0.97275  0.96321  0.21088  1.0000
  C   C38       1.0  0.03679  0.02725  0.28912  1.0000
  C   C39       1.0  0.02725  0.03679  0.78912  1.0000
  C   C40       1.0  0.96321  0.97275  0.71088  1.0000
  C   C41       1.0  0.84074  0.99303  0.19575  1.0000
  C   C42       1.0  0.00697  0.15926  0.30425  1.0000
  C   C43       1.0  0.15927  0.00698  0.80424  1.0000
  C   C44       1.0  0.99303  0.84073  0.69576  1.0000
  C   C45       1.0  0.78078  0.93356  0.12142  1.0000
  C   C46       1.0  0.06645  0.21922  0.37858  1.0000
  C   C47       1.0  0.21922  0.06645  0.87858  1.0000
  C   C48       1.0  0.93355  0.78077  0.62142  1.0000
  C   C49       1.0  0.05938  0.71180  0.00948  1.0000
  C   C50       1.0  0.28820  0.94062  0.49052  1.0000
  C   C51       1.0  0.94062  0.28820  0.99052  1.0000
  C   C52       1.0  0.71180  0.05938  0.50948  1.0000
  N   N1        1.0  0.58406  0.62983  0.75274  1.0000
  N   N2        1.0  0.37018  0.41594  0.74725  1.0000
  N   N3        1.0  0.41595  0.37018  0.24725  1.0000
  N   N4        1.0  0.62982  0.58406  0.25275  1.0000
  N   N5        1.0  0.79295  0.78508  0.98092  1.0000
  N   N6        1.0  0.21493  0.20706  0.51907  1.0000
  N   N7        1.0  0.20705  0.21492  0.01908  1.0000
  N   N8        1.0  0.78507  0.79295  0.48093  1.0000
  N   N9        1.0  0.75306  0.39858  0.58429  1.0000
  N   N10       1.0  0.60142  0.24693  0.91570  1.0000
  N   N11       1.0  0.24694  0.60142  0.41571  1.0000
  N   N12       1.0  0.39858  0.75306  0.08429  1.0000
  O   O1        1.0  0.62623  0.39968  0.58149  1.0000
  O   O2        1.0  0.60032  0.37375  0.91851  1.0000
  O   O3        1.0  0.37376  0.60033  0.41852  1.0000
  O   O4        1.0  0.39967  0.62623  0.08148  1.0000
  O   O5        1.0  0.78910  0.41108  0.67775  1.0000
  O   O6        1.0  0.58891  0.21089  0.82224  1.0000
  O   O7        1.0  0.21090  0.58892  0.32225  1.0000
  O   O8        1.0  0.41108  0.78910  0.17775  1.0000
  O   O9        1.0  0.61458  0.16719  0.99864  1.0000
  O   O10       1.0  0.83280  0.38543  0.50135  1.0000
  O   O11       1.0  0.38543  0.83280  0.00135  1.0000
  O   O12       1.0  0.16720  0.61456  0.49866  1.0000
