data_image0
_chemical_formula_structural       Tl2H8C14N6O2
_chemical_formula_sum              "Tl2 H8 C14 N6 O2"
_cell_length_a       3.97714
_cell_length_b       9.24815
_cell_length_c       12.042
_cell_angle_alpha    69.1347
_cell_angle_beta     87.7759
_cell_angle_gamma    81.0519

_space_group_name_H-M_alt    "P 1"
_space_group_IT_number       1

loop_
  _space_group_symop_operation_xyz
  'x, y, z'

loop_
  _atom_site_type_symbol
  _atom_site_label
  _atom_site_symmetry_multiplicity
  _atom_site_fract_x
  _atom_site_fract_y
  _atom_site_fract_z
  _atom_site_occupancy
  Tl  Tl1       1.0  0.16716  0.93804  0.35954  1.0000
  Tl  Tl2       1.0  0.83285  0.06196  0.64047  1.0000
  H   H1        1.0  0.24644  0.56936  0.05574  1.0000
  H   H2        1.0  0.75357  0.43063  0.94427  1.0000
  H   H3        1.0  0.94874  0.84016  0.96242  1.0000
  H   H4        1.0  0.05129  0.15983  0.03758  1.0000
  H   H5        1.0  0.59996  0.96920  0.09175  1.0000
  H   H6        1.0  0.40007  0.03081  0.90824  1.0000
  H   H7        1.0  0.81626  0.56966  0.39117  1.0000
  H   H8        1.0  0.18372  0.43035  0.60883  1.0000
  C   C1        1.0  0.23183  0.38644  0.29199  1.0000
  C   C2        1.0  0.76816  0.61356  0.70801  1.0000
  C   C3        1.0  0.43942  0.30614  0.22666  1.0000
  C   C4        1.0  0.56055  0.69385  0.77335  1.0000
  C   C5        1.0  0.05836  0.54602  0.23226  1.0000
  C   C6        1.0  0.94163  0.45398  0.76774  1.0000
  C   C7        1.0  0.08956  0.62547  0.10978  1.0000
  C   C8        1.0  0.91044  0.37453  0.89022  1.0000
  C   C9        1.0  0.92289  0.77811  0.05720  1.0000
  C   C10       1.0  0.07714  0.22190  0.94281  1.0000
  C   C11       1.0  0.72843  0.84843  0.12805  1.0000
  C   C12       1.0  0.27158  0.15157  0.87195  1.0000
  C   C13       1.0  0.85066  0.62643  0.29594  1.0000
  C   C14       1.0  0.14934  0.37358  0.70406  1.0000
  N   N1        1.0  0.19181  0.31400  0.40781  1.0000
  N   N2        1.0  0.80818  0.68601  0.59219  1.0000
  N   N3        1.0  0.61712  0.23405  0.17866  1.0000
  N   N4        1.0  0.38287  0.76594  0.82134  1.0000
  N   N5        1.0  0.69208  0.77336  0.24534  1.0000
  N   N6        1.0  0.30791  0.22665  0.75466  1.0000
  O   O1        1.0  0.33766  0.16785  0.45479  1.0000
  O   O2        1.0  0.66232  0.83215  0.54520  1.0000
