data_image0
_chemical_formula_structural       K4H44C56O12
_chemical_formula_sum              "K4 H44 C56 O12"
_cell_length_a       8.99717
_cell_length_b       10.2612
_cell_length_c       14.216
_cell_angle_alpha    112.662
_cell_angle_beta     89.9999
_cell_angle_gamma    89.9999

_space_group_name_H-M_alt    "P 1"
_space_group_IT_number       1

loop_
  _space_group_symop_operation_xyz
  'x, y, z'

loop_
  _atom_site_type_symbol
  _atom_site_label
  _atom_site_symmetry_multiplicity
  _atom_site_fract_x
  _atom_site_fract_y
  _atom_site_fract_z
  _atom_site_occupancy
  K   K1        1.0  0.02839  0.81107  0.02369  1.0000
  K   K2        1.0  0.47161  0.31107  0.02369  1.0000
  K   K3        1.0  0.97161  0.18893  0.97631  1.0000
  K   K4        1.0  0.52839  0.68893  0.97631  1.0000
  H   H1        1.0  0.19573  0.62571  0.86456  1.0000
  H   H2        1.0  0.30427  0.12571  0.86456  1.0000
  H   H3        1.0  0.80427  0.37429  0.13544  1.0000
  H   H4        1.0  0.69573  0.87429  0.13544  1.0000
  H   H5        1.0  0.39372  0.26124  0.74528  1.0000
  H   H6        1.0  0.10628  0.76124  0.74528  1.0000
  H   H7        1.0  0.60628  0.73877  0.25472  1.0000
  H   H8        1.0  0.89371  0.23877  0.25471  1.0000
  H   H9        1.0  0.53440  0.20875  0.58564  1.0000
  H   H10       1.0  0.96559  0.70875  0.58564  1.0000
  H   H11       1.0  0.46560  0.79125  0.41436  1.0000
  H   H12       1.0  0.03440  0.29125  0.41436  1.0000
  H   H13       1.0  0.44943  0.30350  0.45771  1.0000
  H   H14       1.0  0.05057  0.80350  0.45771  1.0000
  H   H15       1.0  0.55057  0.69651  0.54229  1.0000
  H   H16       1.0  0.94943  0.19650  0.54229  1.0000
  H   H17       1.0  0.22212  0.45377  0.49252  1.0000
  H   H18       1.0  0.27788  0.95377  0.49252  1.0000
  H   H19       1.0  0.77788  0.54624  0.50748  1.0000
  H   H20       1.0  0.72212  0.04624  0.50748  1.0000
  H   H21       1.0  0.07852  0.50301  0.65153  1.0000
  H   H22       1.0  0.42148  0.00302  0.65153  1.0000
  H   H23       1.0  0.92148  0.49698  0.34847  1.0000
  H   H24       1.0  0.57852  0.99699  0.34847  1.0000
  H   H25       1.0  0.85830  0.51579  0.88525  1.0000
  H   H26       1.0  0.64170  0.01579  0.88525  1.0000
  H   H27       1.0  0.14170  0.48421  0.11475  1.0000
  H   H28       1.0  0.35830  0.98421  0.11474  1.0000
  H   H29       1.0  0.62532  0.37644  0.85565  1.0000
  H   H30       1.0  0.87468  0.87644  0.85566  1.0000
  H   H31       1.0  0.37468  0.62356  0.14434  1.0000
  H   H32       1.0  0.12532  0.12356  0.14434  1.0000
  H   H33       1.0  0.62733  0.11901  0.74874  1.0000
  H   H34       1.0  0.87267  0.61901  0.74875  1.0000
  H   H35       1.0  0.37267  0.88099  0.25125  1.0000
  H   H36       1.0  0.12733  0.38099  0.25126  1.0000
  H   H37       1.0  0.86543  0.00311  0.66750  1.0000
  H   H38       1.0  0.63457  0.50311  0.66751  1.0000
  H   H39       1.0  0.13457  0.99689  0.33249  1.0000
  H   H40       1.0  0.36543  0.49689  0.33250  1.0000
  H   H41       1.0  0.09537  0.14361  0.69314  1.0000
  H   H42       1.0  0.40463  0.64361  0.69314  1.0000
  H   H43       1.0  0.90463  0.85638  0.30686  1.0000
  H   H44       1.0  0.59537  0.35639  0.30686  1.0000
  C   C1        1.0  0.23603  0.39475  0.89030  1.0000
  C   C2        1.0  0.26397  0.89476  0.89030  1.0000
  C   C3        1.0  0.76397  0.60524  0.10970  1.0000
  C   C4        1.0  0.73603  0.10524  0.10970  1.0000
  C   C5        1.0  0.13739  0.42369  0.80890  1.0000
  C   C6        1.0  0.36261  0.92369  0.80890  1.0000
  C   C7        1.0  0.86261  0.57631  0.19110  1.0000
  C   C8        1.0  0.63739  0.07631  0.19110  1.0000
  C   C9        1.0  0.22609  0.38614  0.70981  1.0000
  C   C10       1.0  0.27391  0.88614  0.70981  1.0000
  C   C11       1.0  0.77391  0.61386  0.29019  1.0000
  C   C12       1.0  0.72609  0.11386  0.29019  1.0000
  C   C13       1.0  0.35438  0.30285  0.68984  1.0000
  C   C14       1.0  0.14562  0.80285  0.68984  1.0000
  C   C15       1.0  0.64563  0.69715  0.31016  1.0000
  C   C16       1.0  0.85437  0.19715  0.31016  1.0000
  C   C17       1.0  0.43364  0.27236  0.59936  1.0000
  C   C18       1.0  0.06637  0.77236  0.59936  1.0000
  C   C19       1.0  0.56636  0.72765  0.40064  1.0000
  C   C20       1.0  0.93364  0.22764  0.40064  1.0000
  C   C21       1.0  0.38654  0.32579  0.52774  1.0000
  C   C22       1.0  0.11346  0.82579  0.52774  1.0000
  C   C23       1.0  0.61346  0.67421  0.47226  1.0000
  C   C24       1.0  0.88654  0.17421  0.47226  1.0000
  C   C25       1.0  0.25840  0.40925  0.54710  1.0000
  C   C26       1.0  0.24160  0.90925  0.54710  1.0000
  C   C27       1.0  0.74160  0.59075  0.45290  1.0000
  C   C28       1.0  0.75840  0.09075  0.45290  1.0000
  C   C29       1.0  0.17814  0.43776  0.63682  1.0000
  C   C30       1.0  0.32186  0.93776  0.63681  1.0000
  C   C31       1.0  0.82186  0.56225  0.36319  1.0000
  C   C32       1.0  0.67814  0.06225  0.36318  1.0000
  C   C33       1.0  0.99268  0.34051  0.78999  1.0000
  C   C34       1.0  0.50732  0.84051  0.78999  1.0000
  C   C35       1.0  0.00732  0.65949  0.21001  1.0000
  C   C36       1.0  0.49268  0.15949  0.21001  1.0000
  C   C37       1.0  0.85949  0.40407  0.83618  1.0000
  C   C38       1.0  0.64051  0.90408  0.83618  1.0000
  C   C39       1.0  0.14051  0.59592  0.16382  1.0000
  C   C40       1.0  0.35949  0.09592  0.16382  1.0000
  C   C41       1.0  0.72849  0.32483  0.82017  1.0000
  C   C42       1.0  0.77151  0.82484  0.82017  1.0000
  C   C43       1.0  0.27151  0.67516  0.17983  1.0000
  C   C44       1.0  0.22849  0.17517  0.17983  1.0000
  C   C45       1.0  0.72916  0.18064  0.75942  1.0000
  C   C46       1.0  0.77084  0.68064  0.75942  1.0000
  C   C47       1.0  0.27084  0.81936  0.24058  1.0000
  C   C48       1.0  0.22916  0.31936  0.24058  1.0000
  C   C49       1.0  0.86232  0.11587  0.71421  1.0000
  C   C50       1.0  0.63768  0.61587  0.71421  1.0000
  C   C51       1.0  0.13768  0.88413  0.28579  1.0000
  C   C52       1.0  0.36232  0.38413  0.28579  1.0000
  C   C53       1.0  0.99247  0.19539  0.72881  1.0000
  C   C54       1.0  0.50753  0.69539  0.72881  1.0000
  C   C55       1.0  0.00753  0.80461  0.27119  1.0000
  C   C56       1.0  0.49247  0.30461  0.27119  1.0000
  O   O1        1.0  0.10137  0.57154  0.84913  1.0000
  O   O2        1.0  0.39863  0.07154  0.84912  1.0000
  O   O3        1.0  0.89863  0.42846  0.15088  1.0000
  O   O4        1.0  0.60137  0.92846  0.15088  1.0000
  O   O5        1.0  0.20327  0.29151  0.91508  1.0000
  O   O6        1.0  0.29672  0.79151  0.91508  1.0000
  O   O7        1.0  0.79672  0.70849  0.08492  1.0000
  O   O8        1.0  0.70327  0.20849  0.08492  1.0000
  O   O9        1.0  0.34371  0.47795  0.92581  1.0000
  O   O10       1.0  0.15629  0.97794  0.92581  1.0000
  O   O11       1.0  0.65629  0.52205  0.07419  1.0000
  O   O12       1.0  0.84371  0.02206  0.07419  1.0000
