data_image0
_chemical_formula_structural       K4H24C36Cl16O12
_chemical_formula_sum              "K4 H24 C36 Cl16 O12"
_cell_length_a       7.48006
_cell_length_b       10.4436
_cell_length_c       16.8647
_cell_angle_alpha    90
_cell_angle_beta     90
_cell_angle_gamma    103.668

_space_group_name_H-M_alt    "P 1"
_space_group_IT_number       1

loop_
  _space_group_symop_operation_xyz
  'x, y, z'

loop_
  _atom_site_type_symbol
  _atom_site_label
  _atom_site_symmetry_multiplicity
  _atom_site_fract_x
  _atom_site_fract_y
  _atom_site_fract_z
  _atom_site_occupancy
  K   K1        1.0  0.56580  0.19108  0.76528  1.0000
  K   K2        1.0  0.93421  0.80892  0.26528  1.0000
  K   K3        1.0  0.43421  0.80891  0.23472  1.0000
  K   K4        1.0  0.06580  0.19109  0.73472  1.0000
  H   H1        1.0  0.79071  0.65368  0.68368  1.0000
  H   H2        1.0  0.70928  0.34632  0.18368  1.0000
  H   H3        1.0  0.20928  0.34632  0.31633  1.0000
  H   H4        1.0  0.29071  0.65368  0.81633  1.0000
  H   H5        1.0  0.76781  0.58256  0.58908  1.0000
  H   H6        1.0  0.73219  0.41744  0.08908  1.0000
  H   H7        1.0  0.23219  0.41744  0.41092  1.0000
  H   H8        1.0  0.26781  0.58255  0.91092  1.0000
  H   H9        1.0  0.62514  0.50122  0.66905  1.0000
  H   H10       1.0  0.87486  0.49878  0.16905  1.0000
  H   H11       1.0  0.37485  0.49878  0.33095  1.0000
  H   H12       1.0  0.12514  0.50121  0.83095  1.0000
  H   H13       1.0  0.14726  0.63985  0.64968  1.0000
  H   H14       1.0  0.35274  0.36015  0.14968  1.0000
  H   H15       1.0  0.85274  0.36015  0.35032  1.0000
  H   H16       1.0  0.64726  0.63985  0.85032  1.0000
  H   H17       1.0  0.08288  0.52586  0.57324  1.0000
  H   H18       1.0  0.41711  0.47414  0.07324  1.0000
  H   H19       1.0  0.91711  0.47414  0.42676  1.0000
  H   H20       1.0  0.58289  0.52586  0.92676  1.0000
  H   H21       1.0  0.19168  0.47887  0.66013  1.0000
  H   H22       1.0  0.30832  0.52113  0.16013  1.0000
  H   H23       1.0  0.80832  0.52112  0.33987  1.0000
  H   H24       1.0  0.69168  0.47887  0.83987  1.0000
  C   C1        1.0  0.78178  0.96787  0.08578  1.0000
  C   C2        1.0  0.71822  0.03213  0.58578  1.0000
  C   C3        1.0  0.21823  0.03213  0.91421  1.0000
  C   C4        1.0  0.28177  0.96787  0.41421  1.0000
  C   C5        1.0  0.68368  0.90855  0.01490  1.0000
  C   C6        1.0  0.81632  0.09145  0.51490  1.0000
  C   C7        1.0  0.31631  0.09144  0.98510  1.0000
  C   C8        1.0  0.18369  0.90856  0.48510  1.0000
  C   C9        1.0  0.70714  0.96987  0.94229  1.0000
  C   C10       1.0  0.79286  0.03013  0.44230  1.0000
  C   C11       1.0  0.29285  0.03011  0.05770  1.0000
  C   C12       1.0  0.20715  0.96989  0.55770  1.0000
  C   C13       1.0  0.83103  0.09959  0.93068  1.0000
  C   C14       1.0  0.66898  0.90041  0.43068  1.0000
  C   C15       1.0  0.16898  0.90040  0.06932  1.0000
  C   C16       1.0  0.33103  0.09960  0.56932  1.0000
  C   C17       1.0  0.91937  0.16236  0.00225  1.0000
  C   C18       1.0  0.58063  0.83764  0.50225  1.0000
  C   C19       1.0  0.08063  0.83764  0.99775  1.0000
  C   C20       1.0  0.41937  0.16236  0.49775  1.0000
  C   C21       1.0  0.89688  0.10009  0.07502  1.0000
  C   C22       1.0  0.60312  0.89991  0.57502  1.0000
  C   C23       1.0  0.10311  0.89991  0.92498  1.0000
  C   C24       1.0  0.39688  0.10009  0.42497  1.0000
  C   C25       1.0  0.90730  0.48684  0.67490  1.0000
  C   C26       1.0  0.59270  0.51316  0.17490  1.0000
  C   C27       1.0  0.09270  0.51316  0.32511  1.0000
  C   C28       1.0  0.40730  0.48683  0.82510  1.0000
  C   C29       1.0  0.76242  0.55824  0.65251  1.0000
  C   C30       1.0  0.73758  0.44176  0.15251  1.0000
  C   C31       1.0  0.23757  0.44176  0.34749  1.0000
  C   C32       1.0  0.26242  0.55824  0.84749  1.0000
  C   C33       1.0  0.09417  0.53400  0.63814  1.0000
  C   C34       1.0  0.40583  0.46600  0.13814  1.0000
  C   C35       1.0  0.90582  0.46600  0.36186  1.0000
  C   C36       1.0  0.59418  0.53400  0.86186  1.0000
  Cl  Cl1       1.0  0.52818  0.76040  0.02842  1.0000
  Cl  Cl2       1.0  0.97183  0.23959  0.52841  1.0000
  Cl  Cl3       1.0  0.47183  0.23959  0.97158  1.0000
  Cl  Cl4       1.0  0.02817  0.76041  0.47158  1.0000
  Cl  Cl5       1.0  0.58474  0.90229  0.86034  1.0000
  Cl  Cl6       1.0  0.91526  0.09771  0.36034  1.0000
  Cl  Cl7       1.0  0.41526  0.09770  0.13966  1.0000
  Cl  Cl8       1.0  0.08474  0.90230  0.63966  1.0000
  Cl  Cl9       1.0  0.03804  0.32363  0.99230  1.0000
  Cl  Cl10      1.0  0.46196  0.67637  0.49230  1.0000
  Cl  Cl11      1.0  0.96196  0.67636  0.00770  1.0000
  Cl  Cl12      1.0  0.53803  0.32364  0.50770  1.0000
  Cl  Cl13      1.0  0.98961  0.17936  0.16006  1.0000
  Cl  Cl14      1.0  0.51040  0.82063  0.66006  1.0000
  Cl  Cl15      1.0  0.01039  0.82063  0.83993  1.0000
  Cl  Cl16      1.0  0.48960  0.17937  0.33993  1.0000
  O   O1        1.0  0.75841  0.91138  0.15235  1.0000
  O   O2        1.0  0.74159  0.08862  0.65235  1.0000
  O   O3        1.0  0.24158  0.08861  0.84765  1.0000
  O   O4        1.0  0.25842  0.91140  0.34765  1.0000
  O   O5        1.0  0.85016  0.15634  0.86413  1.0000
  O   O6        1.0  0.64984  0.84366  0.36414  1.0000
  O   O7        1.0  0.14984  0.84366  0.13586  1.0000
  O   O8        1.0  0.35017  0.15634  0.63586  1.0000
  O   O9        1.0  0.87496  0.39462  0.72287  1.0000
  O   O10       1.0  0.62504  0.60538  0.22287  1.0000
  O   O11       1.0  0.12504  0.60539  0.27714  1.0000
  O   O12       1.0  0.37496  0.39462  0.77713  1.0000
