data_image0
_chemical_formula_structural       K2H18C12O16
_chemical_formula_sum              "K2 H18 C12 O16"
_cell_length_a       4.75943
_cell_length_b       8.83735
_cell_length_c       10.9804
_cell_angle_alpha    89.9998
_cell_angle_beta     90.001
_cell_angle_gamma    91.5597

_space_group_name_H-M_alt    "P 1"
_space_group_IT_number       1

loop_
  _space_group_symop_operation_xyz
  'x, y, z'

loop_
  _atom_site_type_symbol
  _atom_site_label
  _atom_site_symmetry_multiplicity
  _atom_site_fract_x
  _atom_site_fract_y
  _atom_site_fract_z
  _atom_site_occupancy
  K   K1        1.0  0.65273  0.35088  0.83792  1.0000
  K   K2        1.0  0.34731  0.64912  0.33793  1.0000
  H   H1        1.0  0.92446  0.86646  0.51861  1.0000
  H   H2        1.0  0.07554  0.13354  0.01862  1.0000
  H   H3        1.0  0.17168  0.95574  0.65733  1.0000
  H   H4        1.0  0.82831  0.04425  0.15734  1.0000
  H   H5        1.0  0.57701  0.91216  0.75110  1.0000
  H   H6        1.0  0.42299  0.08784  0.25110  1.0000
  H   H7        1.0  0.77301  0.98887  0.95466  1.0000
  H   H8        1.0  0.22699  0.01112  0.45466  1.0000
  H   H9        1.0  0.53729  0.73969  0.12227  1.0000
  H   H10       1.0  0.46271  0.26032  0.62227  1.0000
  H   H11       1.0  0.18338  0.65076  0.74631  1.0000
  H   H12       1.0  0.81662  0.34923  0.24631  1.0000
  H   H13       1.0  0.75437  0.72006  0.86156  1.0000
  H   H14       1.0  0.24562  0.27993  0.36156  1.0000
  H   H15       1.0  0.28024  0.92024  0.90209  1.0000
  H   H16       1.0  0.71976  0.07977  0.40209  1.0000
  H   H17       1.0  0.31024  0.65290  0.96472  1.0000
  H   H18       1.0  0.68976  0.34710  0.46472  1.0000
  C   C1        1.0  0.84498  0.69368  0.62860  1.0000
  C   C2        1.0  0.15503  0.30632  0.12859  1.0000
  C   C3        1.0  0.06524  0.75152  0.72136  1.0000
  C   C4        1.0  0.93476  0.24848  0.22136  1.0000
  C   C5        1.0  0.90057  0.81050  0.83084  1.0000
  C   C6        1.0  0.09942  0.18950  0.33084  1.0000
  C   C7        1.0  0.09148  0.85990  0.93708  1.0000
  C   C8        1.0  0.90852  0.14009  0.43708  1.0000
  C   C9        1.0  0.19144  0.73271  0.02042  1.0000
  C   C10       1.0  0.80855  0.26728  0.52042  1.0000
  C   C11       1.0  0.93642  0.64175  0.07323  1.0000
  C   C12       1.0  0.06358  0.35825  0.57323  1.0000
  O   O1        1.0  0.68991  0.58665  0.65649  1.0000
  O   O2        1.0  0.31010  0.41335  0.15650  1.0000
  O   O3        1.0  0.82166  0.76363  0.52090  1.0000
  O   O4        1.0  0.17833  0.23636  0.02090  1.0000
  O   O5        1.0  0.26621  0.86082  0.67734  1.0000
  O   O6        1.0  0.73379  0.13918  0.17734  1.0000
  O   O7        1.0  0.75160  0.94331  0.79568  1.0000
  O   O8        1.0  0.24840  0.05669  0.29569  1.0000
  O   O9        1.0  0.93596  0.96812  0.00780  1.0000
  O   O10       1.0  0.06403  0.03188  0.50780  1.0000
  O   O11       1.0  0.37031  0.80220  0.10925  1.0000
  O   O12       1.0  0.62970  0.19780  0.60924  1.0000
  O   O13       1.0  0.85728  0.66906  0.18188  1.0000
  O   O14       1.0  0.14273  0.33096  0.68186  1.0000
  O   O15       1.0  0.81738  0.55131  0.99905  1.0000
  O   O16       1.0  0.18263  0.44870  0.49903  1.0000
