data_image0
_chemical_formula_structural       Tl4H16C28N12O4
_chemical_formula_sum              "Tl4 H16 C28 N12 O4"
_cell_length_a       4.15201
_cell_length_b       12.0014
_cell_length_c       17.0105
_cell_angle_alpha    89.9996
_cell_angle_beta     94.9091
_cell_angle_gamma    90.0002

_space_group_name_H-M_alt    "P 1"
_space_group_IT_number       1

loop_
  _space_group_symop_operation_xyz
  'x, y, z'

loop_
  _atom_site_type_symbol
  _atom_site_label
  _atom_site_symmetry_multiplicity
  _atom_site_fract_x
  _atom_site_fract_y
  _atom_site_fract_z
  _atom_site_occupancy
  Tl  Tl1       1.0  0.39961  0.53519  0.61186  1.0000
  Tl  Tl2       1.0  0.10038  0.03518  0.88814  1.0000
  Tl  Tl3       1.0  0.60038  0.46481  0.38814  1.0000
  Tl  Tl4       1.0  0.89962  0.96482  0.11186  1.0000
  H   H1        1.0  0.53752  0.04681  0.57709  1.0000
  H   H2        1.0  0.96247  0.54681  0.92291  1.0000
  H   H3        1.0  0.46247  0.95319  0.42291  1.0000
  H   H4        1.0  0.03752  0.45319  0.07709  1.0000
  H   H5        1.0  0.33726  0.97954  0.69983  1.0000
  H   H6        1.0  0.16273  0.47954  0.80017  1.0000
  H   H7        1.0  0.66273  0.02046  0.30017  1.0000
  H   H8        1.0  0.83726  0.52046  0.19983  1.0000
  H   H9        1.0  0.65366  0.26453  0.82243  1.0000
  H   H10       1.0  0.84634  0.76453  0.67757  1.0000
  H   H11       1.0  0.34632  0.73547  0.17757  1.0000
  H   H12       1.0  0.15367  0.23547  0.32243  1.0000
  H   H13       1.0  0.87653  0.34383  0.70318  1.0000
  H   H14       1.0  0.62347  0.84384  0.79683  1.0000
  H   H15       1.0  0.12347  0.65616  0.29682  1.0000
  H   H16       1.0  0.37653  0.15616  0.20317  1.0000
  C   C1        1.0  0.84188  0.24544  0.55610  1.0000
  C   C2        1.0  0.65813  0.74545  0.94390  1.0000
  C   C3        1.0  0.15812  0.75455  0.44390  1.0000
  C   C4        1.0  0.34189  0.25456  0.05610  1.0000
  C   C5        1.0  0.77047  0.18895  0.48299  1.0000
  C   C6        1.0  0.72953  0.68894  0.01701  1.0000
  C   C7        1.0  0.22953  0.81106  0.51701  1.0000
  C   C8        1.0  0.27048  0.31106  0.98299  1.0000
  C   C9        1.0  0.72400  0.20289  0.62858  1.0000
  C   C10       1.0  0.77601  0.70289  0.87142  1.0000
  C   C11       1.0  0.27601  0.79711  0.37142  1.0000
  C   C12       1.0  0.22400  0.29711  0.12858  1.0000
  C   C13       1.0  0.56990  0.09874  0.62966  1.0000
  C   C14       1.0  0.93009  0.59874  0.87034  1.0000
  C   C15       1.0  0.43010  0.90126  0.37034  1.0000
  C   C16       1.0  0.06990  0.40126  0.12966  1.0000
  C   C17       1.0  0.45745  0.06049  0.69937  1.0000
  C   C18       1.0  0.04254  0.56050  0.80063  1.0000
  C   C19       1.0  0.54254  0.93951  0.30063  1.0000
  C   C20       1.0  0.95746  0.43951  0.19937  1.0000
  C   C21       1.0  0.63409  0.21874  0.76667  1.0000
  C   C22       1.0  0.86591  0.71875  0.73333  1.0000
  C   C23       1.0  0.36590  0.78126  0.23333  1.0000
  C   C24       1.0  0.13410  0.28126  0.26667  1.0000
  C   C25       1.0  0.75583  0.26324  0.69995  1.0000
  C   C26       1.0  0.74417  0.76324  0.80005  1.0000
  C   C27       1.0  0.24416  0.73676  0.30005  1.0000
  C   C28       1.0  0.25584  0.23676  0.19995  1.0000
  N   N1        1.0  0.01801  0.33811  0.55699  1.0000
  N   N2        1.0  0.48198  0.83811  0.94301  1.0000
  N   N3        1.0  0.98199  0.66188  0.44301  1.0000
  N   N4        1.0  0.51802  0.16189  0.05698  1.0000
  N   N5        1.0  0.72002  0.14711  0.42100  1.0000
  N   N6        1.0  0.77997  0.64711  0.07900  1.0000
  N   N7        1.0  0.27998  0.85289  0.57900  1.0000
  N   N8        1.0  0.22003  0.35290  0.92100  1.0000
  N   N9        1.0  0.48708  0.11839  0.76734  1.0000
  N   N10       1.0  0.01292  0.61840  0.73266  1.0000
  N   N11       1.0  0.51291  0.88160  0.23266  1.0000
  N   N12       1.0  0.98709  0.38160  0.26734  1.0000
  O   O1        1.0  0.11295  0.37349  0.49018  1.0000
  O   O2        1.0  0.38704  0.87349  0.00983  1.0000
  O   O3        1.0  0.88705  0.62650  0.50982  1.0000
  O   O4        1.0  0.61296  0.12651  0.99017  1.0000
