data_image0
_chemical_formula_structural       Co4H24C40N4O16
_chemical_formula_sum              "Co4 H24 C40 N4 O16"
_cell_length_a       9.56308
_cell_length_b       10.7736
_cell_length_c       11.3153
_cell_angle_alpha    64.3203
_cell_angle_beta     85.5774
_cell_angle_gamma    66.4646

_space_group_name_H-M_alt    "P 1"
_space_group_IT_number       1

loop_
  _space_group_symop_operation_xyz
  'x, y, z'

loop_
  _atom_site_type_symbol
  _atom_site_label
  _atom_site_symmetry_multiplicity
  _atom_site_fract_x
  _atom_site_fract_y
  _atom_site_fract_z
  _atom_site_occupancy
  Co  Co1       1.0  0.50421  0.33472  0.04914  1.0000
  Co  Co2       1.0  0.49842  0.66546  0.95155  1.0000
  Co  Co3       1.0  0.17695  0.70298  0.82535  1.0000
  Co  Co4       1.0  0.82066  0.29696  0.17426  1.0000
  H   H1        1.0  0.32136  0.09596  0.95275  1.0000
  H   H2        1.0  0.67933  0.90304  0.04862  1.0000
  H   H3        1.0  0.90776  0.11708  0.80162  1.0000
  H   H4        1.0  0.09272  0.88277  0.19937  1.0000
  H   H5        1.0  0.90817  0.50587  0.82471  1.0000
  H   H6        1.0  0.09310  0.49405  0.17543  1.0000
  H   H7        1.0  0.89871  0.37338  0.56436  1.0000
  H   H8        1.0  0.10221  0.62627  0.43589  1.0000
  H   H9        1.0  0.79765  0.52807  0.32839  1.0000
  H   H10       1.0  0.20346  0.47083  0.67178  1.0000
  H   H11       1.0  0.53333  0.73404  0.25965  1.0000
  H   H12       1.0  0.46774  0.26473  0.74011  1.0000
  H   H13       1.0  0.37680  0.78913  0.43228  1.0000
  H   H14       1.0  0.62362  0.20974  0.56714  1.0000
  H   H15       1.0  0.08296  0.79792  0.53518  1.0000
  H   H16       1.0  0.91555  0.20299  0.46459  1.0000
  H   H17       1.0  0.83252  0.89367  0.39891  1.0000
  H   H18       1.0  0.16633  0.10394  0.60176  1.0000
  H   H19       1.0  0.59849  0.93925  0.72910  1.0000
  H   H20       1.0  0.39965  0.06209  0.27013  1.0000
  H   H21       1.0  0.85543  0.84884  0.84852  1.0000
  H   H22       1.0  0.14237  0.15619  0.14972  1.0000
  H   H23       1.0  0.69252  0.43247  0.93075  1.0000
  H   H24       1.0  0.30580  0.57129  0.06460  1.0000
  C   C1        1.0  0.20242  0.38589  0.92722  1.0000
  C   C2        1.0  0.79866  0.61400  0.07308  1.0000
  C   C3        1.0  0.12276  0.30773  0.89488  1.0000
  C   C4        1.0  0.87831  0.69185  0.10585  1.0000
  C   C5        1.0  0.20062  0.15865  0.91300  1.0000
  C   C6        1.0  0.80017  0.84078  0.08807  1.0000
  C   C7        1.0  0.12379  0.09059  0.87812  1.0000
  C   C8        1.0  0.87674  0.90894  0.12304  1.0000
  C   C9        1.0  0.20739  0.93385  0.89098  1.0000
  C   C10       1.0  0.79290  0.06501  0.11121  1.0000
  C   C11       1.0  0.96829  0.17077  0.82671  1.0000
  C   C12       1.0  0.03241  0.82903  0.17407  1.0000
  C   C13       1.0  0.89387  0.31921  0.80801  1.0000
  C   C14       1.0  0.10706  0.68087  0.19225  1.0000
  C   C15       1.0  0.96869  0.38924  0.84054  1.0000
  C   C16       1.0  0.03245  0.61063  0.15975  1.0000
  C   C17       1.0  0.69432  0.49431  0.63002  1.0000
  C   C18       1.0  0.30627  0.50537  0.36988  1.0000
  C   C19       1.0  0.78482  0.46530  0.53475  1.0000
  C   C20       1.0  0.21595  0.53416  0.46535  1.0000
  C   C21       1.0  0.72684  0.55317  0.40173  1.0000
  C   C22       1.0  0.27406  0.44583  0.59831  1.0000
  C   C23       1.0  0.57918  0.66813  0.36366  1.0000
  C   C24       1.0  0.42170  0.33086  0.63617  1.0000
  C   C25       1.0  0.49126  0.69812  0.45991  1.0000
  C   C26       1.0  0.50928  0.30087  0.53977  1.0000
  C   C27       1.0  0.54918  0.61529  0.59369  1.0000
  C   C28       1.0  0.45102  0.38389  0.40604  1.0000
  C   C29       1.0  0.46380  0.65984  0.69512  1.0000
  C   C30       1.0  0.53583  0.33915  0.30472  1.0000
  C   C31       1.0  0.97256  0.83161  0.57306  1.0000
  C   C32       1.0  0.02587  0.16931  0.42659  1.0000
  C   C33       1.0  0.83471  0.88346  0.49891  1.0000
  C   C34       1.0  0.16390  0.11549  0.50133  1.0000
  C   C35       1.0  0.69619  0.92434  0.55355  1.0000
  C   C36       1.0  0.30238  0.07505  0.44644  1.0000
  C   C37       1.0  0.70318  0.91068  0.68286  1.0000
  C   C38       1.0  0.29506  0.09053  0.31654  1.0000
  C   C39       1.0  0.84529  0.85957  0.74891  1.0000
  C   C40       1.0  0.15276  0.14382  0.24986  1.0000
  N   N1        1.0  0.97920  0.81924  0.69666  1.0000
  N   N2        1.0  0.01891  0.18432  0.30214  1.0000
  N   N3        1.0  0.56041  0.97717  0.47379  1.0000
  N   N4        1.0  0.43822  0.02169  0.52620  1.0000
  O   O1        1.0  0.12426  0.52615  0.89301  1.0000
  O   O2        1.0  0.87637  0.47398  0.10619  1.0000
  O   O3        1.0  0.34003  0.30717  0.98248  1.0000
  O   O4        1.0  0.66093  0.69356  0.01813  1.0000
  O   O5        1.0  0.12568  0.87759  0.86416  1.0000
  O   O6        1.0  0.87397  0.12016  0.14061  1.0000
  O   O7        1.0  0.35152  0.87101  0.92388  1.0000
  O   O8        1.0  0.64887  0.12902  0.07717  1.0000
  O   O9        1.0  0.73732  0.39910  0.76390  1.0000
  O   O10       1.0  0.26360  0.60108  0.23620  1.0000
  O   O11       1.0  0.53970  0.67391  0.77222  1.0000
  O   O12       1.0  0.45958  0.32654  0.22655  1.0000
  O   O13       1.0  0.32118  0.68429  0.69414  1.0000
  O   O14       1.0  0.67912  0.31237  0.30623  1.0000
  O   O15       1.0  0.64827  0.43114  0.01199  1.0000
  O   O16       1.0  0.35315  0.57162  0.98476  1.0000
