data_image0
_chemical_formula_structural       Cu2H26C22N10O8
_chemical_formula_sum              "Cu2 H26 C22 N10 O8"
_cell_length_a       7.86168
_cell_length_b       8.54727
_cell_length_c       11.2289
_cell_angle_alpha    69.4316
_cell_angle_beta     77.3851
_cell_angle_gamma    66.1996

_space_group_name_H-M_alt    "P 1"
_space_group_IT_number       1

loop_
  _space_group_symop_operation_xyz
  'x, y, z'

loop_
  _atom_site_type_symbol
  _atom_site_label
  _atom_site_symmetry_multiplicity
  _atom_site_fract_x
  _atom_site_fract_y
  _atom_site_fract_z
  _atom_site_occupancy
  Cu  Cu1       1.0  0.50360  0.86029  0.60074  1.0000
  Cu  Cu2       1.0  0.49640  0.13971  0.39925  1.0000
  H   H1        1.0  0.89862  0.09457  0.11109  1.0000
  H   H2        1.0  0.10138  0.90542  0.88892  1.0000
  H   H3        1.0  0.94418  0.63663  0.91126  1.0000
  H   H4        1.0  0.05582  0.36336  0.08875  1.0000
  H   H5        1.0  0.77863  0.75145  0.79537  1.0000
  H   H6        1.0  0.22136  0.24855  0.20464  1.0000
  H   H7        1.0  0.30381  0.58205  0.69050  1.0000
  H   H8        1.0  0.69620  0.41795  0.30950  1.0000
  H   H9        1.0  0.42636  0.11409  0.93988  1.0000
  H   H10       1.0  0.57364  0.88591  0.06013  1.0000
  H   H11       1.0  0.38635  0.18716  0.77685  1.0000
  H   H12       1.0  0.61365  0.81283  0.22315  1.0000
  H   H13       1.0  0.21526  0.29053  0.88800  1.0000
  H   H14       1.0  0.78473  0.70947  0.11200  1.0000
  H   H15       1.0  0.99752  0.55667  0.37289  1.0000
  H   H16       1.0  0.00248  0.44335  0.62709  1.0000
  H   H17       1.0  0.99527  0.74837  0.23920  1.0000
  H   H18       1.0  0.00473  0.25164  0.76079  1.0000
  H   H19       1.0  0.26949  0.61087  0.38134  1.0000
  H   H20       1.0  0.73051  0.38914  0.61865  1.0000
  H   H21       1.0  0.10752  0.68422  0.50264  1.0000
  H   H22       1.0  0.89249  0.31577  0.49735  1.0000
  H   H23       1.0  0.01251  0.00416  0.35218  1.0000
  H   H24       1.0  0.98749  0.99584  0.64782  1.0000
  H   H25       1.0  0.18842  0.92805  0.23732  1.0000
  H   H26       1.0  0.81158  0.07196  0.76268  1.0000
  C   C1        1.0  0.82365  0.20691  0.03460  1.0000
  C   C2        1.0  0.17634  0.79309  0.96540  1.0000
  C   C3        1.0  0.60313  0.33243  0.90123  1.0000
  C   C4        1.0  0.39687  0.66757  0.09878  1.0000
  C   C5        1.0  0.64096  0.49186  0.85051  1.0000
  C   C6        1.0  0.35904  0.50813  0.14949  1.0000
  C   C7        1.0  0.78733  0.49819  0.90214  1.0000
  C   C8        1.0  0.21266  0.50181  0.09787  1.0000
  C   C9        1.0  0.41300  0.52672  0.75433  1.0000
  C   C10       1.0  0.58701  0.47327  0.24567  1.0000
  C   C11       1.0  0.36488  0.23126  0.86119  1.0000
  C   C12       1.0  0.63512  0.76874  0.13882  1.0000
  C   C13       1.0  0.79452  0.80661  0.39592  1.0000
  C   C14       1.0  0.20548  0.19339  0.60408  1.0000
  C   C15       1.0  0.98298  0.69770  0.34381  1.0000
  C   C16       1.0  0.01701  0.30231  0.65618  1.0000
  C   C17       1.0  0.13586  0.71420  0.39833  1.0000
  C   C18       1.0  0.86414  0.28580  0.60166  1.0000
  C   C19       1.0  0.14932  0.89929  0.34092  1.0000
  C   C20       1.0  0.85068  0.10071  0.65909  1.0000
  C   C21       1.0  0.28480  0.92896  0.40021  1.0000
  C   C22       1.0  0.71521  0.07103  0.59980  1.0000
  N   N1        1.0  0.87487  0.35083  0.99638  1.0000
  N   N2        1.0  0.12512  0.64917  0.00363  1.0000
  N   N3        1.0  0.69106  0.18517  0.99191  1.0000
  N   N4        1.0  0.30894  0.81482  0.00810  1.0000
  N   N5        1.0  0.84517  0.63713  0.86361  1.0000
  N   N6        1.0  0.15482  0.36286  0.13640  1.0000
  N   N7        1.0  0.51996  0.61168  0.75788  1.0000
  N   N8        1.0  0.48004  0.38831  0.24213  1.0000
  N   N9        1.0  0.45664  0.35817  0.83859  1.0000
  N   N10       1.0  0.54336  0.64183  0.16141  1.0000
  O   O1        1.0  0.72826  0.72839  0.50377  1.0000
  O   O2        1.0  0.27175  0.27163  0.49623  1.0000
  O   O3        1.0  0.72355  0.97012  0.33087  1.0000
  O   O4        1.0  0.27644  0.02988  0.66911  1.0000
  O   O5        1.0  0.33588  0.82448  0.50896  1.0000
  O   O6        1.0  0.66415  0.17551  0.49104  1.0000
  O   O7        1.0  0.33529  0.06200  0.33534  1.0000
  O   O8        1.0  0.66468  0.93802  0.66467  1.0000
