data_image0
_chemical_formula_structural       Cu2H26C22N10O8
_chemical_formula_sum              "Cu2 H26 C22 N10 O8"
_cell_length_a       7.8117
_cell_length_b       8.18827
_cell_length_c       11.694
_cell_angle_alpha    101.076
_cell_angle_beta     96.2933
_cell_angle_gamma    103.929

_space_group_name_H-M_alt    "P 1"
_space_group_IT_number       1

loop_
  _space_group_symop_operation_xyz
  'x, y, z'

loop_
  _atom_site_type_symbol
  _atom_site_label
  _atom_site_symmetry_multiplicity
  _atom_site_fract_x
  _atom_site_fract_y
  _atom_site_fract_z
  _atom_site_occupancy
  Cu  Cu1       1.0  0.02275  0.04982  0.39907  1.0000
  Cu  Cu2       1.0  0.97724  0.95019  0.60092  1.0000
  H   H1        1.0  0.81009  0.23172  0.83770  1.0000
  H   H2        1.0  0.18993  0.76828  0.16230  1.0000
  H   H3        1.0  0.08987  0.34301  0.81034  1.0000
  H   H4        1.0  0.91014  0.65700  0.18966  1.0000
  H   H5        1.0  0.27078  0.30870  0.90220  1.0000
  H   H6        1.0  0.72923  0.69130  0.09780  1.0000
  H   H7        1.0  0.20486  0.50250  0.94262  1.0000
  H   H8        1.0  0.79515  0.49752  0.05738  1.0000
  H   H9        1.0  0.52352  0.97040  0.09556  1.0000
  H   H10       1.0  0.47649  0.02958  0.90442  1.0000
  H   H11       1.0  0.68771  0.98034  0.21657  1.0000
  H   H12       1.0  0.31229  0.01964  0.78341  1.0000
  H   H13       1.0  0.34902  0.22656  0.29328  1.0000
  H   H14       1.0  0.65099  0.77344  0.70672  1.0000
  H   H15       1.0  0.14534  0.53541  0.28600  1.0000
  H   H16       1.0  0.85465  0.46459  0.71401  1.0000
  H   H17       1.0  0.10978  0.46908  0.41996  1.0000
  H   H18       1.0  0.89019  0.53092  0.58005  1.0000
  H   H19       1.0  0.40544  0.68257  0.52066  1.0000
  H   H20       1.0  0.59455  0.31743  0.47935  1.0000
  H   H21       1.0  0.42556  0.51245  0.40969  1.0000
  H   H22       1.0  0.57441  0.48753  0.59033  1.0000
  H   H23       1.0  0.46560  0.70055  0.26728  1.0000
  H   H24       1.0  0.53440  0.29940  0.73273  1.0000
  H   H25       1.0  0.41677  0.86869  0.36557  1.0000
  H   H26       1.0  0.58323  0.13128  0.63442  1.0000
  C   C1        1.0  0.85201  0.21400  0.92545  1.0000
  C   C2        1.0  0.14800  0.78601  0.07455  1.0000
  C   C3        1.0  0.15648  0.36423  0.90120  1.0000
  C   C4        1.0  0.84353  0.63578  0.09879  1.0000
  C   C5        1.0  0.08756  0.24652  0.07476  1.0000
  C   C6        1.0  0.91245  0.75350  0.92524  1.0000
  C   C7        1.0  0.96674  0.15484  0.13684  1.0000
  C   C8        1.0  0.03327  0.84517  0.86315  1.0000
  C   C9        1.0  0.78226  0.09861  0.08822  1.0000
  C   C10       1.0  0.21776  0.90139  0.91177  1.0000
  C   C11       1.0  0.23655  0.21856  0.22694  1.0000
  C   C12       1.0  0.76346  0.78145  0.77306  1.0000
  C   C13       1.0  0.10237  0.72961  0.42365  1.0000
  C   C14       1.0  0.89762  0.27039  0.57635  1.0000
  C   C15       1.0  0.17457  0.57648  0.38283  1.0000
  C   C16       1.0  0.82542  0.42352  0.61718  1.0000
  C   C17       1.0  0.37735  0.62884  0.42483  1.0000
  C   C18       1.0  0.62263  0.37115  0.57519  1.0000
  C   C19       1.0  0.47682  0.75909  0.36167  1.0000
  C   C20       1.0  0.52317  0.24088  0.63833  1.0000
  C   C21       1.0  0.67253  0.83875  0.41260  1.0000
  C   C22       1.0  0.32746  0.16124  0.58740  1.0000
  N   N1        1.0  0.73201  0.13234  0.98057  1.0000
  N   N2        1.0  0.26801  0.86766  0.01942  1.0000
  N   N3        1.0  0.02925  0.27660  0.96751  1.0000
  N   N4        1.0  0.97077  0.72341  0.03249  1.0000
  N   N5        1.0  0.65430  0.01360  0.13837  1.0000
  N   N6        1.0  0.34571  0.98639  0.86161  1.0000
  N   N7        1.0  0.06770  0.13788  0.23640  1.0000
  N   N8        1.0  0.93231  0.86213  0.76359  1.0000
  N   N9        1.0  0.25742  0.28854  0.13121  1.0000
  N   N10       1.0  0.74259  0.71146  0.86880  1.0000
  O   O1        1.0  0.09745  0.83166  0.35381  1.0000
  O   O2        1.0  0.90257  0.16837  0.64619  1.0000
  O   O3        1.0  0.06040  0.74924  0.52651  1.0000
  O   O4        1.0  0.93955  0.25076  0.47349  1.0000
  O   O5        1.0  0.76766  0.91421  0.34569  1.0000
  O   O6        1.0  0.23233  0.08576  0.65430  1.0000
  O   O7        1.0  0.72695  0.83043  0.51693  1.0000
  O   O8        1.0  0.27304  0.16960  0.48308  1.0000
