data_image0
_chemical_formula_structural       La2H30C18O24
_chemical_formula_sum              "La2 H30 C18 O24"
_cell_length_a       7.28271
_cell_length_b       10.1282
_cell_length_c       10.6573
_cell_angle_alpha    114.991
_cell_angle_beta     105.596
_cell_angle_gamma    98.86

_space_group_name_H-M_alt    "P 1"
_space_group_IT_number       1

loop_
  _space_group_symop_operation_xyz
  'x, y, z'

loop_
  _atom_site_type_symbol
  _atom_site_label
  _atom_site_symmetry_multiplicity
  _atom_site_fract_x
  _atom_site_fract_y
  _atom_site_fract_z
  _atom_site_occupancy
  La  La1       1.0  0.85862  0.20785  0.66385  1.0000
  La  La2       1.0  0.69476  0.54404  0.33616  1.0000
  H   H1        1.0  0.86885  0.86158  0.74454  1.0000
  H   H2        1.0  0.62389  0.11706  0.25542  1.0000
  H   H3        1.0  0.07382  0.62908  0.98471  1.0000
  H   H4        1.0  0.58866  0.64447  0.01517  1.0000
  H   H5        1.0  0.10777  0.10288  0.22429  1.0000
  H   H6        1.0  0.38352  0.87888  0.77565  1.0000
  H   H7        1.0  0.21896  0.32315  0.58687  1.0000
  H   H8        1.0  0.13192  0.73635  0.41323  1.0000
  H   H9        1.0  0.12697  0.14607  0.46496  1.0000
  H   H10       1.0  0.16206  0.68129  0.53519  1.0000
  H   H11       1.0  0.04092  0.90930  0.57519  1.0000
  H   H12       1.0  0.96582  0.33415  0.42494  1.0000
  H   H13       1.0  0.17892  0.04565  0.73493  1.0000
  H   H14       1.0  0.94385  0.31061  0.26516  1.0000
  H   H15       1.0  0.30976  0.28373  0.88092  1.0000
  H   H16       1.0  0.92853  0.40257  0.11908  1.0000
  H   H17       1.0  0.29957  0.41411  0.83353  1.0000
  H   H18       1.0  0.96598  0.58035  0.16645  1.0000
  H   H19       1.0  0.45061  0.15078  0.43704  1.0000
  H   H20       1.0  0.51405  0.71389  0.56304  1.0000
  H   H21       1.0  0.52777  0.31697  0.46378  1.0000
  H   H22       1.0  0.56424  0.85331  0.53628  1.0000
  H   H23       1.0  0.39355  0.01515  0.54331  1.0000
  H   H24       1.0  0.35020  0.47191  0.45663  1.0000
  H   H25       1.0  0.49332  0.07255  0.71922  1.0000
  H   H26       1.0  0.27392  0.35330  0.28079  1.0000
  H   H27       1.0  0.60578  0.41965  0.79764  1.0000
  H   H28       1.0  0.30798  0.62185  0.20226  1.0000
  H   H29       1.0  0.74583  0.41501  0.94082  1.0000
  H   H30       1.0  0.30496  0.47416  0.05905  1.0000
  C   C1        1.0  0.98863  0.99891  0.98497  1.0000
  C   C2        1.0  0.50348  0.01409  0.01500  1.0000
  C   C3        1.0  0.93536  0.86355  0.85013  1.0000
  C   C4        1.0  0.58486  0.01348  0.14983  1.0000
  C   C5        1.0  0.96814  0.73084  0.85063  1.0000
  C   C6        1.0  0.61707  0.88026  0.14930  1.0000
  C   C7        1.0  0.04983  0.73316  0.98651  1.0000
  C   C8        1.0  0.56286  0.74673  0.01340  1.0000
  C   C9        1.0  0.09766  0.86644  0.12144  1.0000
  C   C10       1.0  0.47595  0.74515  0.87849  1.0000
  C   C11       1.0  0.06887  0.99885  0.11949  1.0000
  C   C12       1.0  0.44915  0.87957  0.88046  1.0000
  C   C13       1.0  0.91192  0.58406  0.70666  1.0000
  C   C14       1.0  0.70507  0.87742  0.29326  1.0000
  C   C15       1.0  0.17477  0.86966  0.26756  1.0000
  C   C16       1.0  0.40711  0.60225  0.73239  1.0000
  C   C17       1.0  0.96084  0.14405  0.98813  1.0000
  C   C18       1.0  0.47279  0.15617  0.01192  1.0000
  O   O1        1.0  0.08995  0.23845  0.51796  1.0000
  O   O2        1.0  0.07194  0.72064  0.48218  1.0000
  O   O3        1.0  0.23523  0.99804  0.38725  1.0000
  O   O4        1.0  0.34790  0.61093  0.61268  1.0000
  O   O5        1.0  0.06148  0.01718  0.64539  1.0000
  O   O6        1.0  0.91619  0.37183  0.35473  1.0000
  O   O7        1.0  0.17631  0.74412  0.26885  1.0000
  O   O8        1.0  0.40755  0.47551  0.73123  1.0000
  O   O9        1.0  0.22941  0.35448  0.87008  1.0000
  O   O10       1.0  0.85914  0.48419  0.12989  1.0000
  O   O11       1.0  0.97725  0.47677  0.71271  1.0000
  O   O12       1.0  0.76440  0.76408  0.28713  1.0000
  O   O13       1.0  0.80038  0.57613  0.58767  1.0000
  O   O14       1.0  0.71273  0.98845  0.41231  1.0000
  O   O15       1.0  0.56802  0.24340  0.49517  1.0000
  O   O16       1.0  0.57334  0.74844  0.50497  1.0000
  O   O17       1.0  0.51696  0.03103  0.62492  1.0000
  O   O18       1.0  0.39198  0.40616  0.37508  1.0000
  O   O19       1.0  0.88221  0.14251  0.86643  1.0000
  O   O20       1.0  0.51576  0.27622  0.13366  1.0000
  O   O21       1.0  0.70451  0.37307  0.83117  1.0000
  O   O22       1.0  0.37317  0.54173  0.16876  1.0000
  O   O23       1.0  0.01915  0.26442  0.11644  1.0000
  O   O24       1.0  0.40312  0.14844  0.88366  1.0000
