data_image0
_chemical_formula_structural       Zn2H30C32N2Cl2O10
_chemical_formula_sum              "Zn2 H30 C32 N2 Cl2 O10"
_cell_length_a       5.66104
_cell_length_b       10.3244
_cell_length_c       14.1733
_cell_angle_alpha    96.9745
_cell_angle_beta     99.7618
_cell_angle_gamma    101.782

_space_group_name_H-M_alt    "P 1"
_space_group_IT_number       1

loop_
  _space_group_symop_operation_xyz
  'x, y, z'

loop_
  _atom_site_type_symbol
  _atom_site_label
  _atom_site_symmetry_multiplicity
  _atom_site_fract_x
  _atom_site_fract_y
  _atom_site_fract_z
  _atom_site_occupancy
  Zn  Zn1       1.0  0.18496  0.65925  0.34969  1.0000
  Zn  Zn2       1.0  0.81503  0.34076  0.65031  1.0000
  H   H1        1.0  0.71968  0.73413  0.26259  1.0000
  H   H2        1.0  0.28029  0.26588  0.73741  1.0000
  H   H3        1.0  0.41726  0.67345  0.10840  1.0000
  H   H4        1.0  0.58272  0.32656  0.89160  1.0000
  H   H5        1.0  0.81367  0.37736  0.01884  1.0000
  H   H6        1.0  0.18634  0.62266  0.98117  1.0000
  H   H7        1.0  0.09434  0.44723  0.17845  1.0000
  H   H8        1.0  0.90565  0.55279  0.82155  1.0000
  H   H9        1.0  0.15309  0.17375  0.38600  1.0000
  H   H10       1.0  0.84690  0.82623  0.61399  1.0000
  H   H11       1.0  0.52445  0.27132  0.19624  1.0000
  H   H12       1.0  0.47557  0.72869  0.80377  1.0000
  H   H13       1.0  0.33107  0.24710  0.02323  1.0000
  H   H14       1.0  0.66899  0.75292  0.97678  1.0000
  H   H15       1.0  0.63561  0.05291  0.08277  1.0000
  H   H16       1.0  0.36443  0.94709  0.91721  1.0000
  H   H17       1.0  0.83624  0.06818  0.25490  1.0000
  H   H18       1.0  0.16377  0.93181  0.74508  1.0000
  H   H19       1.0  0.63111  0.34954  0.35029  1.0000
  H   H20       1.0  0.36889  0.65047  0.64973  1.0000
  H   H21       1.0  0.57593  0.07068  0.31822  1.0000
  H   H22       1.0  0.42407  0.92932  0.68178  1.0000
  H   H23       1.0  0.55713  0.32682  0.46325  1.0000
  H   H24       1.0  0.44283  0.67317  0.53677  1.0000
  H   H25       1.0  0.54929  0.09981  0.43972  1.0000
  H   H26       1.0  0.45073  0.90019  0.56027  1.0000
  H   H27       1.0  0.94248  0.66143  0.50209  1.0000
  H   H28       1.0  0.05746  0.33854  0.49790  1.0000
  H   H29       1.0  0.98120  0.79701  0.44427  1.0000
  H   H30       1.0  0.01874  0.20296  0.55573  1.0000
  C   C1        1.0  0.73174  0.65427  0.20693  1.0000
  C   C2        1.0  0.26824  0.34574  0.79308  1.0000
  C   C3        1.0  0.56310  0.61930  0.11939  1.0000
  C   C4        1.0  0.43689  0.38071  0.88061  1.0000
  C   C5        1.0  0.58616  0.51894  0.04759  1.0000
  C   C6        1.0  0.41383  0.48107  0.95241  1.0000
  C   C7        1.0  0.78224  0.45632  0.06994  1.0000
  C   C8        1.0  0.21775  0.54368  0.93006  1.0000
  C   C9        1.0  0.94173  0.49500  0.15934  1.0000
  C   C10       1.0  0.05825  0.50501  0.84066  1.0000
  C   C11       1.0  0.33692  0.43698  0.38530  1.0000
  C   C12       1.0  0.66305  0.56301  0.61470  1.0000
  C   C13       1.0  0.47574  0.32661  0.38716  1.0000
  C   C14       1.0  0.52425  0.67339  0.61284  1.0000
  C   C15       1.0  0.27375  0.93804  0.35566  1.0000
  C   C16       1.0  0.72625  0.06195  0.64435  1.0000
  C   C17       1.0  0.44143  0.07625  0.36485  1.0000
  C   C18       1.0  0.55858  0.92374  0.63516  1.0000
  C   C19       1.0  0.30483  0.18765  0.34623  1.0000
  C   C20       1.0  0.69517  0.81234  0.65376  1.0000
  C   C21       1.0  0.19108  0.17533  0.23967  1.0000
  C   C22       1.0  0.80895  0.82466  0.76032  1.0000
  C   C23       1.0  0.32916  0.22351  0.17270  1.0000
  C   C24       1.0  0.67087  0.77650  0.82730  1.0000
  C   C25       1.0  0.22179  0.21144  0.07493  1.0000
  C   C26       1.0  0.77827  0.78857  0.92508  1.0000
  C   C27       1.0  0.97132  0.15260  0.04342  1.0000
  C   C28       1.0  0.02874  0.84741  0.95657  1.0000
  C   C29       1.0  0.83011  0.10113  0.10768  1.0000
  C   C30       1.0  0.16994  0.89888  0.89231  1.0000
  C   C31       1.0  0.94246  0.11200  0.20472  1.0000
  C   C32       1.0  0.05756  0.88800  0.79527  1.0000
  N   N1        1.0  0.91871  0.59313  0.22665  1.0000
  N   N2        1.0  0.08128  0.40688  0.77335  1.0000
  Cl  Cl1       1.0  0.83501  0.14396  0.92213  1.0000
  Cl  Cl2       1.0  0.16507  0.85606  0.07786  1.0000
  O   O1        1.0  0.41156  0.53622  0.34181  1.0000
  O   O2        1.0  0.58841  0.46377  0.65820  1.0000
  O   O3        1.0  0.15248  0.43187  0.42511  1.0000
  O   O4        1.0  0.84748  0.56811  0.57489  1.0000
  O   O5        1.0  0.05868  0.92715  0.37069  1.0000
  O   O6        1.0  0.94130  0.07284  0.62930  1.0000
  O   O7        1.0  0.37505  0.83829  0.33620  1.0000
  O   O8        1.0  0.62498  0.16171  0.66382  1.0000
  O   O9        1.0  0.03951  0.71722  0.46116  1.0000
  O   O10       1.0  0.96044  0.28275  0.53883  1.0000
