data_image0
_chemical_formula_structural       V2Cu2P4H48C50N6O16
_chemical_formula_sum              "V2 Cu2 P4 H48 C50 N6 O16"
_cell_length_a       8.97712
_cell_length_b       11.0275
_cell_length_c       13.6121
_cell_angle_alpha    74.901
_cell_angle_beta     82.0068
_cell_angle_gamma    81.3452

_space_group_name_H-M_alt    "P 1"
_space_group_IT_number       1

loop_
  _space_group_symop_operation_xyz
  'x, y, z'

loop_
  _atom_site_type_symbol
  _atom_site_label
  _atom_site_symmetry_multiplicity
  _atom_site_fract_x
  _atom_site_fract_y
  _atom_site_fract_z
  _atom_site_occupancy
  V   V1        1.0  0.98934  0.95708  0.78594  1.0000
  V   V2        1.0  0.01065  0.04292  0.21406  1.0000
  Cu  Cu1       1.0  0.63114  0.78479  0.83609  1.0000
  Cu  Cu2       1.0  0.36885  0.21521  0.16393  1.0000
  P   P1        1.0  0.29535  0.79517  0.72036  1.0000
  P   P2        1.0  0.70464  0.20483  0.27964  1.0000
  P   P3        1.0  0.16206  0.11900  0.37514  1.0000
  P   P4        1.0  0.83796  0.88101  0.62484  1.0000
  H   H1        1.0  0.55595  0.06392  0.71359  1.0000
  H   H2        1.0  0.44405  0.93608  0.28642  1.0000
  H   H3        1.0  0.34381  0.23637  0.73210  1.0000
  H   H4        1.0  0.65619  0.76363  0.26790  1.0000
  H   H5        1.0  0.16261  0.20175  0.89340  1.0000
  H   H6        1.0  0.83739  0.79825  0.10660  1.0000
  H   H7        1.0  0.20154  0.00258  0.02805  1.0000
  H   H8        1.0  0.79847  0.99743  0.97195  1.0000
  H   H9        1.0  0.26615  0.82273  0.13955  1.0000
  H   H10       1.0  0.73385  0.17727  0.86044  1.0000
  H   H11       1.0  0.58383  0.47922  0.17504  1.0000
  H   H12       1.0  0.41616  0.52078  0.82496  1.0000
  H   H13       1.0  0.77655  0.38649  0.09689  1.0000
  H   H14       1.0  0.22345  0.61352  0.90310  1.0000
  H   H15       1.0  0.97803  0.28802  0.98796  1.0000
  H   H16       1.0  0.02197  0.71198  0.01203  1.0000
  H   H17       1.0  0.02947  0.40233  0.80062  1.0000
  H   H18       1.0  0.97053  0.59767  0.19937  1.0000
  H   H19       1.0  0.88070  0.61318  0.73630  1.0000
  H   H20       1.0  0.11929  0.38682  0.26371  1.0000
  H   H21       1.0  0.20589  0.77730  0.28893  1.0000
  H   H22       1.0  0.79411  0.22270  0.71107  1.0000
  H   H23       1.0  0.09922  0.70118  0.46643  1.0000
  H   H24       1.0  0.90078  0.29882  0.53357  1.0000
  H   H25       1.0  0.37251  0.34286  0.48436  1.0000
  H   H26       1.0  0.62749  0.65714  0.51564  1.0000
  H   H27       1.0  0.47695  0.41442  0.30543  1.0000
  H   H28       1.0  0.52305  0.58559  0.69457  1.0000
  H   H29       1.0  0.14635  0.37139  0.61512  1.0000
  H   H30       1.0  0.85365  0.62861  0.38488  1.0000
  H   H31       1.0  0.05874  0.52769  0.61490  1.0000
  H   H32       1.0  0.94126  0.47231  0.38510  1.0000
  H   H33       1.0  0.24507  0.48026  0.65011  1.0000
  H   H34       1.0  0.75493  0.51974  0.34989  1.0000
  H   H35       1.0  0.39275  0.91515  0.43645  1.0000
  H   H36       1.0  0.60726  0.08485  0.56355  1.0000
  H   H37       1.0  0.23511  0.83990  0.49975  1.0000
  H   H38       1.0  0.76489  0.16010  0.50025  1.0000
  H   H39       1.0  0.28061  0.10141  0.52283  1.0000
  H   H40       1.0  0.71939  0.89859  0.47717  1.0000
  H   H41       1.0  0.11210  0.02901  0.55317  1.0000
  H   H42       1.0  0.88790  0.97099  0.44682  1.0000
  H   H43       1.0  0.46259  0.92840  0.60939  1.0000
  H   H44       1.0  0.53741  0.07160  0.39061  1.0000
  H   H45       1.0  0.48272  0.77813  0.58637  1.0000
  H   H46       1.0  0.51728  0.22187  0.41363  1.0000
  H   H47       1.0  0.09392  0.73558  0.66696  1.0000
  H   H48       1.0  0.90608  0.26442  0.33304  1.0000
  C   C1        1.0  0.47394  0.05474  0.78134  1.0000
  C   C2        1.0  0.52606  0.94526  0.21866  1.0000
  C   C3        1.0  0.35602  0.14966  0.79250  1.0000
  C   C4        1.0  0.64398  0.85035  0.20750  1.0000
  C   C5        1.0  0.25691  0.13077  0.88188  1.0000
  C   C6        1.0  0.74309  0.86923  0.11812  1.0000
  C   C7        1.0  0.27832  0.01877  0.95771  1.0000
  C   C8        1.0  0.72168  0.98123  0.04229  1.0000
  C   C9        1.0  0.39835  0.92791  0.94111  1.0000
  C   C10       1.0  0.60165  0.07208  0.05890  1.0000
  C   C11       1.0  0.43531  0.80581  0.01434  1.0000
  C   C12       1.0  0.56468  0.19420  0.98566  1.0000
  C   C13       1.0  0.36439  0.76430  0.11273  1.0000
  C   C14       1.0  0.63562  0.23569  0.88727  1.0000
  C   C15       1.0  0.41930  0.64700  0.17553  1.0000
  C   C16       1.0  0.58070  0.35300  0.82448  1.0000
  C   C17       1.0  0.54066  0.57318  0.13275  1.0000
  C   C18       1.0  0.45935  0.42683  0.86725  1.0000
  C   C19       1.0  0.60324  0.61823  0.03260  1.0000
  C   C20       1.0  0.39677  0.38176  0.96740  1.0000
  C   C21       1.0  0.72442  0.55076  0.97527  1.0000
  C   C22       1.0  0.27557  0.44925  0.02474  1.0000
  C   C23       1.0  0.80358  0.43417  0.01711  1.0000
  C   C24       1.0  0.19642  0.56584  0.98288  1.0000
  C   C25       1.0  0.91515  0.37890  0.95472  1.0000
  C   C26       1.0  0.08485  0.62110  0.04528  1.0000
  C   C27       1.0  0.94429  0.44205  0.85246  1.0000
  C   C28       1.0  0.05572  0.55796  0.14754  1.0000
  C   C29       1.0  0.86152  0.55913  0.81535  1.0000
  C   C30       1.0  0.13849  0.44087  0.18465  1.0000
  C   C31       1.0  0.35378  0.60319  0.28251  1.0000
  C   C32       1.0  0.64622  0.39681  0.71749  1.0000
  C   C33       1.0  0.24559  0.68186  0.33038  1.0000
  C   C34       1.0  0.75440  0.31814  0.66962  1.0000
  C   C35       1.0  0.18427  0.63914  0.43123  1.0000
  C   C36       1.0  0.81573  0.36086  0.56877  1.0000
  C   C37       1.0  0.22934  0.51694  0.48887  1.0000
  C   C38       1.0  0.77065  0.48306  0.51114  1.0000
  C   C39       1.0  0.33708  0.43881  0.44118  1.0000
  C   C40       1.0  0.66292  0.56118  0.55882  1.0000
  C   C41       1.0  0.39786  0.48009  0.34036  1.0000
  C   C42       1.0  0.60214  0.51991  0.65964  1.0000
  C   C43       1.0  0.16597  0.47111  0.59811  1.0000
  C   C44       1.0  0.83403  0.52889  0.40189  1.0000
  C   C45       1.0  0.30942  0.90812  0.50456  1.0000
  C   C46       1.0  0.69059  0.09188  0.49544  1.0000
  C   C47       1.0  0.21638  0.03701  0.50044  1.0000
  C   C48       1.0  0.78362  0.96298  0.49956  1.0000
  C   C49       1.0  0.39777  0.85723  0.59795  1.0000
  C   C50       1.0  0.60223  0.14277  0.40205  1.0000
  N   N1        1.0  0.49408  0.94681  0.85315  1.0000
  N   N2        1.0  0.50593  0.05320  0.14685  1.0000
  N   N3        1.0  0.55207  0.73296  0.97750  1.0000
  N   N4        1.0  0.44793  0.26704  0.02251  1.0000
  N   N5        1.0  0.75453  0.61204  0.87530  1.0000
  N   N6        1.0  0.24546  0.38796  0.12469  1.0000
  O   O1        1.0  0.40264  0.72717  0.79778  1.0000
  O   O2        1.0  0.59735  0.27282  0.20223  1.0000
  O   O3        1.0  0.19010  0.69985  0.70760  1.0000
  O   O4        1.0  0.80990  0.30015  0.29239  1.0000
  O   O5        1.0  0.19420  0.91351  0.74972  1.0000
  O   O6        1.0  0.80579  0.08649  0.25028  1.0000
  O   O7        1.0  0.95950  0.08643  0.82711  1.0000
  O   O8        1.0  0.04050  0.91356  0.17289  1.0000
  O   O9        1.0  0.30577  0.16006  0.30782  1.0000
  O   O10       1.0  0.69421  0.83993  0.69219  1.0000
  O   O11       1.0  0.91320  0.84356  0.87203  1.0000
  O   O12       1.0  0.08680  0.15643  0.12798  1.0000
  O   O13       1.0  0.10215  0.01416  0.33346  1.0000
  O   O14       1.0  0.89785  0.98583  0.66654  1.0000
  O   O15       1.0  0.03582  0.22442  0.38734  1.0000
  O   O16       1.0  0.96418  0.77559  0.61266  1.0000
