data_image0
_chemical_formula_structural       Ni2H32C36N24O4
_chemical_formula_sum              "Ni2 H32 C36 N24 O4"
_cell_length_a       8.61155
_cell_length_b       8.82128
_cell_length_c       13.7116
_cell_angle_alpha    89.9977
_cell_angle_beta     90.0091
_cell_angle_gamma    91.3088

_space_group_name_H-M_alt    "P 1"
_space_group_IT_number       1

loop_
  _space_group_symop_operation_xyz
  'x, y, z'

loop_
  _atom_site_type_symbol
  _atom_site_label
  _atom_site_symmetry_multiplicity
  _atom_site_fract_x
  _atom_site_fract_y
  _atom_site_fract_z
  _atom_site_occupancy
  Ni  Ni1       1.0  1.00000  0.00001  0.00000  1.0000
  Ni  Ni2       1.0  0.50000  0.00000  0.50000  1.0000
  H   H1        1.0  0.06511  0.31196  0.86397  1.0000
  H   H2        1.0  0.43488  0.68803  0.36396  1.0000
  H   H3        1.0  0.93489  0.68805  0.13604  1.0000
  H   H4        1.0  0.56511  0.31196  0.63605  1.0000
  H   H5        1.0  0.58085  0.30593  0.80920  1.0000
  H   H6        1.0  0.91910  0.69411  0.30922  1.0000
  H   H7        1.0  0.41915  0.69408  0.19080  1.0000
  H   H8        1.0  0.08090  0.30589  0.69078  1.0000
  H   H9        1.0  0.65117  0.07407  0.93739  1.0000
  H   H10       1.0  0.84884  0.92597  0.43739  1.0000
  H   H11       1.0  0.34882  0.92596  0.06262  1.0000
  H   H12       1.0  0.15116  0.07403  0.56261  1.0000
  H   H13       1.0  0.13319  0.72195  0.87881  1.0000
  H   H14       1.0  0.36682  0.27806  0.37882  1.0000
  H   H15       1.0  0.86679  0.27805  0.12120  1.0000
  H   H16       1.0  0.63316  0.72194  0.62118  1.0000
  H   H17       1.0  0.49799  0.99923  0.76551  1.0000
  H   H18       1.0  0.00199  0.00077  0.26550  1.0000
  H   H19       1.0  0.50200  0.00075  0.23449  1.0000
  H   H20       1.0  0.99800  0.99923  0.73450  1.0000
  H   H21       1.0  0.29593  0.17673  0.87291  1.0000
  H   H22       1.0  0.20412  0.82326  0.37292  1.0000
  H   H23       1.0  0.70407  0.82326  0.12709  1.0000
  H   H24       1.0  0.79588  0.17673  0.62708  1.0000
  H   H25       1.0  0.84207  0.42153  0.76040  1.0000
  H   H26       1.0  0.65789  0.57847  0.26043  1.0000
  H   H27       1.0  0.15793  0.57847  0.23960  1.0000
  H   H28       1.0  0.34211  0.42152  0.73958  1.0000
  H   H29       1.0  0.38649  0.73073  0.78332  1.0000
  H   H30       1.0  0.11347  0.26927  0.28331  1.0000
  H   H31       1.0  0.61349  0.26926  0.21668  1.0000
  H   H32       1.0  0.88652  0.73072  0.71669  1.0000
  C   C1        1.0  0.75715  0.75137  0.92512  1.0000
  C   C2        1.0  0.74286  0.24862  0.42514  1.0000
  C   C3        1.0  0.24287  0.24865  0.07487  1.0000
  C   C4        1.0  0.25716  0.75137  0.57485  1.0000
  C   C5        1.0  0.56334  0.57557  0.95696  1.0000
  C   C6        1.0  0.93669  0.42442  0.45696  1.0000
  C   C7        1.0  0.43669  0.42445  0.04302  1.0000
  C   C8        1.0  0.06334  0.57556  0.54303  1.0000
  C   C9        1.0  0.42244  0.48183  0.94219  1.0000
  C   C10       1.0  0.07758  0.51817  0.44221  1.0000
  C   C11       1.0  0.57759  0.51819  0.05780  1.0000
  C   C12       1.0  0.92245  0.48182  0.55779  1.0000
  C   C13       1.0  0.94397  0.27522  0.86573  1.0000
  C   C14       1.0  0.55602  0.72478  0.36574  1.0000
  C   C15       1.0  0.05603  0.72479  0.13427  1.0000
  C   C16       1.0  0.44398  0.27521  0.63427  1.0000
  C   C17       1.0  0.69053  0.27164  0.83928  1.0000
  C   C18       1.0  0.80943  0.72838  0.33930  1.0000
  C   C19       1.0  0.30946  0.72837  0.16072  1.0000
  C   C20       1.0  0.19056  0.27162  0.66070  1.0000
  C   C21       1.0  0.72698  0.15738  0.90260  1.0000
  C   C22       1.0  0.77300  0.84264  0.40261  1.0000
  C   C23       1.0  0.27301  0.84263  0.09740  1.0000
  C   C24       1.0  0.22699  0.15735  0.59739  1.0000
  C   C25       1.0  0.20110  0.82337  0.86198  1.0000
  C   C26       1.0  0.29891  0.17664  0.36199  1.0000
  C   C27       1.0  0.79888  0.17662  0.13803  1.0000
  C   C28       1.0  0.70108  0.82336  0.63802  1.0000
  C   C29       1.0  0.39336  0.97027  0.80577  1.0000
  C   C30       1.0  0.10663  0.02973  0.30576  1.0000
  C   C31       1.0  0.60663  0.02971  0.19424  1.0000
  C   C32       1.0  0.89336  0.97026  0.69424  1.0000
  C   C33       1.0  0.29111  0.05595  0.85821  1.0000
  C   C34       1.0  0.20892  0.94406  0.35821  1.0000
  C   C35       1.0  0.70888  0.94404  0.14179  1.0000
  C   C36       1.0  0.79108  0.05594  0.64179  1.0000
  N   N1        1.0  0.86595  0.83164  0.94035  1.0000
  N   N2        1.0  0.63407  0.16839  0.44039  1.0000
  N   N3        1.0  0.13407  0.16839  0.05965  1.0000
  N   N4        1.0  0.36595  0.83161  0.55962  1.0000
  N   N5        1.0  0.63697  0.67075  0.89709  1.0000
  N   N6        1.0  0.86304  0.32923  0.39711  1.0000
  N   N7        1.0  0.36306  0.32926  0.10289  1.0000
  N   N8        1.0  0.13698  0.67076  0.60289  1.0000
  N   N9        1.0  0.88526  0.16036  0.91796  1.0000
  N   N10       1.0  0.61474  0.83964  0.41796  1.0000
  N   N11       1.0  0.11474  0.83965  0.08204  1.0000
  N   N12       1.0  0.38525  0.16035  0.58205  1.0000
  N   N13       1.0  0.82859  0.34563  0.81701  1.0000
  N   N14       1.0  0.67139  0.65439  0.31703  1.0000
  N   N15       1.0  0.17141  0.65438  0.18299  1.0000
  N   N16       1.0  0.32861  0.34561  0.68298  1.0000
  N   N17       1.0  0.17154  0.96303  0.89267  1.0000
  N   N18       1.0  0.32847  0.03698  0.39267  1.0000
  N   N19       1.0  0.82845  0.03696  0.10733  1.0000
  N   N20       1.0  0.67152  0.96302  0.60733  1.0000
  N   N21       1.0  0.33380  0.82432  0.80909  1.0000
  N   N22       1.0  0.16617  0.17567  0.30909  1.0000
  N   N23       1.0  0.66618  0.17567  0.19092  1.0000
  N   N24       1.0  0.83382  0.82433  0.69092  1.0000
  O   O1        1.0  0.32968  0.46040  0.87261  1.0000
  O   O2        1.0  0.17032  0.53959  0.37264  1.0000
  O   O3        1.0  0.67034  0.53962  0.12738  1.0000
  O   O4        1.0  0.82970  0.46039  0.62735  1.0000
