data_image0
_chemical_formula_structural       Ni2H28C30N20O6
_chemical_formula_sum              "Ni2 H28 C30 N20 O6"
_cell_length_a       8.6488
_cell_length_b       10.7625
_cell_length_c       11.0358
_cell_angle_alpha    82.8801
_cell_angle_beta     69.7623
_cell_angle_gamma    72.7393

_space_group_name_H-M_alt    "P 1"
_space_group_IT_number       1

loop_
  _space_group_symop_operation_xyz
  'x, y, z'

loop_
  _atom_site_type_symbol
  _atom_site_label
  _atom_site_symmetry_multiplicity
  _atom_site_fract_x
  _atom_site_fract_y
  _atom_site_fract_z
  _atom_site_occupancy
  Ni  Ni1       1.0  0.39273  0.25713  0.29497  1.0000
  Ni  Ni2       1.0  0.60727  0.74287  0.70503  1.0000
  H   H1        1.0  0.14575  0.17663  0.58002  1.0000
  H   H2        1.0  0.85425  0.82337  0.41997  1.0000
  H   H3        1.0  0.80315  0.14454  0.39668  1.0000
  H   H4        1.0  0.19684  0.85546  0.60332  1.0000
  H   H5        1.0  0.08813  0.20172  0.21251  1.0000
  H   H6        1.0  0.91187  0.79828  0.78748  1.0000
  H   H7        1.0  0.47929  0.52459  0.13447  1.0000
  H   H8        1.0  0.52071  0.47541  0.86553  1.0000
  H   H9        1.0  0.94541  0.69999  0.24873  1.0000
  H   H10       1.0  0.05459  0.30001  0.75127  1.0000
  H   H11       1.0  0.00759  0.44513  0.34752  1.0000
  H   H12       1.0  0.99241  0.55487  0.65248  1.0000
  H   H13       1.0  0.28176  0.52370  0.45020  1.0000
  H   H14       1.0  0.71825  0.47630  0.54980  1.0000
  H   H15       1.0  0.30580  0.52528  0.69427  1.0000
  H   H16       1.0  0.69421  0.47472  0.30573  1.0000
  H   H17       1.0  0.47467  0.13691  0.56709  1.0000
  H   H18       1.0  0.52533  0.86309  0.43291  1.0000
  H   H19       1.0  0.86640  0.12760  0.61016  1.0000
  H   H20       1.0  0.13359  0.87240  0.38984  1.0000
  H   H21       1.0  0.23794  0.73264  0.12629  1.0000
  H   H22       1.0  0.76206  0.26736  0.87371  1.0000
  H   H23       1.0  0.40524  0.28978  0.75580  1.0000
  H   H24       1.0  0.59476  0.71022  0.24419  1.0000
  H   H25       1.0  0.36189  0.25983  0.05571  1.0000
  H   H26       1.0  0.63811  0.74016  0.94429  1.0000
  H   H27       1.0  0.53438  0.15913  0.06163  1.0000
  H   H28       1.0  0.46562  0.84087  0.93837  1.0000
  C   C1        1.0  0.67789  0.01264  0.26423  1.0000
  C   C2        1.0  0.32211  0.98736  0.73577  1.0000
  C   C3        1.0  0.92701  0.98015  0.09269  1.0000
  C   C4        1.0  0.07299  0.01985  0.90731  1.0000
  C   C5        1.0  0.11061  0.94472  0.01969  1.0000
  C   C6        1.0  0.88938  0.05529  0.98031  1.0000
  C   C7        1.0  0.75677  0.31060  0.14771  1.0000
  C   C8        1.0  0.24324  0.68940  0.85228  1.0000
  C   C9        1.0  0.95992  0.41790  0.03863  1.0000
  C   C10       1.0  0.04009  0.58209  0.96137  1.0000
  C   C11       1.0  0.12752  0.44328  0.97440  1.0000
  C   C12       1.0  0.87249  0.55671  0.02560  1.0000
  C   C13       1.0  0.09420  0.17861  0.50333  1.0000
  C   C14       1.0  0.90580  0.82139  0.49667  1.0000
  C   C15       1.0  0.91648  0.16031  0.40595  1.0000
  C   C16       1.0  0.08352  0.83969  0.59405  1.0000
  C   C17       1.0  0.05836  0.18913  0.31610  1.0000
  C   C18       1.0  0.94164  0.81087  0.68390  1.0000
  C   C19       1.0  0.34328  0.53463  0.18006  1.0000
  C   C20       1.0  0.65672  0.46537  0.81994  1.0000
  C   C21       1.0  0.06323  0.62509  0.24271  1.0000
  C   C22       1.0  0.93677  0.37491  0.75729  1.0000
  C   C23       1.0  0.09626  0.49882  0.28914  1.0000
  C   C24       1.0  0.90375  0.50118  0.71086  1.0000
  C   C25       1.0  0.32430  0.44336  0.51092  1.0000
  C   C26       1.0  0.67570  0.55664  0.48908  1.0000
  C   C27       1.0  0.33389  0.44586  0.63204  1.0000
  C   C28       1.0  0.66611  0.55414  0.36796  1.0000
  C   C29       1.0  0.42587  0.24216  0.56641  1.0000
  C   C30       1.0  0.57413  0.75784  0.43359  1.0000
  N   N1        1.0  0.53307  0.06224  0.32392  1.0000
  N   N2        1.0  0.46694  0.93776  0.67608  1.0000
  N   N3        1.0  0.83940  0.95469  0.21358  1.0000
  N   N4        1.0  0.16059  0.04532  0.78641  1.0000
  N   N5        1.0  0.62080  0.29645  0.20834  1.0000
  N   N6        1.0  0.37920  0.70355  0.79166  1.0000
  N   N7        1.0  0.91483  0.31011  0.08611  1.0000
  N   N8        1.0  0.08517  0.68989  0.91389  1.0000
  N   N9        1.0  0.16701  0.20161  0.37830  1.0000
  N   N10       1.0  0.83299  0.79839  0.62169  1.0000
  N   N11       1.0  0.94182  0.15422  0.52370  1.0000
  N   N12       1.0  0.05817  0.84578  0.47630  1.0000
  N   N13       1.0  0.27102  0.44323  0.24917  1.0000
  N   N14       1.0  0.72899  0.55676  0.75083  1.0000
  N   N15       1.0  0.22043  0.64598  0.17496  1.0000
  N   N16       1.0  0.77957  0.35402  0.82504  1.0000
  N   N17       1.0  0.38134  0.31621  0.47116  1.0000
  N   N18       1.0  0.61867  0.68379  0.52884  1.0000
  N   N19       1.0  0.39803  0.31834  0.66571  1.0000
  N   N20       1.0  0.60197  0.68166  0.33429  1.0000
  O   O1        1.0  0.24405  0.87936  0.04336  1.0000
  O   O2        1.0  0.75594  0.12064  0.95663  1.0000
  O   O3        1.0  0.28154  0.37718  0.94294  1.0000
  O   O4        1.0  0.71847  0.62282  0.05706  1.0000
  O   O5        1.0  0.41124  0.19208  0.11178  1.0000
  O   O6        1.0  0.58876  0.80791  0.88823  1.0000
