data_image0
_chemical_formula_structural       Zn2H36C64N8O8
_chemical_formula_sum              "Zn2 H36 C64 N8 O8"
_cell_length_a       8.66829
_cell_length_b       8.66821
_cell_length_c       17.9995
_cell_angle_alpha    78.635
_cell_angle_beta     78.6351
_cell_angle_gamma    71.308

_space_group_name_H-M_alt    "P 1"
_space_group_IT_number       1

loop_
  _space_group_symop_operation_xyz
  'x, y, z'

loop_
  _atom_site_type_symbol
  _atom_site_label
  _atom_site_symmetry_multiplicity
  _atom_site_fract_x
  _atom_site_fract_y
  _atom_site_fract_z
  _atom_site_occupancy
  Zn  Zn1       1.0  0.96685  0.03316  0.75000  1.0000
  Zn  Zn2       1.0  0.03315  0.96684  0.25000  1.0000
  H   H1        1.0  0.73751  0.35082  0.92925  1.0000
  H   H2        1.0  0.64917  0.26250  0.57075  1.0000
  H   H3        1.0  0.26249  0.64917  0.07075  1.0000
  H   H4        1.0  0.35083  0.73752  0.42925  1.0000
  H   H5        1.0  0.48625  0.96843  0.87086  1.0000
  H   H6        1.0  0.03157  0.51376  0.62914  1.0000
  H   H7        1.0  0.51375  0.03156  0.12914  1.0000
  H   H8        1.0  0.96844  0.48625  0.37086  1.0000
  H   H9        1.0  0.20267  0.94371  0.90456  1.0000
  H   H10       1.0  0.05628  0.79735  0.59543  1.0000
  H   H11       1.0  0.79734  0.05628  0.09544  1.0000
  H   H12       1.0  0.94372  0.20266  0.40456  1.0000
  H   H13       1.0  0.98714  0.13760  0.98205  1.0000
  H   H14       1.0  0.86239  0.01287  0.51795  1.0000
  H   H15       1.0  0.01286  0.86238  0.01795  1.0000
  H   H16       1.0  0.13761  0.98714  0.48205  1.0000
  H   H17       1.0  0.05733  0.35367  0.03110  1.0000
  H   H18       1.0  0.64630  0.94269  0.46890  1.0000
  H   H19       1.0  0.94267  0.64631  0.96890  1.0000
  H   H20       1.0  0.35369  0.05733  0.53111  1.0000
  H   H21       1.0  0.79424  0.74868  0.80974  1.0000
  H   H22       1.0  0.25132  0.20577  0.69026  1.0000
  H   H23       1.0  0.20577  0.25132  0.19026  1.0000
  H   H24       1.0  0.74866  0.79424  0.30975  1.0000
  H   H25       1.0  0.89851  0.43766  0.83413  1.0000
  H   H26       1.0  0.56234  0.10149  0.66588  1.0000
  H   H27       1.0  0.10149  0.56234  0.16588  1.0000
  H   H28       1.0  0.43765  0.89852  0.33413  1.0000
  H   H29       1.0  0.20004  0.30120  0.81371  1.0000
  H   H30       1.0  0.69880  0.79995  0.68629  1.0000
  H   H31       1.0  0.79996  0.69880  0.18630  1.0000
  H   H32       1.0  0.30120  0.20006  0.31371  1.0000
  H   H33       1.0  0.48966  0.32993  0.77106  1.0000
  H   H34       1.0  0.67007  0.51034  0.72894  1.0000
  H   H35       1.0  0.51035  0.67007  0.22894  1.0000
  H   H36       1.0  0.32994  0.48967  0.27106  1.0000
  C   C1        1.0  0.48707  0.43041  0.98625  1.0000
  C   C2        1.0  0.56959  0.51293  0.51375  1.0000
  C   C3        1.0  0.51292  0.56959  0.01375  1.0000
  C   C4        1.0  0.43041  0.48708  0.48626  1.0000
  C   C5        1.0  0.61847  0.32742  0.94176  1.0000
  C   C6        1.0  0.67257  0.38153  0.55824  1.0000
  C   C7        1.0  0.38152  0.67257  0.05824  1.0000
  C   C8        1.0  0.32743  0.61848  0.44176  1.0000
  C   C9        1.0  0.59316  0.20365  0.91236  1.0000
  C   C10       1.0  0.79634  0.40684  0.58763  1.0000
  C   C11       1.0  0.40683  0.79633  0.08764  1.0000
  C   C12       1.0  0.20366  0.59317  0.41236  1.0000
  C   C13       1.0  0.43476  0.17648  0.93084  1.0000
  C   C14       1.0  0.82351  0.56524  0.56915  1.0000
  C   C15       1.0  0.56523  0.82351  0.06915  1.0000
  C   C16       1.0  0.17649  0.43477  0.43085  1.0000
  C   C17       1.0  0.39254  0.05160  0.90602  1.0000
  C   C18       1.0  0.94839  0.60747  0.59397  1.0000
  C   C19       1.0  0.60746  0.94838  0.09397  1.0000
  C   C20       1.0  0.05162  0.39254  0.40602  1.0000
  C   C21       1.0  0.23442  0.03850  0.92492  1.0000
  C   C22       1.0  0.96148  0.76559  0.57507  1.0000
  C   C23       1.0  0.76558  0.96148  0.07508  1.0000
  C   C24       1.0  0.03852  0.23442  0.42492  1.0000
  C   C25       1.0  0.11178  0.14774  0.96982  1.0000
  C   C26       1.0  0.85225  0.88823  0.53018  1.0000
  C   C27       1.0  0.88822  0.85225  0.03018  1.0000
  C   C28       1.0  0.14775  0.11178  0.46982  1.0000
  C   C29       1.0  0.14948  0.26777  0.99643  1.0000
  C   C30       1.0  0.73221  0.85053  0.50357  1.0000
  C   C31       1.0  0.85052  0.73221  0.00357  1.0000
  C   C32       1.0  0.26778  0.14948  0.49643  1.0000
  C   C33       1.0  0.31036  0.28570  0.97774  1.0000
  C   C34       1.0  0.71429  0.68964  0.52226  1.0000
  C   C35       1.0  0.68963  0.71429  0.02226  1.0000
  C   C36       1.0  0.28571  0.31037  0.47774  1.0000
  C   C37       1.0  0.72773  0.11771  0.85504  1.0000
  C   C38       1.0  0.88229  0.27227  0.64495  1.0000
  C   C39       1.0  0.27227  0.88228  0.14496  1.0000
  C   C40       1.0  0.11771  0.72773  0.35504  1.0000
  C   C41       1.0  0.92513  0.68290  0.80010  1.0000
  C   C42       1.0  0.31710  0.07487  0.69990  1.0000
  C   C43       1.0  0.07487  0.31710  0.19990  1.0000
  C   C44       1.0  0.68290  0.92512  0.30010  1.0000
  C   C45       1.0  0.98400  0.51054  0.81433  1.0000
  C   C46       1.0  0.48946  0.01600  0.68567  1.0000
  C   C47       1.0  0.01601  0.48945  0.18567  1.0000
  C   C48       1.0  0.51053  0.98401  0.31433  1.0000
  C   C49       1.0  0.15170  0.43473  0.80214  1.0000
  C   C50       1.0  0.56526  0.84829  0.69786  1.0000
  C   C51       1.0  0.84829  0.56527  0.19786  1.0000
  C   C52       1.0  0.43474  0.15170  0.30214  1.0000
  C   C53       1.0  0.26129  0.53093  0.77565  1.0000
  C   C54       1.0  0.46907  0.73871  0.72436  1.0000
  C   C55       1.0  0.73872  0.46907  0.22436  1.0000
  C   C56       1.0  0.53093  0.26130  0.27564  1.0000
  C   C57       1.0  0.43669  0.46340  0.76193  1.0000
  C   C58       1.0  0.53660  0.56330  0.73807  1.0000
  C   C59       1.0  0.56331  0.53660  0.23807  1.0000
  C   C60       1.0  0.46341  0.43670  0.26193  1.0000
  C   C61       1.0  0.19072  0.70412  0.76295  1.0000
  C   C62       1.0  0.29588  0.80927  0.73705  1.0000
  C   C63       1.0  0.80927  0.29589  0.23705  1.0000
  C   C64       1.0  0.70412  0.19072  0.26295  1.0000
  N   N1        1.0  0.33760  0.41064  0.00373  1.0000
  N   N2        1.0  0.58934  0.66241  0.49627  1.0000
  N   N3        1.0  0.66239  0.58935  0.99626  1.0000
  N   N4        1.0  0.41065  0.33761  0.50374  1.0000
  N   N5        1.0  0.02575  0.77643  0.77456  1.0000
  N   N6        1.0  0.22357  0.97425  0.72544  1.0000
  N   N7        1.0  0.97426  0.22357  0.22543  1.0000
  N   N8        1.0  0.77643  0.02575  0.27456  1.0000
  O   O1        1.0  0.69017  0.06552  0.80189  1.0000
  O   O2        1.0  0.93448  0.30983  0.69811  1.0000
  O   O3        1.0  0.30983  0.93448  0.19811  1.0000
  O   O4        1.0  0.06552  0.69018  0.30189  1.0000
  O   O5        1.0  0.87684  0.11118  0.85734  1.0000
  O   O6        1.0  0.88883  0.12317  0.64265  1.0000
  O   O7        1.0  0.12316  0.88882  0.14266  1.0000
  O   O8        1.0  0.11118  0.87684  0.35734  1.0000
