data_image0
_chemical_formula_structural       Mn2H44C60N8O12
_chemical_formula_sum              "Mn2 H44 C60 N8 O12"
_cell_length_a       10.4125
_cell_length_b       10.4125
_cell_length_c       12.6532
_cell_angle_alpha    108.886
_cell_angle_beta     108.886
_cell_angle_gamma    92.8029

_space_group_name_H-M_alt    "P 1"
_space_group_IT_number       1

loop_
  _space_group_symop_operation_xyz
  'x, y, z'

loop_
  _atom_site_type_symbol
  _atom_site_label
  _atom_site_symmetry_multiplicity
  _atom_site_fract_x
  _atom_site_fract_y
  _atom_site_fract_z
  _atom_site_occupancy
  Mn  Mn1       1.0  0.50852  0.49148  0.25000  1.0000
  Mn  Mn2       1.0  0.49148  0.50852  0.75000  1.0000
  H   H1        1.0  0.58225  0.82978  0.07760  1.0000
  H   H2        1.0  0.17022  0.41775  0.42240  1.0000
  H   H3        1.0  0.41775  0.17022  0.92240  1.0000
  H   H4        1.0  0.82978  0.58225  0.57760  1.0000
  H   H5        1.0  0.33915  0.90512  0.35282  1.0000
  H   H6        1.0  0.09488  0.66085  0.14718  1.0000
  H   H7        1.0  0.66085  0.09488  0.64718  1.0000
  H   H8        1.0  0.90512  0.33915  0.85282  1.0000
  H   H9        1.0  0.16675  0.05258  0.38901  1.0000
  H   H10       1.0  0.94742  0.83325  0.11099  1.0000
  H   H11       1.0  0.83325  0.94742  0.61099  1.0000
  H   H12       1.0  0.05258  0.16675  0.88901  1.0000
  H   H13       1.0  0.08638  0.19838  0.26654  1.0000
  H   H14       1.0  0.80162  0.91362  0.23346  1.0000
  H   H15       1.0  0.91362  0.80162  0.73345  1.0000
  H   H16       1.0  0.19837  0.08638  0.76655  1.0000
  H   H17       1.0  0.17964  0.19995  0.11126  1.0000
  H   H18       1.0  0.80005  0.82036  0.38874  1.0000
  H   H19       1.0  0.82036  0.80005  0.88874  1.0000
  H   H20       1.0  0.19995  0.17964  0.61126  1.0000
  H   H21       1.0  0.84225  0.14874  0.33197  1.0000
  H   H22       1.0  0.85126  0.15775  0.16803  1.0000
  H   H23       1.0  0.15775  0.85126  0.66803  1.0000
  H   H24       1.0  0.14874  0.84225  0.83197  1.0000
  H   H25       1.0  0.75754  0.08515  0.47425  1.0000
  H   H26       1.0  0.91485  0.24246  0.02575  1.0000
  H   H27       1.0  0.24246  0.91485  0.52574  1.0000
  H   H28       1.0  0.08515  0.75754  0.97425  1.0000
  H   H29       1.0  0.55822  0.18733  0.52014  1.0000
  H   H30       1.0  0.81267  0.44178  0.97986  1.0000
  H   H31       1.0  0.44177  0.81266  0.47986  1.0000
  H   H32       1.0  0.18733  0.55822  0.02014  1.0000
  H   H33       1.0  0.45535  0.34911  0.42225  1.0000
  H   H34       1.0  0.65090  0.54465  0.07775  1.0000
  H   H35       1.0  0.54465  0.65089  0.57774  1.0000
  H   H36       1.0  0.34911  0.45535  0.92225  1.0000
  H   H37       1.0  0.63109  0.72576  0.41710  1.0000
  H   H38       1.0  0.27424  0.36891  0.08290  1.0000
  H   H39       1.0  0.36891  0.27424  0.58290  1.0000
  H   H40       1.0  0.72576  0.63109  0.91710  1.0000
  H   H41       1.0  0.75298  0.63669  0.43637  1.0000
  H   H42       1.0  0.36331  0.24702  0.06363  1.0000
  H   H43       1.0  0.24702  0.36331  0.56363  1.0000
  H   H44       1.0  0.63669  0.75298  0.93637  1.0000
  C   C1        1.0  0.46868  0.99101  0.04299  1.0000
  C   C2        1.0  0.00899  0.53132  0.45701  1.0000
  C   C3        1.0  0.53132  0.00899  0.95701  1.0000
  C   C4        1.0  0.99101  0.46868  0.54299  1.0000
  C   C5        1.0  0.50943  0.89490  0.10010  1.0000
  C   C6        1.0  0.10510  0.49057  0.39990  1.0000
  C   C7        1.0  0.49057  0.10510  0.89990  1.0000
  C   C8        1.0  0.89490  0.50943  0.60010  1.0000
  C   C9        1.0  0.45850  0.88516  0.18570  1.0000
  C   C10       1.0  0.11485  0.54150  0.31430  1.0000
  C   C11       1.0  0.54150  0.11485  0.81430  1.0000
  C   C12       1.0  0.88515  0.45850  0.68570  1.0000
  C   C13       1.0  0.36014  0.96839  0.21170  1.0000
  C   C14       1.0  0.03161  0.63986  0.28830  1.0000
  C   C15       1.0  0.63986  0.03161  0.78830  1.0000
  C   C16       1.0  0.96839  0.36014  0.71170  1.0000
  C   C17       1.0  0.30392  0.96917  0.29990  1.0000
  C   C18       1.0  0.03083  0.69608  0.20010  1.0000
  C   C19       1.0  0.69608  0.03084  0.70010  1.0000
  C   C20       1.0  0.96917  0.30392  0.79990  1.0000
  C   C21       1.0  0.20821  0.05153  0.31997  1.0000
  C   C22       1.0  0.94847  0.79179  0.18003  1.0000
  C   C23       1.0  0.79179  0.94847  0.68003  1.0000
  C   C24       1.0  0.05154  0.20821  0.81997  1.0000
  C   C25       1.0  0.16230  0.13371  0.25037  1.0000
  C   C26       1.0  0.86629  0.83770  0.24963  1.0000
  C   C27       1.0  0.83770  0.86629  0.74963  1.0000
  C   C28       1.0  0.13371  0.16230  0.75037  1.0000
  C   C29       1.0  0.21448  0.13492  0.16340  1.0000
  C   C30       1.0  0.86507  0.78552  0.33660  1.0000
  C   C31       1.0  0.78552  0.86507  0.83660  1.0000
  C   C32       1.0  0.13492  0.21448  0.66340  1.0000
  C   C33       1.0  0.31716  0.05545  0.14371  1.0000
  C   C34       1.0  0.94455  0.68284  0.35629  1.0000
  C   C35       1.0  0.68284  0.94455  0.85629  1.0000
  C   C36       1.0  0.05545  0.31716  0.64371  1.0000
  C   C37       1.0  0.50876  0.79000  0.25259  1.0000
  C   C38       1.0  0.21000  0.49124  0.24741  1.0000
  C   C39       1.0  0.49124  0.21000  0.74741  1.0000
  C   C40       1.0  0.78999  0.50876  0.75259  1.0000
  C   C41       1.0  0.68660  0.27485  0.29493  1.0000
  C   C42       1.0  0.72516  0.31340  0.20507  1.0000
  C   C43       1.0  0.31340  0.72516  0.70507  1.0000
  C   C44       1.0  0.27485  0.68660  0.79493  1.0000
  C   C45       1.0  0.75385  0.18806  0.35051  1.0000
  C   C46       1.0  0.81194  0.24615  0.14949  1.0000
  C   C47       1.0  0.24615  0.81194  0.64949  1.0000
  C   C48       1.0  0.18806  0.75386  0.85051  1.0000
  C   C49       1.0  0.70817  0.15468  0.43193  1.0000
  C   C50       1.0  0.84532  0.29182  0.06807  1.0000
  C   C51       1.0  0.29183  0.84532  0.56807  1.0000
  C   C52       1.0  0.15468  0.70817  0.93193  1.0000
  C   C53       1.0  0.59865  0.21100  0.45809  1.0000
  C   C54       1.0  0.78901  0.40135  0.04191  1.0000
  C   C55       1.0  0.40134  0.78900  0.54191  1.0000
  C   C56       1.0  0.21100  0.59865  0.95809  1.0000
  C   C57       1.0  0.53947  0.30039  0.40254  1.0000
  C   C58       1.0  0.69961  0.46053  0.09746  1.0000
  C   C59       1.0  0.46053  0.69961  0.59746  1.0000
  C   C60       1.0  0.30039  0.53947  0.90254  1.0000
  N   N1        1.0  0.37447  0.06838  0.06380  1.0000
  N   N2        1.0  0.93162  0.62553  0.43619  1.0000
  N   N3        1.0  0.62553  0.93162  0.93620  1.0000
  N   N4        1.0  0.06838  0.37447  0.56380  1.0000
  N   N5        1.0  0.58119  0.33023  0.32218  1.0000
  N   N6        1.0  0.66978  0.41881  0.17782  1.0000
  N   N7        1.0  0.41880  0.66977  0.67782  1.0000
  N   N8        1.0  0.33023  0.58120  0.82218  1.0000
  O   O1        1.0  0.48756  0.66215  0.19003  1.0000
  O   O2        1.0  0.33785  0.51244  0.30997  1.0000
  O   O3        1.0  0.51244  0.33785  0.80997  1.0000
  O   O4        1.0  0.66215  0.48756  0.69003  1.0000
  O   O5        1.0  0.56808  0.84529  0.36517  1.0000
  O   O6        1.0  0.15471  0.43192  0.13483  1.0000
  O   O7        1.0  0.43192  0.15471  0.63483  1.0000
  O   O8        1.0  0.84529  0.56808  0.86517  1.0000
  O   O9        1.0  0.65480  0.63751  0.42911  1.0000
  O   O10       1.0  0.36248  0.34520  0.07089  1.0000
  O   O11       1.0  0.34520  0.36249  0.57090  1.0000
  O   O12       1.0  0.63752  0.65480  0.92910  1.0000
