data_image0
_chemical_formula_structural       Cd3H18C14N10Cl6O2
_chemical_formula_sum              "Cd3 H18 C14 N10 Cl6 O2"
_cell_length_a       8.40614
_cell_length_b       8.24388
_cell_length_c       10.65
_cell_angle_alpha    90.4758
_cell_angle_beta     92.6799
_cell_angle_gamma    106.468

_space_group_name_H-M_alt    "P 1"
_space_group_IT_number       1

loop_
  _space_group_symop_operation_xyz
  'x, y, z'

loop_
  _atom_site_type_symbol
  _atom_site_label
  _atom_site_symmetry_multiplicity
  _atom_site_fract_x
  _atom_site_fract_y
  _atom_site_fract_z
  _atom_site_occupancy
  Cd  Cd1       1.0  0.50000  0.50000  0.50000  1.0000
  Cd  Cd2       1.0  0.53423  0.56253  0.83665  1.0000
  Cd  Cd3       1.0  0.46577  0.43747  0.16335  1.0000
  H   H1        1.0  0.02814  0.79297  0.61082  1.0000
  H   H2        1.0  0.97184  0.20703  0.38917  1.0000
  H   H3        1.0  0.92292  0.61935  0.41518  1.0000
  H   H4        1.0  0.07708  0.38065  0.58481  1.0000
  H   H5        1.0  0.28679  0.93592  0.20607  1.0000
  H   H6        1.0  0.71324  0.06407  0.79393  1.0000
  H   H7        1.0  0.40814  0.12061  0.39265  1.0000
  H   H8        1.0  0.59186  0.87939  0.60736  1.0000
  H   H9        1.0  0.93993  0.55658  0.21645  1.0000
  H   H10       1.0  0.06008  0.44342  0.78354  1.0000
  H   H11       1.0  0.12808  0.64834  0.13821  1.0000
  H   H12       1.0  0.87193  0.35167  0.86178  1.0000
  H   H13       1.0  0.96399  0.74838  0.13353  1.0000
  H   H14       1.0  0.03601  0.25163  0.86647  1.0000
  H   H15       1.0  0.82818  0.81061  0.90389  1.0000
  H   H16       1.0  0.17183  0.18938  0.09611  1.0000
  H   H17       1.0  0.71167  0.83119  0.01278  1.0000
  H   H18       1.0  0.28833  0.16881  0.98722  1.0000
  C   C1        1.0  0.28013  0.08021  0.63040  1.0000
  C   C2        1.0  0.71987  0.91979  0.36960  1.0000
  C   C3        1.0  0.22448  0.97469  0.51775  1.0000
  C   C4        1.0  0.77551  0.02532  0.48225  1.0000
  C   C5        1.0  0.08904  0.82932  0.52332  1.0000
  C   C6        1.0  0.91094  0.17068  0.47668  1.0000
  C   C7        1.0  0.02944  0.73165  0.41638  1.0000
  C   C8        1.0  0.97055  0.26835  0.58362  1.0000
  C   C9        1.0  0.23605  0.90959  0.29832  1.0000
  C   C10       1.0  0.76396  0.09040  0.70168  1.0000
  C   C11       1.0  0.29996  0.01212  0.40263  1.0000
  C   C12       1.0  0.70004  0.98788  0.59738  1.0000
  C   C13       1.0  0.02893  0.67471  0.19071  1.0000
  C   C14       1.0  0.97107  0.32530  0.80928  1.0000
  N   N1        1.0  0.38659  0.23836  0.63577  1.0000
  N   N2        1.0  0.61340  0.76164  0.36423  1.0000
  N   N3        1.0  0.39867  0.28404  0.75689  1.0000
  N   N4        1.0  0.60133  0.71597  0.24311  1.0000
  N   N5        1.0  0.30396  0.16020  0.82264  1.0000
  N   N6        1.0  0.69604  0.83981  0.17737  1.0000
  N   N7        1.0  0.22708  0.03099  0.74590  1.0000
  N   N8        1.0  0.77291  0.96901  0.25411  1.0000
  N   N9        1.0  0.10125  0.77369  0.30547  1.0000
  N   N10       1.0  0.89875  0.22630  0.69453  1.0000
  Cl  Cl1       1.0  0.34769  0.64405  0.65165  1.0000
  Cl  Cl2       1.0  0.65231  0.35595  0.34835  1.0000
  Cl  Cl3       1.0  0.75335  0.58289  0.66549  1.0000
  Cl  Cl4       1.0  0.24664  0.41710  0.33451  1.0000
  Cl  Cl5       1.0  0.31713  0.58363  0.99279  1.0000
  Cl  Cl6       1.0  0.68287  0.41637  0.00721  1.0000
  O   O1        1.0  0.71977  0.82614  0.91854  1.0000
  O   O2        1.0  0.28023  0.17386  0.08146  1.0000
