data_image0
_chemical_formula_structural       Co6H36C24O20
_chemical_formula_sum              "Co6 H36 C24 O20"
_cell_length_a       5.67566
_cell_length_b       12.2012
_cell_length_c       12.0782
_cell_angle_alpha    73.2264
_cell_angle_beta     81.3429
_cell_angle_gamma    84.1126

_space_group_name_H-M_alt    "P 1"
_space_group_IT_number       1

loop_
  _space_group_symop_operation_xyz
  'x, y, z'

loop_
  _atom_site_type_symbol
  _atom_site_label
  _atom_site_symmetry_multiplicity
  _atom_site_fract_x
  _atom_site_fract_y
  _atom_site_fract_z
  _atom_site_occupancy
  Co  Co1       1.0  0.77063  0.75577  0.94791  1.0000
  Co  Co2       1.0  0.22976  0.24403  0.05200  1.0000
  Co  Co3       1.0  0.49996  0.49991  0.00007  1.0000
  Co  Co4       1.0  0.22955  0.74637  0.05156  1.0000
  Co  Co5       1.0  0.77087  0.25353  0.94846  1.0000
  Co  Co6       1.0  0.00023  0.99991  0.99997  1.0000
  H   H1        1.0  0.21173  0.72519  0.64814  1.0000
  H   H2        1.0  0.78917  0.27451  0.35178  1.0000
  H   H3        1.0  0.92245  0.73767  0.72437  1.0000
  H   H4        1.0  0.07846  0.26253  0.27539  1.0000
  H   H5        1.0  0.31305  0.56683  0.55676  1.0000
  H   H6        1.0  0.68577  0.43293  0.44286  1.0000
  H   H7        1.0  0.18327  0.43283  0.62254  1.0000
  H   H8        1.0  0.81554  0.56701  0.37752  1.0000
  H   H9        1.0  0.38047  0.48296  0.69576  1.0000
  H   H10       1.0  0.61915  0.51697  0.30379  1.0000
  H   H11       1.0  0.66903  0.64259  0.65219  1.0000
  H   H12       1.0  0.33058  0.35767  0.34828  1.0000
  H   H13       1.0  0.77948  0.52719  0.59207  1.0000
  H   H14       1.0  0.21922  0.47305  0.40829  1.0000
  H   H15       1.0  0.89876  0.66406  0.53097  1.0000
  H   H16       1.0  0.10025  0.33608  0.46923  1.0000
  H   H17       1.0  0.97231  0.09538  0.57920  1.0000
  H   H18       1.0  0.02769  0.90486  0.42064  1.0000
  H   H19       1.0  0.89353  0.95640  0.66722  1.0000
  H   H20       1.0  0.10638  0.04374  0.33230  1.0000
  H   H21       1.0  0.75402  0.02402  0.53991  1.0000
  H   H22       1.0  0.24574  0.97651  0.45974  1.0000
  H   H23       1.0  0.39255  0.25211  0.65363  1.0000
  H   H24       1.0  0.60738  0.74788  0.34686  1.0000
  H   H25       1.0  0.68408  0.26840  0.57692  1.0000
  H   H26       1.0  0.31555  0.73179  0.42327  1.0000
  H   H27       1.0  0.47415  0.19737  0.53049  1.0000
  H   H28       1.0  0.52518  0.80289  0.46980  1.0000
  H   H29       1.0  0.24724  0.06909  0.75167  1.0000
  H   H30       1.0  0.75301  0.93083  0.24846  1.0000
  H   H31       1.0  0.37217  0.98836  0.65433  1.0000
  H   H32       1.0  0.62795  0.01168  0.34569  1.0000
  H   H33       1.0  0.77610  0.82221  0.12061  1.0000
  H   H34       1.0  0.22423  0.17764  0.87930  1.0000
  H   H35       1.0  0.58318  0.61836  0.12544  1.0000
  H   H36       1.0  0.41712  0.38161  0.87460  1.0000
  C   C1        1.0  0.02252  0.56913  0.69574  1.0000
  C   C2        1.0  0.97723  0.43087  0.30426  1.0000
  C   C3        1.0  0.19334  0.65638  0.83168  1.0000
  C   C4        1.0  0.80697  0.34348  0.16828  1.0000
  C   C5        1.0  0.08286  0.67994  0.72052  1.0000
  C   C6        1.0  0.91764  0.32000  0.27936  1.0000
  C   C7        1.0  0.23819  0.50917  0.63970  1.0000
  C   C8        1.0  0.76103  0.49072  0.36009  1.0000
  C   C9        1.0  0.82957  0.60267  0.61292  1.0000
  C   C10       1.0  0.16967  0.39750  0.38735  1.0000
  C   C11       1.0  0.71815  0.11011  0.79306  1.0000
  C   C12       1.0  0.28231  0.88980  0.20690  1.0000
  C   C13       1.0  0.62559  0.09435  0.68475  1.0000
  C   C14       1.0  0.37452  0.90571  0.31523  1.0000
  C   C15       1.0  0.82415  0.03863  0.61418  1.0000
  C   C16       1.0  0.17579  0.96163  0.38556  1.0000
  C   C17       1.0  0.53827  0.20996  0.60722  1.0000
  C   C18       1.0  0.46147  0.79017  0.39303  1.0000
  C   C19       1.0  0.40711  0.01845  0.72763  1.0000
  C   C20       1.0  0.59314  0.98151  0.27241  1.0000
  C   C21       1.0  0.44270  0.91502  0.82924  1.0000
  C   C22       1.0  0.55773  0.08491  0.17074  1.0000
  C   C23       1.0  0.91286  0.48632  0.81003  1.0000
  C   C24       1.0  0.08715  0.51373  0.19008  1.0000
  O   O1        1.0  0.86705  0.03294  0.84242  1.0000
  O   O2        1.0  0.13330  0.96690  0.15752  1.0000
  O   O3        1.0  0.36326  0.58206  0.84858  1.0000
  O   O4        1.0  0.63663  0.41758  0.15151  1.0000
  O   O5        1.0  0.11018  0.71585  0.90468  1.0000
  O   O6        1.0  0.89035  0.28410  0.09521  1.0000
  O   O7        1.0  0.60449  0.83804  0.81349  1.0000
  O   O8        1.0  0.39595  0.16190  0.18642  1.0000
  O   O9        1.0  0.81797  0.52890  0.89193  1.0000
  O   O10       1.0  0.18183  0.47128  0.10806  1.0000
  O   O11       1.0  0.92135  0.38054  0.81401  1.0000
  O   O12       1.0  0.07899  0.61950  0.18621  1.0000
  O   O13       1.0  0.63580  0.19800  0.82640  1.0000
  O   O14       1.0  0.36484  0.80189  0.17366  1.0000
  O   O15       1.0  0.31609  0.90809  0.92786  1.0000
  O   O16       1.0  0.68436  0.09180  0.07214  1.0000
  O   O17       1.0  0.88396  0.83821  0.04750  1.0000
  O   O18       1.0  0.11641  0.16162  0.95243  1.0000
  O   O19       1.0  0.54498  0.64683  0.04540  1.0000
  O   O20       1.0  0.45532  0.35305  0.95464  1.0000
