data_image0
_chemical_formula_structural       Al2Ag2H36C38S2N6O18F6
_chemical_formula_sum              "Al2 Ag2 H36 C38 S2 N6 O18 F6"
_cell_length_a       10.2669
_cell_length_b       12.1979
_cell_length_c       13.4208
_cell_angle_alpha    114.44
_cell_angle_beta     107.034
_cell_angle_gamma    93.6998

_space_group_name_H-M_alt    "P 1"
_space_group_IT_number       1

loop_
  _space_group_symop_operation_xyz
  'x, y, z'

loop_
  _atom_site_type_symbol
  _atom_site_label
  _atom_site_symmetry_multiplicity
  _atom_site_fract_x
  _atom_site_fract_y
  _atom_site_fract_z
  _atom_site_occupancy
  Al  Al1       1.0  0.43266  0.66216  0.76709  1.0000
  Al  Al2       1.0  0.56734  0.33784  0.23292  1.0000
  Ag  Ag1       1.0  0.07255  0.95457  0.36532  1.0000
  Ag  Ag2       1.0  0.92745  0.04541  0.63468  1.0000
  H   H1        1.0  0.97561  0.63088  0.51768  1.0000
  H   H2        1.0  0.02438  0.36911  0.48232  1.0000
  H   H3        1.0  0.98680  0.77496  0.63229  1.0000
  H   H4        1.0  0.01320  0.22503  0.36771  1.0000
  H   H5        1.0  0.98879  0.64137  0.65787  1.0000
  H   H6        1.0  0.01120  0.35863  0.34212  1.0000
  H   H7        1.0  0.57548  0.92333  0.65574  1.0000
  H   H8        1.0  0.42451  0.07666  0.34425  1.0000
  H   H9        1.0  0.41368  0.96330  0.60328  1.0000
  H   H10       1.0  0.58632  0.03670  0.39671  1.0000
  H   H11       1.0  0.45054  0.82612  0.51163  1.0000
  H   H12       1.0  0.54946  0.17388  0.48835  1.0000
  H   H13       1.0  0.32137  0.40609  0.89093  1.0000
  H   H14       1.0  0.67864  0.59391  0.10908  1.0000
  H   H15       1.0  0.37757  0.28116  0.79465  1.0000
  H   H16       1.0  0.62243  0.71884  0.20535  1.0000
  H   H17       1.0  0.20005  0.29047  0.75208  1.0000
  H   H18       1.0  0.79996  0.70953  0.24792  1.0000
  H   H19       1.0  0.26653  0.41474  0.39134  1.0000
  H   H20       1.0  0.73347  0.58527  0.60866  1.0000
  H   H21       1.0  0.27555  0.26700  0.38935  1.0000
  H   H22       1.0  0.72445  0.73301  0.61066  1.0000
  H   H23       1.0  0.42802  0.37320  0.42168  1.0000
  H   H24       1.0  0.57198  0.62681  0.57832  1.0000
  H   H25       1.0  0.85851  0.61256  0.84192  1.0000
  H   H26       1.0  0.14148  0.38745  0.15808  1.0000
  H   H27       1.0  0.89584  0.65416  0.99300  1.0000
  H   H28       1.0  0.10416  0.34584  0.00700  1.0000
  H   H29       1.0  0.93960  0.76806  0.95319  1.0000
  H   H30       1.0  0.06040  0.23195  0.04681  1.0000
  H   H31       1.0  0.45898  0.97044  0.09214  1.0000
  H   H32       1.0  0.54103  0.02956  0.90787  1.0000
  H   H33       1.0  0.64180  0.99981  0.17446  1.0000
  H   H34       1.0  0.35821  0.00020  0.82556  1.0000
  H   H35       1.0  0.52064  0.88298  0.16680  1.0000
  H   H36       1.0  0.47936  0.11703  0.83321  1.0000
  C   C1        1.0  0.02315  0.68814  0.61292  1.0000
  C   C2        1.0  0.97685  0.31186  0.38708  1.0000
  C   C3        1.0  0.17893  0.71144  0.65037  1.0000
  C   C4        1.0  0.82106  0.28855  0.34962  1.0000
  C   C5        1.0  0.24945  0.77762  0.60840  1.0000
  C   C6        1.0  0.75056  0.22237  0.39159  1.0000
  C   C7        1.0  0.39832  0.81284  0.64731  1.0000
  C   C8        1.0  0.60168  0.18716  0.35269  1.0000
  C   C9        1.0  0.46441  0.88680  0.60358  1.0000
  C   C10       1.0  0.53559  0.11320  0.39641  1.0000
  C   C11       1.0  0.16706  0.81574  0.52964  1.0000
  C   C12       1.0  0.83294  0.18424  0.47036  1.0000
  C   C13       1.0  0.30710  0.34604  0.79976  1.0000
  C   C14       1.0  0.69291  0.65396  0.20024  1.0000
  C   C15       1.0  0.34015  0.42130  0.74324  1.0000
  C   C16       1.0  0.65984  0.57870  0.25676  1.0000
  C   C17       1.0  0.31843  0.36242  0.62068  1.0000
  C   C18       1.0  0.68156  0.63758  0.37932  1.0000
  C   C19       1.0  0.35102  0.42698  0.56082  1.0000
  C   C20       1.0  0.64897  0.57302  0.43918  1.0000
  C   C21       1.0  0.32695  0.36440  0.43319  1.0000
  C   C22       1.0  0.67305  0.63561  0.56681  1.0000
  C   C23       1.0  0.26266  0.23479  0.55522  1.0000
  C   C24       1.0  0.73734  0.76521  0.44478  1.0000
  C   C25       1.0  0.86149  0.68527  0.92538  1.0000
  C   C26       1.0  0.13851  0.31474  0.07462  1.0000
  C   C27       1.0  0.71996  0.71389  0.91418  1.0000
  C   C28       1.0  0.28004  0.28612  0.08582  1.0000
  C   C29       1.0  0.69676  0.80396  0.01362  1.0000
  C   C30       1.0  0.30325  0.19605  0.98638  1.0000
  C   C31       1.0  0.56408  0.83531  0.01007  1.0000
  C   C32       1.0  0.43592  0.16469  0.98993  1.0000
  C   C33       1.0  0.54637  0.92875  0.11695  1.0000
  C   C34       1.0  0.45364  0.07126  0.88306  1.0000
  C   C35       1.0  0.80974  0.86369  0.12024  1.0000
  C   C36       1.0  0.19026  0.13630  0.87976  1.0000
  C   C37       1.0  0.25612  0.64852  0.10286  1.0000
  C   C38       1.0  0.74388  0.35147  0.89714  1.0000
  S   S1        1.0  0.32353  0.76694  0.25962  1.0000
  S   S2        1.0  0.67647  0.23305  0.74037  1.0000
  N   N1        1.0  0.09558  0.84668  0.46506  1.0000
  N   N2        1.0  0.90442  0.15331  0.53492  1.0000
  N   N3        1.0  0.21419  0.12980  0.49581  1.0000
  N   N4        1.0  0.78581  0.87019  0.50419  1.0000
  N   N5        1.0  0.90351  0.91314  0.20895  1.0000
  N   N6        1.0  0.09649  0.08686  0.79105  1.0000
  O   O1        1.0  0.24218  0.67049  0.72032  1.0000
  O   O2        1.0  0.75782  0.32951  0.27968  1.0000
  O   O3        1.0  0.47761  0.78191  0.71983  1.0000
  O   O4        1.0  0.52238  0.21810  0.28018  1.0000
  O   O5        1.0  0.38755  0.53670  0.80675  1.0000
  O   O6        1.0  0.61246  0.46330  0.19325  1.0000
  O   O7        1.0  0.40310  0.54275  0.61350  1.0000
  O   O8        1.0  0.59691  0.45725  0.38651  1.0000
  O   O9        1.0  0.62343  0.65590  0.81468  1.0000
  O   O10       1.0  0.37657  0.34411  0.18533  1.0000
  O   O11       1.0  0.45661  0.78436  0.91721  1.0000
  O   O12       1.0  0.54339  0.21564  0.08280  1.0000
  O   O13       1.0  0.30152  0.69736  0.32112  1.0000
  O   O14       1.0  0.69848  0.30264  0.67888  1.0000
  O   O15       1.0  0.46943  0.80996  0.27939  1.0000
  O   O16       1.0  0.53057  0.19002  0.72059  1.0000
  O   O17       1.0  0.23698  0.85770  0.25917  1.0000
  O   O18       1.0  0.76302  0.14230  0.74083  1.0000
  F   F1        1.0  0.26372  0.69871  0.03075  1.0000
  F   F2        1.0  0.73630  0.30129  0.96925  1.0000
  F   F3        1.0  0.33188  0.55839  0.08514  1.0000
  F   F4        1.0  0.66813  0.44160  0.91487  1.0000
  F   F5        1.0  0.12072  0.59260  0.06858  1.0000
  F   F6        1.0  0.87929  0.40739  0.93141  1.0000
