data_image0
_chemical_formula_structural       CuH20C26N6O14
_chemical_formula_sum              "Cu1 H20 C26 N6 O14"
_cell_length_a       7.66449
_cell_length_b       8.21811
_cell_length_c       12.3442
_cell_angle_alpha    87.2506
_cell_angle_beta     71.6566
_cell_angle_gamma    65.9398

_space_group_name_H-M_alt    "P 1"
_space_group_IT_number       1

loop_
  _space_group_symop_operation_xyz
  'x, y, z'

loop_
  _atom_site_type_symbol
  _atom_site_label
  _atom_site_symmetry_multiplicity
  _atom_site_fract_x
  _atom_site_fract_y
  _atom_site_fract_z
  _atom_site_occupancy
  Cu  Cu1       1.0  1.00000  1.00000  0.00000  1.0000
  H   H1        1.0  0.59758  0.45181  0.76707  1.0000
  H   H2        1.0  0.40242  0.54819  0.23293  1.0000
  H   H3        1.0  0.67992  0.82778  0.09506  1.0000
  H   H4        1.0  0.32007  0.17223  0.90493  1.0000
  H   H5        1.0  0.35952  0.92815  0.07272  1.0000
  H   H6        1.0  0.64048  0.07185  0.92728  1.0000
  H   H7        1.0  0.83742  0.45331  0.86780  1.0000
  H   H8        1.0  0.16258  0.54668  0.13220  1.0000
  H   H9        1.0  0.18367  0.87112  0.52982  1.0000
  H   H10       1.0  0.81634  0.12887  0.47018  1.0000
  H   H11       1.0  0.25253  0.69687  0.82238  1.0000
  H   H12       1.0  0.74746  0.30313  0.17762  1.0000
  H   H13       1.0  0.81783  0.59040  0.07382  1.0000
  H   H14       1.0  0.18216  0.40961  0.92619  1.0000
  H   H15       1.0  0.12603  0.30529  0.74091  1.0000
  H   H16       1.0  0.87397  0.69472  0.25909  1.0000
  H   H17       1.0  0.36164  0.28565  0.37267  1.0000
  H   H18       1.0  0.63836  0.71435  0.62734  1.0000
  H   H19       1.0  0.90797  0.78602  0.88163  1.0000
  H   H20       1.0  0.09204  0.21398  0.11837  1.0000
  C   C1        1.0  0.61966  0.69713  0.97369  1.0000
  C   C2        1.0  0.38034  0.30287  0.02630  1.0000
  C   C3        1.0  0.35874  0.69247  0.86475  1.0000
  C   C4        1.0  0.64125  0.30754  0.13525  1.0000
  C   C5        1.0  0.13427  0.08552  0.64729  1.0000
  C   C6        1.0  0.86574  0.91448  0.35271  1.0000
  C   C7        1.0  0.19540  0.99722  0.53888  1.0000
  C   C8        1.0  0.80461  0.00278  0.46113  1.0000
  C   C9        1.0  0.16276  0.24103  0.65696  1.0000
  C   C10       1.0  0.83724  0.75897  0.34304  1.0000
  C   C11       1.0  0.04524  0.01223  0.75546  1.0000
  C   C12       1.0  0.95477  0.98776  0.24455  1.0000
  C   C13       1.0  0.41963  0.82333  0.00320  1.0000
  C   C14       1.0  0.58037  0.17668  0.99680  1.0000
  C   C15       1.0  0.68530  0.55918  0.88853  1.0000
  C   C16       1.0  0.31469  0.44082  0.11147  1.0000
  C   C17       1.0  0.27847  0.07061  0.44257  1.0000
  C   C18       1.0  0.72153  0.92938  0.55743  1.0000
  C   C19       1.0  0.55367  0.55712  0.83321  1.0000
  C   C20       1.0  0.44633  0.44288  0.16679  1.0000
  C   C21       1.0  0.24046  0.31184  0.55846  1.0000
  C   C22       1.0  0.75953  0.68816  0.44154  1.0000
  C   C23       1.0  0.29866  0.23036  0.44917  1.0000
  C   C24       1.0  0.70134  0.76964  0.55083  1.0000
  C   C25       1.0  0.76034  0.71174  0.03047  1.0000
  C   C26       1.0  0.23966  0.28827  0.96953  1.0000
  N   N1        1.0  0.29196  0.82096  0.94998  1.0000
  N   N2        1.0  0.70804  0.17904  0.05003  1.0000
  N   N3        1.0  0.35404  0.97424  0.32827  1.0000
  N   N4        1.0  0.64597  0.02576  0.67173  1.0000
  N   N5        1.0  0.26768  0.47630  0.57119  1.0000
  N   N6        1.0  0.73232  0.52370  0.42881  1.0000
  O   O1        1.0  0.03918  0.08704  0.84665  1.0000
  O   O2        1.0  0.96082  0.91295  0.15335  1.0000
  O   O3        1.0  0.42623  0.04397  0.24499  1.0000
  O   O4        1.0  0.57377  0.95603  0.75501  1.0000
  O   O5        1.0  0.98880  0.89088  0.74900  1.0000
  O   O6        1.0  0.01121  0.10911  0.25100  1.0000
  O   O7        1.0  0.34352  0.82873  0.32259  1.0000
  O   O8        1.0  0.65648  0.17127  0.67741  1.0000
  O   O9        1.0  0.28050  0.51255  0.66358  1.0000
  O   O10       1.0  0.71950  0.48745  0.33642  1.0000
  O   O11       1.0  0.27671  0.56728  0.48794  1.0000
  O   O12       1.0  0.72328  0.43272  0.51206  1.0000
  O   O13       1.0  0.93598  0.72249  0.94870  1.0000
  O   O14       1.0  0.06402  0.27752  0.05130  1.0000
