data_image0
_chemical_formula_structural       Dy2CoH20C28O24
_chemical_formula_sum              "Dy2 Co1 H20 C28 O24"
_cell_length_a       9.18187
_cell_length_b       10.0789
_cell_length_c       11.589
_cell_angle_alpha    73.6525
_cell_angle_beta     79.4587
_cell_angle_gamma    83.1692

_space_group_name_H-M_alt    "P 1"
_space_group_IT_number       1

loop_
  _space_group_symop_operation_xyz
  'x, y, z'

loop_
  _atom_site_type_symbol
  _atom_site_label
  _atom_site_symmetry_multiplicity
  _atom_site_fract_x
  _atom_site_fract_y
  _atom_site_fract_z
  _atom_site_occupancy
  Dy  Dy1       1.0  0.90845  0.91582  0.36102  1.0000
  Dy  Dy2       1.0  0.09155  0.08418  0.63898  1.0000
  Co  Co1       1.0  0.00000  0.00000  1.00000  1.0000
  H   H1        1.0  0.78987  0.65730  0.49035  1.0000
  H   H2        1.0  0.21013  0.34270  0.50965  1.0000
  H   H3        1.0  0.73322  0.99502  0.57501  1.0000
  H   H4        1.0  0.26678  0.00498  0.42499  1.0000
  H   H5        1.0  0.25938  0.21607  0.98011  1.0000
  H   H6        1.0  0.74063  0.78393  0.01989  1.0000
  H   H7        1.0  0.56418  0.23338  0.92845  1.0000
  H   H8        1.0  0.43582  0.76662  0.07155  1.0000
  H   H9        1.0  0.84034  0.29353  0.15057  1.0000
  H   H10       1.0  0.15966  0.70647  0.84943  1.0000
  H   H11       1.0  0.84979  0.56860  0.02662  1.0000
  H   H12       1.0  0.15021  0.43140  0.97338  1.0000
  H   H13       1.0  0.49787  0.88056  0.61863  1.0000
  H   H14       1.0  0.50213  0.11944  0.38137  1.0000
  H   H15       1.0  0.66079  0.77108  0.65672  1.0000
  H   H16       1.0  0.33921  0.22892  0.34328  1.0000
  H   H17       1.0  0.52610  0.67212  0.53518  1.0000
  H   H18       1.0  0.47390  0.32788  0.46482  1.0000
  H   H19       1.0  0.53503  0.83082  0.41698  1.0000
  H   H20       1.0  0.46497  0.16918  0.58302  1.0000
  C   C1        1.0  0.17504  0.02084  0.22328  1.0000
  C   C2        1.0  0.82496  0.97916  0.77672  1.0000
  C   C3        1.0  0.31302  0.07495  0.15014  1.0000
  C   C4        1.0  0.68698  0.92505  0.84986  1.0000
  C   C5        1.0  0.34289  0.16667  0.03671  1.0000
  C   C6        1.0  0.65711  0.83333  0.96329  1.0000
  C   C7        1.0  0.49872  0.17432  0.01036  1.0000
  C   C8        1.0  0.50128  0.82569  0.98964  1.0000
  C   C9        1.0  0.55553  0.08704  0.10937  1.0000
  C   C10       1.0  0.44447  0.91296  0.89063  1.0000
  C   C11       1.0  0.70915  0.04198  0.12942  1.0000
  C   C12       1.0  0.29085  0.95802  0.87058  1.0000
  C   C13       1.0  0.96949  0.72668  0.17196  1.0000
  C   C14       1.0  0.03051  0.27332  0.82804  1.0000
  C   C15       1.0  0.95604  0.23967  0.38649  1.0000
  C   C16       1.0  0.04396  0.76033  0.61351  1.0000
  C   C17       1.0  0.92977  0.36184  0.28613  1.0000
  C   C18       1.0  0.07023  0.63816  0.71387  1.0000
  C   C19       1.0  0.87496  0.37662  0.17959  1.0000
  C   C20       1.0  0.12504  0.62339  0.82041  1.0000
  C   C21       1.0  0.88146  0.51846  0.11511  1.0000
  C   C22       1.0  0.11855  0.48155  0.88489  1.0000
  C   C23       1.0  0.93964  0.58204  0.18596  1.0000
  C   C24       1.0  0.06036  0.41796  0.81404  1.0000
  C   C25       1.0  0.60772  0.84020  0.58122  1.0000
  C   C26       1.0  0.39228  0.15980  0.41878  1.0000
  C   C27       1.0  0.59102  0.76296  0.49035  1.0000
  C   C28       1.0  0.40898  0.23703  0.50965  1.0000
  O   O1        1.0  0.17268  0.95327  0.33587  1.0000
  O   O2        1.0  0.82732  0.04673  0.66413  1.0000
  O   O3        1.0  0.05673  0.04259  0.17533  1.0000
  O   O4        1.0  0.94328  0.95741  0.82467  1.0000
  O   O5        1.0  0.44295  0.02705  0.19632  1.0000
  O   O6        1.0  0.55705  0.97295  0.80368  1.0000
  O   O7        1.0  0.73468  0.97567  0.23528  1.0000
  O   O8        1.0  0.26532  0.02433  0.76472  1.0000
  O   O9        1.0  0.80323  0.07424  0.03178  1.0000
  O   O10       1.0  0.19678  0.92576  0.96822  1.0000
  O   O11       1.0  0.94797  0.81081  0.06988  1.0000
  O   O12       1.0  0.05203  0.18919  0.93012  1.0000
  O   O13       1.0  0.01022  0.75539  0.26033  1.0000
  O   O14       1.0  0.98978  0.24461  0.73967  1.0000
  O   O15       1.0  0.90336  0.12850  0.38666  1.0000
  O   O16       1.0  0.09664  0.87150  0.61334  1.0000
  O   O17       1.0  0.02957  0.25052  0.46605  1.0000
  O   O18       1.0  0.97043  0.74949  0.53394  1.0000
  O   O19       1.0  0.96944  0.48683  0.29074  1.0000
  O   O20       1.0  0.03056  0.51317  0.70926  1.0000
  O   O21       1.0  0.69974  0.95226  0.51659  1.0000
  O   O22       1.0  0.30026  0.04774  0.48341  1.0000
  O   O23       1.0  0.73490  0.72201  0.43020  1.0000
  O   O24       1.0  0.26510  0.27799  0.56980  1.0000
