data_image0
_chemical_formula_structural       Mn2H28C46N6Cl2O8
_chemical_formula_sum              "Mn2 H28 C46 N6 Cl2 O8"
_cell_length_a       8.57487
_cell_length_b       10.44
_cell_length_c       10.9064
_cell_angle_alpha    79.6095
_cell_angle_beta     88.0084
_cell_angle_gamma    79.6912

_space_group_name_H-M_alt    "P 1"
_space_group_IT_number       1

loop_
  _space_group_symop_operation_xyz
  'x, y, z'

loop_
  _atom_site_type_symbol
  _atom_site_label
  _atom_site_symmetry_multiplicity
  _atom_site_fract_x
  _atom_site_fract_y
  _atom_site_fract_z
  _atom_site_occupancy
  Mn  Mn1       1.0  0.28633  0.17613  0.21139  1.0000
  Mn  Mn2       1.0  0.71367  0.82387  0.78861  1.0000
  H   H1        1.0  0.12153  0.35051  0.38273  1.0000
  H   H2        1.0  0.87846  0.64949  0.61727  1.0000
  H   H3        1.0  0.56324  0.04190  0.41084  1.0000
  H   H4        1.0  0.43676  0.95811  0.58916  1.0000
  H   H5        1.0  0.84461  0.92623  0.41048  1.0000
  H   H6        1.0  0.15539  0.07378  0.58953  1.0000
  H   H7        1.0  0.97887  0.90749  0.20510  1.0000
  H   H8        1.0  0.02113  0.09251  0.79490  1.0000
  H   H9        1.0  0.83149  0.01655  0.00806  1.0000
  H   H10       1.0  0.16851  0.98345  0.99194  1.0000
  H   H11       1.0  0.71354  0.15753  0.86001  1.0000
  H   H12       1.0  0.28646  0.84247  0.13999  1.0000
  H   H13       1.0  0.25128  0.36729  0.73594  1.0000
  H   H14       1.0  0.74871  0.63271  0.26406  1.0000
  H   H15       1.0  0.91124  0.25062  0.22970  1.0000
  H   H16       1.0  0.08876  0.74938  0.77030  1.0000
  H   H17       1.0  0.68456  0.38333  0.09610  1.0000
  H   H18       1.0  0.31544  0.61667  0.90390  1.0000
  H   H19       1.0  0.73955  0.47140  0.87228  1.0000
  H   H20       1.0  0.26045  0.52860  0.12772  1.0000
  H   H21       1.0  0.01544  0.41837  0.78913  1.0000
  H   H22       1.0  0.98456  0.58163  0.21087  1.0000
  H   H23       1.0  0.33814  0.30388  0.56024  1.0000
  H   H24       1.0  0.66185  0.69612  0.43976  1.0000
  H   H25       1.0  0.72859  0.39036  0.32221  1.0000
  H   H26       1.0  0.27141  0.60964  0.67779  1.0000
  H   H27       1.0  0.79376  0.30435  0.71867  1.0000
  H   H28       1.0  0.20624  0.69565  0.28133  1.0000
  C   C1        1.0  0.52708  0.16489  0.99827  1.0000
  C   C2        1.0  0.47292  0.83511  0.00173  1.0000
  C   C3        1.0  0.62128  0.09014  0.10732  1.0000
  C   C4        1.0  0.37872  0.90986  0.89269  1.0000
  C   C5        1.0  0.62743  0.03469  0.32354  1.0000
  C   C6        1.0  0.37257  0.96531  0.67646  1.0000
  C   C7        1.0  0.78364  0.96912  0.32289  1.0000
  C   C8        1.0  0.21635  0.03088  0.67712  1.0000
  C   C9        1.0  0.85784  0.96061  0.20802  1.0000
  C   C10       1.0  0.14216  0.03939  0.79198  1.0000
  C   C11       1.0  0.77633  0.02202  0.09893  1.0000
  C   C12       1.0  0.22367  0.97797  0.90107  1.0000
  C   C13       1.0  0.58987  0.19426  0.87897  1.0000
  C   C14       1.0  0.41013  0.80574  0.12103  1.0000
  C   C15       1.0  0.49194  0.26955  0.78185  1.0000
  C   C16       1.0  0.50806  0.73044  0.21815  1.0000
  C   C17       1.0  0.33159  0.31050  0.80903  1.0000
  C   C18       1.0  0.66841  0.68949  0.19097  1.0000
  C   C19       1.0  0.27587  0.27690  0.93014  1.0000
  C   C20       1.0  0.72413  0.72310  0.06986  1.0000
  C   C21       1.0  0.10882  0.31224  0.96828  1.0000
  C   C22       1.0  0.89118  0.68776  0.03172  1.0000
  C   C23       1.0  0.92845  0.29122  0.13193  1.0000
  C   C24       1.0  0.07155  0.70878  0.86807  1.0000
  C   C25       1.0  0.80350  0.36406  0.05694  1.0000
  C   C26       1.0  0.19650  0.63594  0.94307  1.0000
  C   C27       1.0  0.83524  0.41225  0.93240  1.0000
  C   C28       1.0  0.16476  0.58775  0.06760  1.0000
  C   C29       1.0  0.98926  0.38458  0.88678  1.0000
  C   C30       1.0  0.01074  0.61542  0.11321  1.0000
  C   C31       1.0  0.55639  0.30365  0.65556  1.0000
  C   C32       1.0  0.44361  0.69635  0.34444  1.0000
  C   C33       1.0  0.46105  0.31879  0.54997  1.0000
  C   C34       1.0  0.53894  0.68121  0.45003  1.0000
  C   C35       1.0  0.52346  0.35063  0.43040  1.0000
  C   C36       1.0  0.47654  0.64937  0.56960  1.0000
  C   C37       1.0  0.42817  0.36195  0.31500  1.0000
  C   C38       1.0  0.57183  0.63806  0.68500  1.0000
  C   C39       1.0  0.68209  0.36578  0.41581  1.0000
  C   C40       1.0  0.31791  0.63423  0.58419  1.0000
  C   C41       1.0  0.77963  0.34670  0.51989  1.0000
  C   C42       1.0  0.22037  0.65330  0.48011  1.0000
  C   C43       1.0  0.95291  0.34853  0.50708  1.0000
  C   C44       1.0  0.04709  0.65147  0.49292  1.0000
  C   C45       1.0  0.71583  0.31714  0.63906  1.0000
  C   C46       1.0  0.28417  0.68286  0.36094  1.0000
  N   N1        1.0  0.37279  0.20596  0.02237  1.0000
  N   N2        1.0  0.62721  0.79403  0.97763  1.0000
  N   N3        1.0  0.54742  0.09326  0.21874  1.0000
  N   N4        1.0  0.45258  0.90674  0.78126  1.0000
  N   N5        1.0  0.07793  0.26789  0.08979  1.0000
  N   N6        1.0  0.92207  0.73211  0.91021  1.0000
  Cl  Cl1       1.0  0.19197  0.00883  0.34104  1.0000
  Cl  Cl2       1.0  0.80803  0.99117  0.65897  1.0000
  O   O1        1.0  0.29939  0.30871  0.32931  1.0000
  O   O2        1.0  0.70061  0.69129  0.67069  1.0000
  O   O3        1.0  0.47631  0.41303  0.21188  1.0000
  O   O4        1.0  0.52369  0.58697  0.78812  1.0000
  O   O5        1.0  0.04241  0.33426  0.59650  1.0000
  O   O6        1.0  0.95759  0.66575  0.40350  1.0000
  O   O7        1.0  0.00192  0.36333  0.38842  1.0000
  O   O8        1.0  0.99808  0.63667  0.61158  1.0000
