data_image0
_chemical_formula_structural       U2Tl2H24C42I6O16
_chemical_formula_sum              "U2 Tl2 H24 C42 I6 O16"
_cell_length_a       8.02014
_cell_length_b       10.6668
_cell_length_c       15.6407
_cell_angle_alpha    74.1129
_cell_angle_beta     84.6993
_cell_angle_gamma    77.9661

_space_group_name_H-M_alt    "P 1"
_space_group_IT_number       1

loop_
  _space_group_symop_operation_xyz
  'x, y, z'

loop_
  _atom_site_type_symbol
  _atom_site_label
  _atom_site_symmetry_multiplicity
  _atom_site_fract_x
  _atom_site_fract_y
  _atom_site_fract_z
  _atom_site_occupancy
  U   U1        1.0  0.17158  0.48240  0.19772  1.0000
  U   U2        1.0  0.82842  0.51760  0.80229  1.0000
  Tl  Tl1       1.0  0.66404  0.57908  0.06659  1.0000
  Tl  Tl2       1.0  0.33596  0.42092  0.93341  1.0000
  H   H1        1.0  0.85122  0.82181  0.93339  1.0000
  H   H2        1.0  0.14878  0.17820  0.06659  1.0000
  H   H3        1.0  0.64750  0.30486  0.16979  1.0000
  H   H4        1.0  0.35250  0.69515  0.83021  1.0000
  H   H5        1.0  0.44315  0.15365  0.22432  1.0000
  H   H6        1.0  0.55685  0.84636  0.77568  1.0000
  H   H7        1.0  0.96102  0.09735  0.39413  1.0000
  H   H8        1.0  0.03897  0.90264  0.60587  1.0000
  H   H9        1.0  0.05410  0.16595  0.78458  1.0000
  H   H10       1.0  0.94592  0.83406  0.21541  1.0000
  H   H11       1.0  0.64822  0.63706  0.29353  1.0000
  H   H12       1.0  0.35179  0.36293  0.70647  1.0000
  H   H13       1.0  0.52596  0.27187  0.46161  1.0000
  H   H14       1.0  0.47403  0.72812  0.53839  1.0000
  H   H15       1.0  0.84475  0.64239  0.40604  1.0000
  H   H16       1.0  0.15525  0.35759  0.59397  1.0000
  H   H17       1.0  0.88244  0.46256  0.54683  1.0000
  H   H18       1.0  0.11755  0.53743  0.45318  1.0000
  H   H19       1.0  0.35219  0.86166  0.98613  1.0000
  H   H20       1.0  0.64780  0.13835  0.01388  1.0000
  H   H21       1.0  0.82080  0.03752  0.81756  1.0000
  H   H22       1.0  0.17922  0.96249  0.18244  1.0000
  H   H23       1.0  0.49763  0.97058  0.36230  1.0000
  H   H24       1.0  0.50237  0.02942  0.63769  1.0000
  C   C1        1.0  0.95395  0.87798  0.91917  1.0000
  C   C2        1.0  0.04605  0.12203  0.08082  1.0000
  C   C3        1.0  0.57451  0.45525  0.37149  1.0000
  C   C4        1.0  0.42551  0.54475  0.62850  1.0000
  C   C5        1.0  0.21827  0.01992  0.88274  1.0000
  C   C6        1.0  0.78174  0.98009  0.11727  1.0000
  C   C7        1.0  0.67216  0.22529  0.23046  1.0000
  C   C8        1.0  0.32784  0.77471  0.76953  1.0000
  C   C9        1.0  0.55780  0.13950  0.26083  1.0000
  C   C10       1.0  0.44219  0.86050  0.73916  1.0000
  C   C11       1.0  0.81731  0.21012  0.27843  1.0000
  C   C12       1.0  0.18268  0.78988  0.72157  1.0000
  C   C13       1.0  0.44619  0.45852  0.30842  1.0000
  C   C14       1.0  0.55381  0.54147  0.69158  1.0000
  C   C15       1.0  0.84877  0.10723  0.35679  1.0000
  C   C16       1.0  0.15123  0.89276  0.64321  1.0000
  C   C17       1.0  0.06948  0.07109  0.83494  1.0000
  C   C18       1.0  0.93053  0.92892  0.16506  1.0000
  C   C19       1.0  0.10352  0.82918  0.96697  1.0000
  C   C20       1.0  0.89647  0.17084  0.03302  1.0000
  C   C21       1.0  0.66669  0.55794  0.35478  1.0000
  C   C22       1.0  0.33332  0.44205  0.64523  1.0000
  C   C23       1.0  0.71248  0.35413  0.51050  1.0000
  C   C24       1.0  0.28751  0.64587  0.48951  1.0000
  C   C25       1.0  0.59779  0.35154  0.44978  1.0000
  C   C26       1.0  0.40220  0.64845  0.55023  1.0000
  C   C27       1.0  0.12625  0.70365  0.03908  1.0000
  C   C28       1.0  0.87374  0.29636  0.96093  1.0000
  C   C29       1.0  0.73361  0.02168  0.38597  1.0000
  C   C30       1.0  0.26637  0.97832  0.61402  1.0000
  C   C31       1.0  0.77708  0.56033  0.41770  1.0000
  C   C32       1.0  0.22293  0.43966  0.58231  1.0000
  C   C33       1.0  0.93670  0.30364  0.24952  1.0000
  C   C34       1.0  0.06330  0.69636  0.75049  1.0000
  C   C35       1.0  0.79980  0.45908  0.49645  1.0000
  C   C36       1.0  0.20019  0.54091  0.50356  1.0000
  C   C37       1.0  0.23674  0.90052  0.94838  1.0000
  C   C38       1.0  0.76326  0.09949  0.05162  1.0000
  C   C39       1.0  0.93806  0.99835  0.85406  1.0000
  C   C40       1.0  0.06195  0.00167  0.14593  1.0000
  C   C41       1.0  0.58781  0.03718  0.33853  1.0000
  C   C42       1.0  0.41218  0.96281  0.66146  1.0000
  I   I1        1.0  0.75770  0.19695  0.62657  1.0000
  I   I2        1.0  0.24227  0.80305  0.37345  1.0000
  I   I3        1.0  0.77146  0.86998  0.50513  1.0000
  I   I4        1.0  0.22852  0.13002  0.49486  1.0000
  I   I5        1.0  0.42445  0.12121  0.85400  1.0000
  I   I6        1.0  0.57557  0.87878  0.14601  1.0000
  O   O1        1.0  0.91264  0.40107  0.17863  1.0000
  O   O2        1.0  0.08736  0.59893  0.82137  1.0000
  O   O3        1.0  0.06764  0.29055  0.29433  1.0000
  O   O4        1.0  0.93235  0.70945  0.70567  1.0000
  O   O5        1.0  0.33492  0.38387  0.33105  1.0000
  O   O6        1.0  0.66509  0.61611  0.66894  1.0000
  O   O7        1.0  0.29533  0.37360  0.13254  1.0000
  O   O8        1.0  0.70465  0.62641  0.86746  1.0000
  O   O9        1.0  0.01131  0.63225  0.06122  1.0000
  O   O10       1.0  0.98867  0.36777  0.93878  1.0000
  O   O11       1.0  0.04634  0.59747  0.25577  1.0000
  O   O12       1.0  0.95368  0.40252  0.74424  1.0000
  O   O13       1.0  0.26531  0.66615  0.08163  1.0000
  O   O14       1.0  0.73468  0.33385  0.91838  1.0000
  O   O15       1.0  0.43942  0.53962  0.23006  1.0000
  O   O16       1.0  0.56058  0.46039  0.76994  1.0000
