data_image0
_chemical_formula_structural       Rb2U2H24C42I6O16
_chemical_formula_sum              "Rb2 U2 H24 C42 I6 O16"
_cell_length_a       7.89041
_cell_length_b       10.797
_cell_length_c       15.5846
_cell_angle_alpha    74.1164
_cell_angle_beta     83.9537
_cell_angle_gamma    78.0195

_space_group_name_H-M_alt    "P 1"
_space_group_IT_number       1

loop_
  _space_group_symop_operation_xyz
  'x, y, z'

loop_
  _atom_site_type_symbol
  _atom_site_label
  _atom_site_symmetry_multiplicity
  _atom_site_fract_x
  _atom_site_fract_y
  _atom_site_fract_z
  _atom_site_occupancy
  Rb  Rb1       1.0  0.67230  0.57785  0.06626  1.0000
  Rb  Rb2       1.0  0.32770  0.42214  0.93374  1.0000
  U   U1        1.0  0.18053  0.47872  0.19322  1.0000
  U   U2        1.0  0.81947  0.52127  0.80678  1.0000
  H   H1        1.0  0.97048  0.09330  0.39171  1.0000
  H   H2        1.0  0.02953  0.90671  0.60828  1.0000
  H   H3        1.0  0.65079  0.29987  0.16980  1.0000
  H   H4        1.0  0.34922  0.70012  0.83021  1.0000
  H   H5        1.0  0.52805  0.27256  0.45986  1.0000
  H   H6        1.0  0.47196  0.72744  0.54014  1.0000
  H   H7        1.0  0.65572  0.63437  0.29302  1.0000
  H   H8        1.0  0.34426  0.36564  0.70697  1.0000
  H   H9        1.0  0.85311  0.81100  0.93250  1.0000
  H   H10       1.0  0.14689  0.18899  0.06750  1.0000
  H   H11       1.0  0.35353  0.86569  0.98518  1.0000
  H   H12       1.0  0.64648  0.13430  0.01482  1.0000
  H   H13       1.0  0.44266  0.14967  0.22525  1.0000
  H   H14       1.0  0.55735  0.85032  0.77476  1.0000
  H   H15       1.0  0.84680  0.64180  0.40794  1.0000
  H   H16       1.0  0.15318  0.35822  0.59205  1.0000
  H   H17       1.0  0.81101  0.02767  0.82117  1.0000
  H   H18       1.0  0.18899  0.97232  0.17883  1.0000
  H   H19       1.0  0.49743  0.96885  0.36310  1.0000
  H   H20       1.0  0.50258  0.03115  0.63691  1.0000
  H   H21       1.0  0.87870  0.46504  0.54940  1.0000
  H   H22       1.0  0.12127  0.53499  0.45060  1.0000
  H   H23       1.0  0.04075  0.16283  0.78822  1.0000
  H   H24       1.0  0.95925  0.83717  0.21178  1.0000
  C   C1        1.0  0.94487  0.29913  0.24669  1.0000
  C   C2        1.0  0.05514  0.70087  0.75331  1.0000
  C   C3        1.0  0.45322  0.45640  0.30586  1.0000
  C   C4        1.0  0.54678  0.54359  0.69414  1.0000
  C   C5        1.0  0.13581  0.69821  0.03493  1.0000
  C   C6        1.0  0.86420  0.30179  0.96506  1.0000
  C   C7        1.0  0.82407  0.20558  0.27695  1.0000
  C   C8        1.0  0.17594  0.79442  0.72305  1.0000
  C   C9        1.0  0.57968  0.45405  0.37018  1.0000
  C   C10       1.0  0.42032  0.54595  0.62982  1.0000
  C   C11       1.0  0.10580  0.82555  0.96612  1.0000
  C   C12       1.0  0.89421  0.17444  0.03388  1.0000
  C   C13       1.0  0.85595  0.10359  0.35515  1.0000
  C   C14       1.0  0.14406  0.89641  0.64485  1.0000
  C   C15       1.0  0.67599  0.22076  0.23005  1.0000
  C   C16       1.0  0.32402  0.77923  0.76995  1.0000
  C   C17       1.0  0.60020  0.35179  0.44879  1.0000
  C   C18       1.0  0.39981  0.64822  0.55121  1.0000
  C   C19       1.0  0.67208  0.55631  0.35444  1.0000
  C   C20       1.0  0.32791  0.44369  0.64555  1.0000
  C   C21       1.0  0.95311  0.87076  0.91959  1.0000
  C   C22       1.0  0.04690  0.12923  0.08041  1.0000
  C   C23       1.0  0.23586  0.90132  0.94829  1.0000
  C   C24       1.0  0.76414  0.09867  0.05171  1.0000
  C   C25       1.0  0.73784  0.01944  0.38528  1.0000
  C   C26       1.0  0.26217  0.98056  0.61473  1.0000
  C   C27       1.0  0.55941  0.13582  0.26101  1.0000
  C   C28       1.0  0.44060  0.86418  0.73899  1.0000
  C   C29       1.0  0.71201  0.35563  0.51092  1.0000
  C   C30       1.0  0.28798  0.64438  0.48908  1.0000
  C   C31       1.0  0.77947  0.55991  0.41871  1.0000
  C   C32       1.0  0.22051  0.44011  0.58129  1.0000
  C   C33       1.0  0.93111  0.99162  0.85636  1.0000
  C   C34       1.0  0.06889  0.00837  0.14364  1.0000
  C   C35       1.0  0.21198  0.02075  0.88414  1.0000
  C   C36       1.0  0.78802  0.97925  0.11586  1.0000
  C   C37       1.0  0.58953  0.03468  0.33866  1.0000
  C   C38       1.0  0.41048  0.96532  0.66134  1.0000
  C   C39       1.0  0.79900  0.46030  0.49787  1.0000
  C   C40       1.0  0.20099  0.53972  0.50212  1.0000
  C   C41       1.0  0.05999  0.06815  0.83758  1.0000
  C   C42       1.0  0.94001  0.93184  0.16242  1.0000
  I   I1        1.0  0.77313  0.87041  0.50512  1.0000
  I   I2        1.0  0.22688  0.12961  0.49489  1.0000
  I   I3        1.0  0.75232  0.20167  0.62805  1.0000
  I   I4        1.0  0.24767  0.79836  0.37196  1.0000
  I   I5        1.0  0.41576  0.12715  0.85499  1.0000
  I   I6        1.0  0.58423  0.87285  0.14501  1.0000
  O   O1        1.0  0.91826  0.39541  0.17611  1.0000
  O   O2        1.0  0.08175  0.60458  0.82388  1.0000
  O   O3        1.0  0.30942  0.37302  0.12665  1.0000
  O   O4        1.0  0.69058  0.62698  0.87335  1.0000
  O   O5        1.0  0.34036  0.38202  0.32783  1.0000
  O   O6        1.0  0.65964  0.61798  0.67217  1.0000
  O   O7        1.0  0.45008  0.53580  0.22705  1.0000
  O   O8        1.0  0.54991  0.46419  0.77295  1.0000
  O   O9        1.0  0.02021  0.62609  0.05750  1.0000
  O   O10       1.0  0.97979  0.37391  0.94251  1.0000
  O   O11       1.0  0.05207  0.59296  0.25134  1.0000
  O   O12       1.0  0.94792  0.40704  0.74866  1.0000
  O   O13       1.0  0.07840  0.28710  0.29041  1.0000
  O   O14       1.0  0.92160  0.71290  0.70959  1.0000
  O   O15       1.0  0.28059  0.65989  0.07367  1.0000
  O   O16       1.0  0.71941  0.34010  0.92632  1.0000
