data_image0
_chemical_formula_structural       Ag12H30C24N2O30
_chemical_formula_sum              "Ag12 H30 C24 N2 O30"
_cell_length_a       7.93263
_cell_length_b       10.1422
_cell_length_c       13.7253
_cell_angle_alpha    74.0858
_cell_angle_beta     81.0747
_cell_angle_gamma    67.8076

_space_group_name_H-M_alt    "P 1"
_space_group_IT_number       1

loop_
  _space_group_symop_operation_xyz
  'x, y, z'

loop_
  _atom_site_type_symbol
  _atom_site_label
  _atom_site_symmetry_multiplicity
  _atom_site_fract_x
  _atom_site_fract_y
  _atom_site_fract_z
  _atom_site_occupancy
  Ag  Ag1       1.0  0.16706  0.32522  0.99999  1.0000
  Ag  Ag2       1.0  0.83293  0.67478  0.00001  1.0000
  Ag  Ag3       1.0  0.87968  0.95020  0.94873  1.0000
  Ag  Ag4       1.0  0.12032  0.04981  0.05127  1.0000
  Ag  Ag5       1.0  0.15665  0.35235  0.67605  1.0000
  Ag  Ag6       1.0  0.84335  0.64765  0.32395  1.0000
  Ag  Ag7       1.0  0.85538  0.36247  0.45738  1.0000
  Ag  Ag8       1.0  0.14462  0.63753  0.54262  1.0000
  Ag  Ag9       1.0  0.48031  0.36224  0.56573  1.0000
  Ag  Ag10      1.0  0.51968  0.63776  0.43427  1.0000
  Ag  Ag11      1.0  0.81012  0.08721  0.54495  1.0000
  Ag  Ag12      1.0  0.18988  0.91280  0.45506  1.0000
  H   H1        1.0  0.51593  0.08942  0.08415  1.0000
  H   H2        1.0  0.48407  0.91059  0.91585  1.0000
  H   H3        1.0  0.55613  0.19772  0.98558  1.0000
  H   H4        1.0  0.44386  0.80228  0.01442  1.0000
  H   H5        1.0  0.82957  0.89446  0.15260  1.0000
  H   H6        1.0  0.17043  0.10554  0.84740  1.0000
  H   H7        1.0  0.68511  0.83395  0.13951  1.0000
  H   H8        1.0  0.31489  0.16605  0.86049  1.0000
  H   H9        1.0  0.26336  0.16561  0.53216  1.0000
  H   H10       1.0  0.73664  0.83439  0.46784  1.0000
  H   H11       1.0  0.39788  0.07114  0.62382  1.0000
  H   H12       1.0  0.60212  0.92886  0.37618  1.0000
  H   H13       1.0  0.98750  0.95289  0.71461  1.0000
  H   H14       1.0  0.01250  0.04711  0.28539  1.0000
  H   H15       1.0  0.08314  0.07222  0.64721  1.0000
  H   H16       1.0  0.91686  0.92779  0.35279  1.0000
  H   H17       1.0  0.88959  0.12874  0.71289  1.0000
  H   H18       1.0  0.11041  0.87126  0.28711  1.0000
  H   H19       1.0  0.44740  0.65259  0.91085  1.0000
  H   H20       1.0  0.55259  0.34742  0.08915  1.0000
  H   H21       1.0  0.47031  0.41331  0.93140  1.0000
  H   H22       1.0  0.52969  0.58669  0.06860  1.0000
  H   H23       1.0  0.73338  0.47656  0.89427  1.0000
  H   H24       1.0  0.26663  0.52344  0.10573  1.0000
  H   H25       1.0  0.89193  0.53247  0.74130  1.0000
  H   H26       1.0  0.10807  0.46753  0.25870  1.0000
  H   H27       1.0  0.67027  0.72112  0.80919  1.0000
  H   H28       1.0  0.32973  0.27888  0.19081  1.0000
  H   H29       1.0  0.36894  0.85152  0.77015  1.0000
  H   H30       1.0  0.63106  0.14848  0.22985  1.0000
  C   C1        1.0  0.38625  0.63459  0.85056  1.0000
  C   C2        1.0  0.61375  0.36541  0.14944  1.0000
  C   C3        1.0  0.49029  0.47081  0.85264  1.0000
  C   C4        1.0  0.50971  0.52919  0.14736  1.0000
  C   C5        1.0  0.69553  0.44522  0.83182  1.0000
  C   C6        1.0  0.30448  0.55478  0.16818  1.0000
  C   C7        1.0  0.74864  0.54744  0.73472  1.0000
  C   C8        1.0  0.25136  0.45256  0.26528  1.0000
  C   C9        1.0  0.63414  0.70670  0.73910  1.0000
  C   C10       1.0  0.36586  0.29330  0.26090  1.0000
  C   C11       1.0  0.42526  0.74150  0.75516  1.0000
  C   C12       1.0  0.57474  0.25850  0.24484  1.0000
  C   C13       1.0  0.18610  0.68101  0.88830  1.0000
  C   C14       1.0  0.81390  0.31899  0.11170  1.0000
  C   C15       1.0  0.42660  0.39927  0.78742  1.0000
  C   C16       1.0  0.57341  0.60073  0.21258  1.0000
  C   C17       1.0  0.80916  0.28197  0.85051  1.0000
  C   C18       1.0  0.19084  0.71803  0.14949  1.0000
  C   C19       1.0  0.74235  0.52009  0.63101  1.0000
  C   C20       1.0  0.25765  0.47991  0.36899  1.0000
  C   C21       1.0  0.68461  0.82344  0.65514  1.0000
  C   C22       1.0  0.31539  0.17656  0.34486  1.0000
  C   C23       1.0  0.32604  0.75503  0.66364  1.0000
  C   C24       1.0  0.67397  0.24497  0.33636  1.0000
  N   N1        1.0  0.96031  0.05625  0.66908  1.0000
  N   N2        1.0  0.03970  0.94376  0.33092  1.0000
  O   O1        1.0  0.13012  0.58999  0.95671  1.0000
  O   O2        1.0  0.86988  0.41001  0.04330  1.0000
  O   O3        1.0  0.09057  0.81528  0.85661  1.0000
  O   O4        1.0  0.90943  0.18471  0.14339  1.0000
  O   O5        1.0  0.27464  0.37817  0.81243  1.0000
  O   O6        1.0  0.72536  0.62183  0.18757  1.0000
  O   O7        1.0  0.53817  0.35461  0.71639  1.0000
  O   O8        1.0  0.46183  0.64540  0.28361  1.0000
  O   O9        1.0  0.74241  0.19521  0.91785  1.0000
  O   O10       1.0  0.25758  0.80480  0.08214  1.0000
  O   O11       1.0  0.96401  0.23724  0.80624  1.0000
  O   O12       1.0  0.03600  0.76276  0.19376  1.0000
  O   O13       1.0  0.88244  0.42859  0.59457  1.0000
  O   O14       1.0  0.11755  0.57141  0.40543  1.0000
  O   O15       1.0  0.59772  0.59590  0.58557  1.0000
  O   O16       1.0  0.40228  0.40409  0.41443  1.0000
  O   O17       1.0  0.80753  0.78278  0.58670  1.0000
  O   O18       1.0  0.19247  0.21722  0.41330  1.0000
  O   O19       1.0  0.60521  0.95521  0.66242  1.0000
  O   O20       1.0  0.39478  0.04478  0.33759  1.0000
  O   O21       1.0  0.33026  0.85889  0.58719  1.0000
  O   O22       1.0  0.66974  0.14111  0.41282  1.0000
  O   O23       1.0  0.23699  0.67015  0.67430  1.0000
  O   O24       1.0  0.76301  0.32985  0.32570  1.0000
  O   O25       1.0  0.45587  0.18372  0.03676  1.0000
  O   O26       1.0  0.54413  0.81628  0.96324  1.0000
  O   O27       1.0  0.71298  0.92495  0.11953  1.0000
  O   O28       1.0  0.28702  0.07505  0.88047  1.0000
  O   O29       1.0  0.27721  0.14923  0.60606  1.0000
  O   O30       1.0  0.72279  0.85077  0.39394  1.0000
