data_image0
_chemical_formula_structural       Ag6H26C24O28
_chemical_formula_sum              "Ag6 H26 C24 O28"
_cell_length_a       6.37776
_cell_length_b       9.48552
_cell_length_c       15.2593
_cell_angle_alpha    96.28
_cell_angle_beta     93.4938
_cell_angle_gamma    100.401

_space_group_name_H-M_alt    "P 1"
_space_group_IT_number       1

loop_
  _space_group_symop_operation_xyz
  'x, y, z'

loop_
  _atom_site_type_symbol
  _atom_site_label
  _atom_site_symmetry_multiplicity
  _atom_site_fract_x
  _atom_site_fract_y
  _atom_site_fract_z
  _atom_site_occupancy
  Ag  Ag1       1.0  0.38124  0.86000  0.00963  1.0000
  Ag  Ag2       1.0  0.61878  0.14000  0.99037  1.0000
  Ag  Ag3       1.0  0.86772  0.41394  0.43076  1.0000
  Ag  Ag4       1.0  0.13228  0.58606  0.56924  1.0000
  Ag  Ag5       1.0  0.56002  0.41764  0.56844  1.0000
  Ag  Ag6       1.0  0.43998  0.58236  0.43156  1.0000
  H   H1        1.0  0.88572  0.41761  0.83770  1.0000
  H   H2        1.0  0.11428  0.58238  0.16231  1.0000
  H   H3        1.0  0.47678  0.89483  0.56963  1.0000
  H   H4        1.0  0.52321  0.10517  0.43037  1.0000
  H   H5        1.0  0.92245  0.87654  0.89820  1.0000
  H   H6        1.0  0.07755  0.12346  0.10180  1.0000
  H   H7        1.0  0.25078  0.98535  0.73253  1.0000
  H   H8        1.0  0.74922  0.01464  0.26747  1.0000
  H   H9        1.0  0.25143  0.23386  0.74916  1.0000
  H   H10       1.0  0.74857  0.76613  0.25084  1.0000
  H   H11       1.0  0.16354  0.09413  0.61124  1.0000
  H   H12       1.0  0.83646  0.90587  0.38875  1.0000
  H   H13       1.0  0.81832  0.00336  0.53742  1.0000
  H   H14       1.0  0.18167  0.99664  0.46258  1.0000
  H   H15       1.0  0.01187  0.86239  0.61154  1.0000
  H   H16       1.0  0.98813  0.13761  0.38846  1.0000
  H   H17       1.0  0.99393  0.79213  0.75189  1.0000
  H   H18       1.0  0.00607  0.20787  0.24811  1.0000
  H   H19       1.0  0.17651  0.63171  0.87367  1.0000
  H   H20       1.0  0.82348  0.36829  0.12634  1.0000
  H   H21       1.0  0.20490  0.53538  0.94881  1.0000
  H   H22       1.0  0.79510  0.46463  0.05119  1.0000
  H   H23       1.0  0.64089  0.28383  0.23789  1.0000
  H   H24       1.0  0.35911  0.71618  0.76211  1.0000
  H   H25       1.0  0.75524  0.45199  0.25966  1.0000
  H   H26       1.0  0.24476  0.54801  0.74034  1.0000
  C   C1        1.0  0.11976  0.01733  0.76955  1.0000
  C   C2        1.0  0.88024  0.98267  0.23045  1.0000
  C   C3        1.0  0.09339  0.16281  0.73915  1.0000
  C   C4        1.0  0.90661  0.83719  0.26085  1.0000
  C   C5        1.0  0.02987  0.13922  0.63872  1.0000
  C   C6        1.0  0.97013  0.86078  0.36128  1.0000
  C   C7        1.0  0.82923  0.02396  0.61014  1.0000
  C   C8        1.0  0.17078  0.97604  0.38986  1.0000
  C   C9        1.0  0.86712  0.88185  0.64356  1.0000
  C   C10       1.0  0.13287  0.11816  0.35644  1.0000
  C   C11       1.0  0.92971  0.89054  0.74284  1.0000
  C   C12       1.0  0.07028  0.10946  0.25716  1.0000
  C   C13       1.0  0.21900  0.03348  0.86445  1.0000
  C   C14       1.0  0.78100  0.96653  0.13555  1.0000
  C   C15       1.0  0.94839  0.23385  0.79739  1.0000
  C   C16       1.0  0.05159  0.76614  0.20261  1.0000
  C   C17       1.0  0.03449  0.27372  0.59279  1.0000
  C   C18       1.0  0.96551  0.72629  0.40721  1.0000
  C   C19       1.0  0.62311  0.08030  0.62671  1.0000
  C   C20       1.0  0.37689  0.91970  0.37329  1.0000
  C   C21       1.0  0.70720  0.74545  0.60690  1.0000
  C   C22       1.0  0.29280  0.25455  0.39310  1.0000
  C   C23       1.0  0.73338  0.87406  0.79529  1.0000
  C   C24       1.0  0.26661  0.12594  0.20470  1.0000
  O   O1        1.0  0.16229  0.92825  0.90984  1.0000
  O   O2        1.0  0.83770  0.07174  0.09016  1.0000
  O   O3        1.0  0.36091  0.14366  0.88849  1.0000
  O   O4        1.0  0.63908  0.85633  0.11151  1.0000
  O   O5        1.0  0.82886  0.16991  0.84593  1.0000
  O   O6        1.0  0.17115  0.83008  0.15406  1.0000
  O   O7        1.0  0.97598  0.37767  0.79536  1.0000
  O   O8        1.0  0.02403  0.62233  0.20464  1.0000
  O   O9        1.0  0.91870  0.25691  0.52007  1.0000
  O   O10       1.0  0.08130  0.74310  0.47993  1.0000
  O   O11       1.0  0.16371  0.38871  0.62635  1.0000
  O   O12       1.0  0.83630  0.61129  0.37365  1.0000
  O   O13       1.0  0.62076  0.20447  0.65976  1.0000
  O   O14       1.0  0.37924  0.79552  0.34024  1.0000
  O   O15       1.0  0.44168  0.99169  0.59443  1.0000
  O   O16       1.0  0.55832  0.00831  0.40557  1.0000
  O   O17       1.0  0.56572  0.75583  0.54512  1.0000
  O   O18       1.0  0.43427  0.24417  0.45488  1.0000
  O   O19       1.0  0.73558  0.62837  0.63404  1.0000
  O   O20       1.0  0.26441  0.37164  0.36596  1.0000
  O   O21       1.0  0.55160  0.85930  0.75722  1.0000
  O   O22       1.0  0.44841  0.14071  0.24278  1.0000
  O   O23       1.0  0.75987  0.85681  0.87951  1.0000
  O   O24       1.0  0.24014  0.14319  0.12049  1.0000
  O   O25       1.0  0.14911  0.62074  0.93646  1.0000
  O   O26       1.0  0.85089  0.37927  0.06354  1.0000
  O   O27       1.0  0.77777  0.35474  0.23995  1.0000
  O   O28       1.0  0.22223  0.64526  0.76005  1.0000
