data_image0
_chemical_formula_structural       Ag4H32C24I4N8
_chemical_formula_sum              "Ag4 H32 C24 I4 N8"
_cell_length_a       4.48091
_cell_length_b       7.10829
_cell_length_c       26.3053
_cell_angle_alpha    90.0004
_cell_angle_beta     90
_cell_angle_gamma    89.9996

_space_group_name_H-M_alt    "P 1"
_space_group_IT_number       1

loop_
  _space_group_symop_operation_xyz
  'x, y, z'

loop_
  _atom_site_type_symbol
  _atom_site_label
  _atom_site_symmetry_multiplicity
  _atom_site_fract_x
  _atom_site_fract_y
  _atom_site_fract_z
  _atom_site_occupancy
  Ag  Ag1       1.0  0.69776  0.21821  0.23256  1.0000
  Ag  Ag2       1.0  0.80228  0.78178  0.73254  1.0000
  Ag  Ag3       1.0  0.30227  0.71820  0.26745  1.0000
  Ag  Ag4       1.0  0.19775  0.28182  0.76745  1.0000
  H   H1        1.0  0.27864  0.51525  0.16988  1.0000
  H   H2        1.0  0.22141  0.48475  0.66986  1.0000
  H   H3        1.0  0.72146  0.01519  0.33013  1.0000
  H   H4        1.0  0.77851  0.98481  0.83013  1.0000
  H   H5        1.0  0.87244  0.10638  0.12019  1.0000
  H   H6        1.0  0.62761  0.89361  0.62018  1.0000
  H   H7        1.0  0.12764  0.60633  0.37981  1.0000
  H   H8        1.0  0.37232  0.39368  0.87981  1.0000
  H   H9        1.0  0.74155  0.18283  0.02853  1.0000
  H   H10       1.0  0.75846  0.81716  0.52852  1.0000
  H   H11       1.0  0.25858  0.68276  0.47148  1.0000
  H   H12       1.0  0.24139  0.31725  0.97148  1.0000
  H   H13       1.0  0.92907  0.65500  0.10485  1.0000
  H   H14       1.0  0.57093  0.34498  0.60484  1.0000
  H   H15       1.0  0.07104  0.15494  0.39515  1.0000
  H   H16       1.0  0.42892  0.84509  0.89515  1.0000
  H   H17       1.0  0.97866  0.60045  0.03941  1.0000
  H   H18       1.0  0.52137  0.39953  0.53940  1.0000
  H   H19       1.0  0.02145  0.10038  0.46060  1.0000
  H   H20       1.0  0.47851  0.89963  0.96060  1.0000
  H   H21       1.0  0.10691  0.93390  0.05033  1.0000
  H   H22       1.0  0.39314  0.06609  0.55032  1.0000
  H   H23       1.0  0.89318  0.43383  0.44968  1.0000
  H   H24       1.0  0.60677  0.56618  0.94967  1.0000
  H   H25       1.0  0.44770  0.81260  0.04108  1.0000
  H   H26       1.0  0.05232  0.18736  0.54107  1.0000
  H   H27       1.0  0.55239  0.31254  0.45892  1.0000
  H   H28       1.0  0.94756  0.68748  0.95892  1.0000
  H   H29       1.0  0.34225  0.88228  0.10341  1.0000
  H   H30       1.0  0.15779  0.11769  0.60339  1.0000
  H   H31       1.0  0.65785  0.38221  0.39660  1.0000
  H   H32       1.0  0.84211  0.61781  0.89660  1.0000
  C   C1        1.0  0.31030  0.48553  0.08749  1.0000
  C   C2        1.0  0.18971  0.51446  0.58748  1.0000
  C   C3        1.0  0.68982  0.98547  0.41251  1.0000
  C   C4        1.0  0.81014  0.01454  0.91251  1.0000
  C   C5        1.0  0.38367  0.44181  0.13805  1.0000
  C   C6        1.0  0.11638  0.55816  0.63803  1.0000
  C   C7        1.0  0.61643  0.94176  0.36196  1.0000
  C   C8        1.0  0.88356  0.05825  0.86196  1.0000
  C   C9        1.0  0.71197  0.21610  0.11051  1.0000
  C   C10       1.0  0.78805  0.78391  0.61049  1.0000
  C   C11       1.0  0.28814  0.71604  0.38950  1.0000
  C   C12       1.0  0.21183  0.28396  0.88950  1.0000
  C   C13       1.0  0.63812  0.25794  0.06035  1.0000
  C   C14       1.0  0.86191  0.74204  0.56034  1.0000
  C   C15       1.0  0.36198  0.75786  0.43965  1.0000
  C   C16       1.0  0.13797  0.24215  0.93965  1.0000
  C   C17       1.0  0.09587  0.64029  0.07444  1.0000
  C   C18       1.0  0.40414  0.35969  0.57443  1.0000
  C   C19       1.0  0.90423  0.14021  0.42556  1.0000
  C   C20       1.0  0.59573  0.85981  0.92556  1.0000
  C   C21       1.0  0.25720  0.82861  0.06701  1.0000
  C   C22       1.0  0.24283  0.17137  0.56700  1.0000
  C   C23       1.0  0.74291  0.32854  0.43300  1.0000
  C   C24       1.0  0.75705  0.67147  0.93299  1.0000
  I   I1        1.0  0.80486  0.82866  0.21043  1.0000
  I   I2        1.0  0.69517  0.17136  0.71042  1.0000
  I   I3        1.0  0.19516  0.32864  0.28959  1.0000
  I   I4        1.0  0.30488  0.67139  0.78957  1.0000
  N   N1        1.0  0.43903  0.39215  0.04876  1.0000
  N   N2        1.0  0.06099  0.60782  0.54875  1.0000
  N   N3        1.0  0.56108  0.89209  0.45125  1.0000
  N   N4        1.0  0.93888  0.10792  0.95125  1.0000
  N   N5        1.0  0.58402  0.30828  0.14939  1.0000
  N   N6        1.0  0.91602  0.69172  0.64939  1.0000
  N   N7        1.0  0.41606  0.80822  0.35061  1.0000
  N   N8        1.0  0.08392  0.19179  0.85061  1.0000
