data_image0
_chemical_formula_structural       H20Pb2C24N8Cl4O2
_chemical_formula_sum              "H20 Pb2 C24 N8 Cl4 O2"
_cell_length_a       8.12908
_cell_length_b       9.32798
_cell_length_c       10.8876
_cell_angle_alpha    98.4208
_cell_angle_beta     106.083
_cell_angle_gamma    85.6056

_space_group_name_H-M_alt    "P 1"
_space_group_IT_number       1

loop_
  _space_group_symop_operation_xyz
  'x, y, z'

loop_
  _atom_site_type_symbol
  _atom_site_label
  _atom_site_symmetry_multiplicity
  _atom_site_fract_x
  _atom_site_fract_y
  _atom_site_fract_z
  _atom_site_occupancy
  H   H1        1.0  0.93447  0.52411  0.19482  1.0000
  H   H2        1.0  0.06551  0.47584  0.80515  1.0000
  H   H3        1.0  0.81599  0.65526  0.03266  1.0000
  H   H4        1.0  0.18398  0.34470  0.96730  1.0000
  H   H5        1.0  0.87839  0.41164  0.32489  1.0000
  H   H6        1.0  0.12160  0.58834  0.67516  1.0000
  H   H7        1.0  0.86632  0.23938  0.47400  1.0000
  H   H8        1.0  0.13374  0.76058  0.52606  1.0000
  H   H9        1.0  0.14273  0.15199  0.62103  1.0000
  H   H10       1.0  0.85738  0.84801  0.37900  1.0000
  H   H11       1.0  0.43153  0.38325  0.46554  1.0000
  H   H12       1.0  0.56847  0.61680  0.53445  1.0000
  H   H13       1.0  0.24295  0.75841  0.99171  1.0000
  H   H14       1.0  0.75703  0.24157  0.00829  1.0000
  H   H15       1.0  0.25880  0.92524  0.83433  1.0000
  H   H16       1.0  0.74120  0.07474  0.16569  1.0000
  H   H17       1.0  0.98680  0.03861  0.71007  1.0000
  H   H18       1.0  0.01321  0.96137  0.28992  1.0000
  H   H19       1.0  0.69202  0.83538  0.88377  1.0000
  H   H20       1.0  0.30796  0.16459  0.11619  1.0000
  Pb  Pb1       1.0  0.42267  0.85222  0.31181  1.0000
  Pb  Pb2       1.0  0.57736  0.14781  0.68817  1.0000
  C   C1        1.0  0.19110  0.51843  0.30296  1.0000
  C   C2        1.0  0.80885  0.48160  0.69706  1.0000
  C   C3        1.0  0.94538  0.69025  0.04099  1.0000
  C   C4        1.0  0.05459  0.30973  0.95899  1.0000
  C   C5        1.0  0.15843  0.41278  0.38300  1.0000
  C   C6        1.0  0.84156  0.58723  0.61702  1.0000
  C   C7        1.0  0.99801  0.37075  0.38588  1.0000
  C   C8        1.0  0.00200  0.62924  0.61416  1.0000
  C   C9        1.0  0.98950  0.27602  0.47159  1.0000
  C   C10       1.0  0.01056  0.72396  0.52845  1.0000
  C   C11       1.0  0.14112  0.22603  0.55181  1.0000
  C   C12       1.0  0.85896  0.77397  0.44822  1.0000
  C   C13       1.0  0.30443  0.35487  0.46634  1.0000
  C   C14       1.0  0.69558  0.64516  0.53366  1.0000
  C   C15       1.0  0.96520  0.78323  0.94992  1.0000
  C   C16       1.0  0.03477  0.21675  0.05005  1.0000
  C   C17       1.0  0.12665  0.80940  0.93524  1.0000
  C   C18       1.0  0.87333  0.19058  0.06476  1.0000
  C   C19       1.0  0.13659  0.90151  0.84847  1.0000
  C   C20       1.0  0.86341  0.09846  0.15154  1.0000
  C   C21       1.0  0.98477  0.96518  0.77911  1.0000
  C   C22       1.0  0.01524  0.03479  0.22088  1.0000
  C   C23       1.0  0.81980  0.85140  0.87457  1.0000
  C   C24       1.0  0.18018  0.14857  0.12539  1.0000
  N   N1        1.0  0.29561  0.26469  0.54858  1.0000
  N   N2        1.0  0.70445  0.73534  0.45144  1.0000
  N   N3        1.0  0.05324  0.56395  0.20971  1.0000
  N   N4        1.0  0.94671  0.43605  0.79029  1.0000
  N   N5        1.0  0.07787  0.65503  0.13042  1.0000
  N   N6        1.0  0.92208  0.34498  0.86959  1.0000
  N   N7        1.0  0.82993  0.94137  0.79180  1.0000
  N   N8        1.0  0.17007  0.05861  0.20817  1.0000
  Cl  Cl1       1.0  0.61123  0.09705  0.39711  1.0000
  Cl  Cl2       1.0  0.38876  0.90301  0.60283  1.0000
  Cl  Cl3       1.0  0.57148  0.78446  0.11853  1.0000
  Cl  Cl4       1.0  0.42850  0.21561  0.88142  1.0000
  O   O1        1.0  0.33689  0.56323  0.32104  1.0000
  O   O2        1.0  0.66306  0.43684  0.67900  1.0000
