data_image0
_chemical_formula_structural       Zn2H16C20O16
_chemical_formula_sum              "Zn2 H16 C20 O16"
_cell_length_a       5.89209
_cell_length_b       8.21634
_cell_length_c       11.8948
_cell_angle_alpha    100.006
_cell_angle_beta     89.9909
_cell_angle_gamma    111.013

_space_group_name_H-M_alt    "P 1"
_space_group_IT_number       1

loop_
  _space_group_symop_operation_xyz
  'x, y, z'

loop_
  _atom_site_type_symbol
  _atom_site_label
  _atom_site_symmetry_multiplicity
  _atom_site_fract_x
  _atom_site_fract_y
  _atom_site_fract_z
  _atom_site_occupancy
  Zn  Zn1       1.0  0.83610  0.00001  0.75003  1.0000
  Zn  Zn2       1.0  0.16392  0.00000  0.24997  1.0000
  H   H1        1.0  0.96617  0.72845  0.88980  1.0000
  H   H2        1.0  0.23773  0.27155  0.61022  1.0000
  H   H3        1.0  0.03382  0.27154  0.11022  1.0000
  H   H4        1.0  0.76226  0.72845  0.38978  1.0000
  H   H5        1.0  0.50094  0.55004  0.79693  1.0000
  H   H6        1.0  0.95080  0.44998  0.70300  1.0000
  H   H7        1.0  0.49908  0.44997  0.20309  1.0000
  H   H8        1.0  0.04916  0.55000  0.29698  1.0000
  H   H9        1.0  0.66456  0.92216  0.94374  1.0000
  H   H10       1.0  0.74240  0.07789  0.55634  1.0000
  H   H11       1.0  0.33548  0.07786  0.05626  1.0000
  H   H12       1.0  0.25756  0.92209  0.44366  1.0000
  H   H13       1.0  0.46873  0.97268  0.88068  1.0000
  H   H14       1.0  0.49595  0.02723  0.61932  1.0000
  H   H15       1.0  0.53130  0.02733  0.11933  1.0000
  H   H16       1.0  0.50403  0.97273  0.38068  1.0000
  C   C1        1.0  0.28726  0.19595  0.87028  1.0000
  C   C2        1.0  0.09126  0.80400  0.62968  1.0000
  C   C3        1.0  0.71274  0.80403  0.12971  1.0000
  C   C4        1.0  0.90870  0.19599  0.37032  1.0000
  C   C5        1.0  0.51933  0.34548  0.88959  1.0000
  C   C6        1.0  0.17377  0.65457  0.61039  1.0000
  C   C7        1.0  0.48071  0.65452  0.11041  1.0000
  C   C8        1.0  0.82620  0.34543  0.38961  1.0000
  C   C9        1.0  0.84377  0.59853  0.90092  1.0000
  C   C10       1.0  0.24510  0.40148  0.59901  1.0000
  C   C11       1.0  0.15628  0.40152  0.09907  1.0000
  C   C12       1.0  0.75488  0.59852  0.40099  1.0000
  C   C13       1.0  0.89519  0.48975  0.96546  1.0000
  C   C14       1.0  0.40541  0.51032  0.53453  1.0000
  C   C15       1.0  0.10482  0.51024  0.03455  1.0000
  C   C16       1.0  0.59458  0.48970  0.46547  1.0000
  C   C17       1.0  0.60284  0.50543  0.85237  1.0000
  C   C18       1.0  0.09729  0.49460  0.64754  1.0000
  C   C19       1.0  0.39719  0.49459  0.14763  1.0000
  C   C20       1.0  0.90268  0.50539  0.35245  1.0000
  O   O1        1.0  0.12077  0.21428  0.80974  1.0000
  O   O2        1.0  0.90634  0.78572  0.69017  1.0000
  O   O3        1.0  0.87925  0.78573  0.19025  1.0000
  O   O4        1.0  0.09365  0.21428  0.30983  1.0000
  O   O5        1.0  0.25855  0.05604  0.91122  1.0000
  O   O6        1.0  0.20244  0.94396  0.58878  1.0000
  O   O7        1.0  0.74147  0.94396  0.08878  1.0000
  O   O8        1.0  0.79752  0.05604  0.41121  1.0000
  O   O9        1.0  0.69953  0.33444  0.95896  1.0000
  O   O10       1.0  0.36505  0.66559  0.54104  1.0000
  O   O11       1.0  0.30051  0.66555  0.04104  1.0000
  O   O12       1.0  0.63492  0.33441  0.45896  1.0000
  O   O13       1.0  0.59703  0.91828  0.86590  1.0000
  O   O14       1.0  0.67863  0.08170  0.63417  1.0000
  O   O15       1.0  0.40301  0.08173  0.13411  1.0000
  O   O16       1.0  0.32135  0.91828  0.36583  1.0000
