data_image0
_chemical_formula_structural       K4P4H48C36N8O36
_chemical_formula_sum              "K4 P4 H48 C36 N8 O36"
_cell_length_a       8.0924
_cell_length_b       10.4031
_cell_length_c       16.068
_cell_angle_alpha    90
_cell_angle_beta     90.0001
_cell_angle_gamma    90.0001

_space_group_name_H-M_alt    "P 1"
_space_group_IT_number       1

loop_
  _space_group_symop_operation_xyz
  'x, y, z'

loop_
  _atom_site_type_symbol
  _atom_site_label
  _atom_site_symmetry_multiplicity
  _atom_site_fract_x
  _atom_site_fract_y
  _atom_site_fract_z
  _atom_site_occupancy
  K   K1        1.0  0.20940  0.40479  0.67186  1.0000
  K   K2        1.0  0.29060  0.59522  0.17185  1.0000
  K   K3        1.0  0.79060  0.90479  0.82815  1.0000
  K   K4        1.0  0.70940  0.09521  0.32815  1.0000
  P   P1        1.0  0.13207  0.32548  0.46021  1.0000
  P   P2        1.0  0.36793  0.67452  0.96021  1.0000
  P   P3        1.0  0.86793  0.82548  0.03979  1.0000
  P   P4        1.0  0.63207  0.17452  0.53979  1.0000
  H   H1        1.0  0.06599  0.00888  0.34407  1.0000
  H   H2        1.0  0.43401  0.99112  0.84407  1.0000
  H   H3        1.0  0.93401  0.50888  0.15593  1.0000
  H   H4        1.0  0.56599  0.49112  0.65593  1.0000
  H   H5        1.0  0.36700  0.27284  0.32808  1.0000
  H   H6        1.0  0.13300  0.72716  0.82808  1.0000
  H   H7        1.0  0.63300  0.77283  0.17192  1.0000
  H   H8        1.0  0.86700  0.22717  0.67192  1.0000
  H   H9        1.0  0.16655  0.28569  0.28247  1.0000
  H   H10       1.0  0.33345  0.71431  0.78247  1.0000
  H   H11       1.0  0.83345  0.78569  0.21753  1.0000
  H   H12       1.0  0.66655  0.21431  0.71753  1.0000
  H   H13       1.0  0.30908  0.11446  0.21467  1.0000
  H   H14       1.0  0.19091  0.88554  0.71467  1.0000
  H   H15       1.0  0.69091  0.61446  0.28533  1.0000
  H   H16       1.0  0.80909  0.38554  0.78533  1.0000
  H   H17       1.0  0.44687  0.83366  0.28394  1.0000
  H   H18       1.0  0.05313  0.16634  0.78394  1.0000
  H   H19       1.0  0.55313  0.33366  0.21606  1.0000
  H   H20       1.0  0.94687  0.66634  0.71606  1.0000
  H   H21       1.0  0.10622  0.79944  0.28327  1.0000
  H   H22       1.0  0.39378  0.20056  0.78327  1.0000
  H   H23       1.0  0.89378  0.29944  0.21673  1.0000
  H   H24       1.0  0.60622  0.70056  0.71673  1.0000
  H   H25       1.0  0.28028  0.00544  0.45524  1.0000
  H   H26       1.0  0.21972  0.99456  0.95524  1.0000
  H   H27       1.0  0.71972  0.50544  0.04476  1.0000
  H   H28       1.0  0.78028  0.49456  0.54476  1.0000
  H   H29       1.0  0.22466  0.90903  0.59388  1.0000
  H   H30       1.0  0.27534  0.09097  0.09388  1.0000
  H   H31       1.0  0.77534  0.40903  0.90612  1.0000
  H   H32       1.0  0.72466  0.59097  0.40612  1.0000
  H   H33       1.0  0.94241  0.20181  0.52158  1.0000
  H   H34       1.0  0.55759  0.79819  0.02158  1.0000
  H   H35       1.0  0.05759  0.70181  0.97842  1.0000
  H   H36       1.0  0.44241  0.29819  0.47842  1.0000
  H   H37       1.0  0.14177  0.87598  0.13960  1.0000
  H   H38       1.0  0.35822  0.12402  0.63960  1.0000
  H   H39       1.0  0.85823  0.37598  0.36040  1.0000
  H   H40       1.0  0.64178  0.62402  0.86040  1.0000
  H   H41       1.0  0.31542  0.54411  0.48311  1.0000
  H   H42       1.0  0.18458  0.45589  0.98311  1.0000
  H   H43       1.0  0.68458  0.04411  0.01689  1.0000
  H   H44       1.0  0.81541  0.95589  0.51689  1.0000
  H   H45       1.0  0.97713  0.00975  0.17375  1.0000
  H   H46       1.0  0.52287  0.99025  0.67376  1.0000
  H   H47       1.0  0.02287  0.50975  0.32625  1.0000
  H   H48       1.0  0.47713  0.49025  0.82624  1.0000
  C   C1        1.0  0.11158  0.01105  0.27932  1.0000
  C   C2        1.0  0.38842  0.98895  0.77932  1.0000
  C   C3        1.0  0.88842  0.51105  0.22068  1.0000
  C   C4        1.0  0.61158  0.48895  0.72068  1.0000
  C   C5        1.0  0.24671  0.22455  0.32113  1.0000
  C   C6        1.0  0.25329  0.77545  0.82113  1.0000
  C   C7        1.0  0.75329  0.72455  0.17887  1.0000
  C   C8        1.0  0.74671  0.27545  0.67887  1.0000
  C   C9        1.0  0.26586  0.09669  0.27852  1.0000
  C   C10       1.0  0.23414  0.90331  0.77852  1.0000
  C   C11       1.0  0.73414  0.59668  0.22148  1.0000
  C   C12       1.0  0.76586  0.40331  0.72148  1.0000
  C   C13       1.0  0.34044  0.69603  0.40215  1.0000
  C   C14       1.0  0.15956  0.30397  0.90215  1.0000
  C   C15       1.0  0.65956  0.19603  0.09785  1.0000
  C   C16       1.0  0.84044  0.80397  0.59785  1.0000
  C   C17       1.0  0.26931  0.71142  0.55180  1.0000
  C   C18       1.0  0.23070  0.28858  0.05180  1.0000
  C   C19       1.0  0.73070  0.21142  0.94820  1.0000
  C   C20       1.0  0.76930  0.78858  0.44820  1.0000
  C   C21       1.0  0.34596  0.88649  0.31403  1.0000
  C   C22       1.0  0.15404  0.11351  0.81403  1.0000
  C   C23       1.0  0.65404  0.38649  0.18597  1.0000
  C   C24       1.0  0.84596  0.61351  0.68597  1.0000
  C   C25       1.0  0.18678  0.87833  0.26175  1.0000
  C   C26       1.0  0.31322  0.12167  0.76175  1.0000
  C   C27       1.0  0.81322  0.37833  0.23825  1.0000
  C   C28       1.0  0.68678  0.62167  0.73825  1.0000
  C   C29       1.0  0.28538  0.90214  0.46578  1.0000
  C   C30       1.0  0.21462  0.09787  0.96578  1.0000
  C   C31       1.0  0.71462  0.40214  0.03422  1.0000
  C   C32       1.0  0.78538  0.59786  0.53422  1.0000
  C   C33       1.0  0.25637  0.84833  0.54139  1.0000
  C   C34       1.0  0.24363  0.15168  0.04140  1.0000
  C   C35       1.0  0.74363  0.34832  0.95860  1.0000
  C   C36       1.0  0.75637  0.65168  0.45860  1.0000
  N   N1        1.0  0.32545  0.82967  0.39766  1.0000
  N   N2        1.0  0.17456  0.17033  0.89766  1.0000
  N   N3        1.0  0.67455  0.32967  0.10234  1.0000
  N   N4        1.0  0.82544  0.67033  0.60234  1.0000
  N   N5        1.0  0.31385  0.64471  0.47970  1.0000
  N   N6        1.0  0.18615  0.35529  0.97970  1.0000
  N   N7        1.0  0.68615  0.14471  0.02030  1.0000
  N   N8        1.0  0.81385  0.85529  0.52030  1.0000
  O   O1        1.0  0.17408  0.20335  0.40186  1.0000
  O   O2        1.0  0.32592  0.79665  0.90186  1.0000
  O   O3        1.0  0.82592  0.70335  0.09814  1.0000
  O   O4        1.0  0.67408  0.29665  0.59815  1.0000
  O   O5        1.0  0.38760  0.01861  0.32184  1.0000
  O   O6        1.0  0.11240  0.98139  0.82184  1.0000
  O   O7        1.0  0.61240  0.51861  0.17816  1.0000
  O   O8        1.0  0.88760  0.48139  0.67816  1.0000
  O   O9        1.0  0.23780  0.86074  0.17793  1.0000
  O   O10       1.0  0.26220  0.13926  0.67793  1.0000
  O   O11       1.0  0.76220  0.36074  0.32207  1.0000
  O   O12       1.0  0.73780  0.63926  0.82207  1.0000
  O   O13       1.0  0.04374  0.25865  0.53560  1.0000
  O   O14       1.0  0.45626  0.74135  0.03560  1.0000
  O   O15       1.0  0.95626  0.75865  0.96440  1.0000
  O   O16       1.0  0.54374  0.24135  0.46440  1.0000
  O   O17       1.0  0.37447  0.63043  0.34004  1.0000
  O   O18       1.0  0.12553  0.36957  0.84004  1.0000
  O   O19       1.0  0.62553  0.13043  0.15996  1.0000
  O   O20       1.0  0.87447  0.86957  0.65996  1.0000
  O   O21       1.0  0.29302  0.38237  0.49381  1.0000
  O   O22       1.0  0.20697  0.61763  0.99381  1.0000
  O   O23       1.0  0.70698  0.88237  0.00619  1.0000
  O   O24       1.0  0.79302  0.11763  0.50619  1.0000
  O   O25       1.0  0.98016  0.05424  0.22879  1.0000
  O   O26       1.0  0.51984  0.94576  0.72879  1.0000
  O   O27       1.0  0.01984  0.55424  0.27121  1.0000
  O   O28       1.0  0.48016  0.44576  0.77121  1.0000
  O   O29       1.0  0.24476  0.65113  0.61802  1.0000
  O   O30       1.0  0.25524  0.34887  0.11802  1.0000
  O   O31       1.0  0.75524  0.15113  0.88198  1.0000
  O   O32       1.0  0.74476  0.84887  0.38198  1.0000
  O   O33       1.0  0.02274  0.41885  0.41345  1.0000
  O   O34       1.0  0.47725  0.58115  0.91345  1.0000
  O   O35       1.0  0.97725  0.91885  0.08655  1.0000
  O   O36       1.0  0.52275  0.08115  0.58655  1.0000
