data_image0
_chemical_formula_structural       Zn4H32C20S4N8O32
_chemical_formula_sum              "Zn4 H32 C20 S4 N8 O32"
_cell_length_a       7.81049
_cell_length_b       11.1622
_cell_length_c       11.1663
_cell_angle_alpha    94.0236
_cell_angle_beta     89.9997
_cell_angle_gamma    89.9998

_space_group_name_H-M_alt    "P 1"
_space_group_IT_number       1

loop_
  _space_group_symop_operation_xyz
  'x, y, z'

loop_
  _atom_site_type_symbol
  _atom_site_label
  _atom_site_symmetry_multiplicity
  _atom_site_fract_x
  _atom_site_fract_y
  _atom_site_fract_z
  _atom_site_occupancy
  Zn  Zn1       1.0  1.00000  0.50000  0.50000  1.0000
  Zn  Zn2       1.0  0.50000  0.50000  0.00000  1.0000
  Zn  Zn3       1.0  0.49999  0.00001  0.50001  1.0000
  Zn  Zn4       1.0  0.00000  0.00000  0.00000  1.0000
  H   H1        1.0  0.97988  0.93695  0.69250  1.0000
  H   H2        1.0  0.47988  0.06306  0.80749  1.0000
  H   H3        1.0  0.02012  0.06306  0.30749  1.0000
  H   H4        1.0  0.52012  0.93694  0.19251  1.0000
  H   H5        1.0  0.01798  0.24928  0.59881  1.0000
  H   H6        1.0  0.51799  0.75071  0.90119  1.0000
  H   H7        1.0  0.98202  0.75072  0.40119  1.0000
  H   H8        1.0  0.48202  0.24928  0.09882  1.0000
  H   H9        1.0  0.69552  0.40892  0.35844  1.0000
  H   H10       1.0  0.19552  0.59109  0.14156  1.0000
  H   H11       1.0  0.30448  0.59108  0.64156  1.0000
  H   H12       1.0  0.80448  0.40891  0.85844  1.0000
  H   H13       1.0  0.51128  0.22048  0.34087  1.0000
  H   H14       1.0  0.01129  0.77953  0.15913  1.0000
  H   H15       1.0  0.48872  0.77952  0.65913  1.0000
  H   H16       1.0  0.98871  0.22048  0.84087  1.0000
  H   H17       1.0  0.98136  0.45766  0.24372  1.0000
  H   H18       1.0  0.48135  0.54234  0.25629  1.0000
  H   H19       1.0  0.01865  0.54235  0.75628  1.0000
  H   H20       1.0  0.51865  0.45766  0.74371  1.0000
  H   H21       1.0  0.88797  0.58456  0.28128  1.0000
  H   H22       1.0  0.38796  0.41544  0.21872  1.0000
  H   H23       1.0  0.11203  0.41544  0.71872  1.0000
  H   H24       1.0  0.61204  0.58456  0.78128  1.0000
  H   H25       1.0  0.67756  0.61621  0.47141  1.0000
  H   H26       1.0  0.17755  0.38380  0.02859  1.0000
  H   H27       1.0  0.32244  0.38379  0.52859  1.0000
  H   H28       1.0  0.82244  0.61620  0.97141  1.0000
  H   H29       1.0  0.75170  0.64650  0.60502  1.0000
  H   H30       1.0  0.25170  0.35351  0.89498  1.0000
  H   H31       1.0  0.24830  0.35350  0.39498  1.0000
  H   H32       1.0  0.74830  0.64649  0.10502  1.0000
  C   C1        1.0  0.81940  0.03801  0.61188  1.0000
  C   C2        1.0  0.31941  0.96199  0.88810  1.0000
  C   C3        1.0  0.18060  0.96199  0.38812  1.0000
  C   C4        1.0  0.68060  0.03801  0.11189  1.0000
  C   C5        1.0  0.79851  0.14344  0.53688  1.0000
  C   C6        1.0  0.29851  0.85656  0.96311  1.0000
  C   C7        1.0  0.20149  0.85656  0.46312  1.0000
  C   C8        1.0  0.70150  0.14344  0.03689  1.0000
  C   C9        1.0  0.90318  0.24442  0.54318  1.0000
  C   C10       1.0  0.40318  0.75558  0.95681  1.0000
  C   C11       1.0  0.09681  0.75559  0.45682  1.0000
  C   C12       1.0  0.59681  0.24441  0.04319  1.0000
  C   C13       1.0  0.72521  0.33174  0.40906  1.0000
  C   C14       1.0  0.22521  0.66827  0.09094  1.0000
  C   C15       1.0  0.27478  0.66827  0.59094  1.0000
  C   C16       1.0  0.77478  0.33173  0.90906  1.0000
  C   C17       1.0  0.62389  0.22871  0.39883  1.0000
  C   C18       1.0  0.12389  0.77129  0.10117  1.0000
  C   C19       1.0  0.37611  0.77129  0.60116  1.0000
  C   C20       1.0  0.87611  0.22871  0.89883  1.0000
  S   S1        1.0  0.38322  0.23613  0.69175  1.0000
  S   S2        1.0  0.88322  0.76388  0.80825  1.0000
  S   S3        1.0  0.61679  0.76387  0.30825  1.0000
  S   S4        1.0  0.11677  0.23612  0.19175  1.0000
  N   N1        1.0  0.66055  0.13727  0.46487  1.0000
  N   N2        1.0  0.16055  0.86273  0.03513  1.0000
  N   N3        1.0  0.33945  0.86273  0.53513  1.0000
  N   N4        1.0  0.83945  0.13726  0.96487  1.0000
  N   N5        1.0  0.86178  0.33908  0.48131  1.0000
  N   N6        1.0  0.36178  0.66092  0.01869  1.0000
  N   N7        1.0  0.13822  0.66092  0.51868  1.0000
  N   N8        1.0  0.63822  0.33908  0.98132  1.0000
  O   O1        1.0  0.69344  0.97275  0.62811  1.0000
  O   O2        1.0  0.19343  0.02725  0.87189  1.0000
  O   O3        1.0  0.30656  0.02725  0.37189  1.0000
  O   O4        1.0  0.80657  0.97275  0.12811  1.0000
  O   O5        1.0  0.97161  0.02284  0.65523  1.0000
  O   O6        1.0  0.47163  0.97716  0.84477  1.0000
  O   O7        1.0  0.02838  0.97716  0.34477  1.0000
  O   O8        1.0  0.52838  0.02283  0.15523  1.0000
  O   O9        1.0  0.97103  0.52459  0.30747  1.0000
  O   O10       1.0  0.47101  0.47542  0.19253  1.0000
  O   O11       1.0  0.02898  0.47542  0.69253  1.0000
  O   O12       1.0  0.52898  0.52458  0.80747  1.0000
  O   O13       1.0  0.33566  0.14285  0.59674  1.0000
  O   O14       1.0  0.83565  0.85715  0.90326  1.0000
  O   O15       1.0  0.66435  0.85716  0.40327  1.0000
  O   O16       1.0  0.16434  0.14284  0.09674  1.0000
  O   O17       1.0  0.50446  0.18467  0.77823  1.0000
  O   O18       1.0  0.00445  0.81534  0.72177  1.0000
  O   O19       1.0  0.49555  0.81533  0.22177  1.0000
  O   O20       1.0  0.99554  0.18466  0.27823  1.0000
  O   O21       1.0  0.46912  0.34044  0.63851  1.0000
  O   O22       1.0  0.96912  0.65956  0.86149  1.0000
  O   O23       1.0  0.53089  0.65955  0.36149  1.0000
  O   O24       1.0  0.03088  0.34044  0.13851  1.0000
  O   O25       1.0  0.22503  0.28256  0.75570  1.0000
  O   O26       1.0  0.72503  0.71744  0.74431  1.0000
  O   O27       1.0  0.77499  0.71744  0.24430  1.0000
  O   O28       1.0  0.27497  0.28255  0.25569  1.0000
  O   O29       1.0  0.76092  0.59053  0.53188  1.0000
  O   O30       1.0  0.26091  0.40947  0.96812  1.0000
  O   O31       1.0  0.23908  0.40946  0.46812  1.0000
  O   O32       1.0  0.73908  0.59053  0.03188  1.0000
