data_image0
_chemical_formula_structural       Tb2H32C48N6O16
_chemical_formula_sum              "Tb2 H32 C48 N6 O16"
_cell_length_a       9.32213
_cell_length_b       11.2832
_cell_length_c       12.5304
_cell_angle_alpha    65.8848
_cell_angle_beta     73.5073
_cell_angle_gamma    86.2448

_space_group_name_H-M_alt    "P 1"
_space_group_IT_number       1

loop_
  _space_group_symop_operation_xyz
  'x, y, z'

loop_
  _atom_site_type_symbol
  _atom_site_label
  _atom_site_symmetry_multiplicity
  _atom_site_fract_x
  _atom_site_fract_y
  _atom_site_fract_z
  _atom_site_occupancy
  Tb  Tb1       1.0  0.74642  0.03298  0.01265  1.0000
  Tb  Tb2       1.0  0.25358  0.96702  0.98735  1.0000
  H   H1        1.0  0.12841  0.88073  0.29470  1.0000
  H   H2        1.0  0.87159  0.11927  0.70530  1.0000
  H   H3        1.0  0.05141  0.84985  0.66192  1.0000
  H   H4        1.0  0.94859  0.15015  0.33808  1.0000
  H   H5        1.0  0.29893  0.96255  0.60271  1.0000
  H   H6        1.0  0.70106  0.03744  0.39730  1.0000
  H   H7        1.0  0.46670  0.02771  0.38780  1.0000
  H   H8        1.0  0.53330  0.97230  0.61221  1.0000
  H   H9        1.0  0.80766  0.66990  0.38725  1.0000
  H   H10       1.0  0.19235  0.33009  0.61275  1.0000
  H   H11       1.0  0.62102  0.27676  0.53202  1.0000
  H   H12       1.0  0.37897  0.72324  0.46798  1.0000
  H   H13       1.0  0.50467  0.33929  0.36182  1.0000
  H   H14       1.0  0.49533  0.66071  0.63818  1.0000
  H   H15       1.0  0.54271  0.56590  0.20365  1.0000
  H   H16       1.0  0.45730  0.43410  0.79634  1.0000
  H   H17       1.0  0.74581  0.80304  0.91015  1.0000
  H   H18       1.0  0.25419  0.19697  0.08985  1.0000
  H   H19       1.0  0.81839  0.47111  0.81569  1.0000
  H   H20       1.0  0.18161  0.52889  0.18429  1.0000
  H   H21       1.0  0.08517  0.47934  0.81367  1.0000
  H   H22       1.0  0.91483  0.52066  0.18633  1.0000
  H   H23       1.0  0.18176  0.64949  0.85987  1.0000
  H   H24       1.0  0.81823  0.35051  0.14014  1.0000
  H   H25       1.0  0.02942  0.18154  0.81629  1.0000
  H   H26       1.0  0.97059  0.81846  0.18371  1.0000
  H   H27       1.0  0.59507  0.27387  0.00485  1.0000
  H   H28       1.0  0.40493  0.72613  0.99514  1.0000
  H   H29       1.0  0.52906  0.22938  0.92160  1.0000
  H   H30       1.0  0.47095  0.77062  0.07840  1.0000
  H   H31       1.0  0.89431  0.27155  0.77724  1.0000
  H   H32       1.0  0.10569  0.72845  0.22277  1.0000
  C   C1        1.0  0.41093  0.98839  0.20453  1.0000
  C   C2        1.0  0.58908  0.01162  0.79547  1.0000
  C   C3        1.0  0.30787  0.95643  0.33021  1.0000
  C   C4        1.0  0.69213  0.04357  0.66979  1.0000
  C   C5        1.0  0.16586  0.89719  0.36258  1.0000
  C   C6        1.0  0.83413  0.10281  0.63742  1.0000
  C   C7        1.0  0.07489  0.85677  0.48304  1.0000
  C   C8        1.0  0.92510  0.14323  0.51696  1.0000
  C   C9        1.0  0.93202  0.79184  0.51814  1.0000
  C   C10       1.0  0.06799  0.20815  0.48186  1.0000
  C   C11       1.0  0.12393  0.88005  0.56940  1.0000
  C   C12       1.0  0.87607  0.11995  0.43060  1.0000
  C   C13       1.0  0.26373  0.94270  0.53545  1.0000
  C   C14       1.0  0.73626  0.05730  0.46455  1.0000
  C   C15       1.0  0.35621  0.97979  0.41652  1.0000
  C   C16       1.0  0.64379  0.02021  0.58348  1.0000
  C   C17       1.0  0.69901  0.76879  0.19179  1.0000
  C   C18       1.0  0.30100  0.23121  0.80822  1.0000
  C   C19       1.0  0.67814  0.63185  0.28505  1.0000
  C   C20       1.0  0.32187  0.36814  0.71495  1.0000
  C   C21       1.0  0.74431  0.59734  0.37998  1.0000
  C   C22       1.0  0.25570  0.40266  0.62002  1.0000
  C   C23       1.0  0.72398  0.46900  0.46833  1.0000
  C   C24       1.0  0.27602  0.53099  0.53167  1.0000
  C   C25       1.0  0.79045  0.43192  0.56585  1.0000
  C   C26       1.0  0.20954  0.56807  0.43415  1.0000
  C   C27       1.0  0.63729  0.37570  0.46209  1.0000
  C   C28       1.0  0.36270  0.62430  0.53791  1.0000
  C   C29       1.0  0.57255  0.41090  0.36673  1.0000
  C   C30       1.0  0.42744  0.58910  0.63327  1.0000
  C   C31       1.0  0.59294  0.53836  0.27842  1.0000
  C   C32       1.0  0.40707  0.46164  0.72158  1.0000
  C   C33       1.0  0.02663  0.84015  0.91287  1.0000
  C   C34       1.0  0.97334  0.15985  0.08713  1.0000
  C   C35       1.0  0.96913  0.73628  0.88739  1.0000
  C   C36       1.0  0.03087  0.26372  0.11261  1.0000
  C   C37       1.0  0.81936  0.73202  0.88887  1.0000
  C   C38       1.0  0.18064  0.26799  0.11112  1.0000
  C   C39       1.0  0.76535  0.63611  0.86352  1.0000
  C   C40       1.0  0.23465  0.36389  0.13647  1.0000
  C   C41       1.0  0.61144  0.63483  0.86698  1.0000
  C   C42       1.0  0.38855  0.36518  0.13301  1.0000
  C   C43       1.0  0.86107  0.54446  0.83623  1.0000
  C   C44       1.0  0.13894  0.45555  0.16376  1.0000
  C   C45       1.0  0.01050  0.54997  0.83488  1.0000
  C   C46       1.0  0.98950  0.45003  0.16512  1.0000
  C   C47       1.0  0.06496  0.64465  0.86064  1.0000
  C   C48       1.0  0.93504  0.35535  0.13936  1.0000
  N   N1        1.0  0.81479  0.73887  0.54728  1.0000
  N   N2        1.0  0.18521  0.26112  0.45272  1.0000
  N   N3        1.0  0.84451  0.39820  0.64612  1.0000
  N   N4        1.0  0.15548  0.60179  0.35389  1.0000
  N   N5        1.0  0.48357  0.63808  0.87397  1.0000
  N   N6        1.0  0.51645  0.36193  0.12602  1.0000
  O   O1        1.0  0.54647  0.02060  0.18464  1.0000
  O   O2        1.0  0.45352  0.97940  0.81536  1.0000
  O   O3        1.0  0.35685  0.97889  0.12550  1.0000
  O   O4        1.0  0.64314  0.02112  0.87449  1.0000
  O   O5        1.0  0.79003  0.84858  0.19229  1.0000
  O   O6        1.0  0.20997  0.15142  0.80772  1.0000
  O   O7        1.0  0.62680  0.80621  0.11203  1.0000
  O   O8        1.0  0.37320  0.19379  0.88797  1.0000
  O   O9        1.0  0.93510  0.91857  0.94102  1.0000
  O   O10       1.0  0.06490  0.08143  0.05897  1.0000
  O   O11       1.0  0.16508  0.84460  0.90498  1.0000
  O   O12       1.0  0.83492  0.15540  0.09503  1.0000
  O   O13       1.0  0.62120  0.23605  0.94434  1.0000
  O   O14       1.0  0.37880  0.76395  0.05565  1.0000
  O   O15       1.0  0.91904  0.19022  0.83775  1.0000
  O   O16       1.0  0.08096  0.80978  0.16225  1.0000
