data_image0
_chemical_formula_structural       Cu2H46C46N6O8
_chemical_formula_sum              "Cu2 H46 C46 N6 O8"
_cell_length_a       8.15926
_cell_length_b       10.6392
_cell_length_c       14.176
_cell_angle_alpha    73.4483
_cell_angle_beta     83.7311
_cell_angle_gamma    70.2008

_space_group_name_H-M_alt    "P 1"
_space_group_IT_number       1

loop_
  _space_group_symop_operation_xyz
  'x, y, z'

loop_
  _atom_site_type_symbol
  _atom_site_label
  _atom_site_symmetry_multiplicity
  _atom_site_fract_x
  _atom_site_fract_y
  _atom_site_fract_z
  _atom_site_occupancy
  Cu  Cu1       1.0  0.58856  0.58205  0.71398  1.0000
  Cu  Cu2       1.0  0.41144  0.41795  0.28602  1.0000
  H   H1        1.0  0.86987  0.57919  0.83928  1.0000
  H   H2        1.0  0.13011  0.42084  0.16073  1.0000
  H   H3        1.0  0.09080  0.70585  0.81412  1.0000
  H   H4        1.0  0.90918  0.29416  0.18590  1.0000
  H   H5        1.0  0.10120  0.87579  0.65394  1.0000
  H   H6        1.0  0.89882  0.12420  0.34606  1.0000
  H   H7        1.0  0.88819  0.91787  0.52139  1.0000
  H   H8        1.0  0.11181  0.08213  0.47861  1.0000
  H   H9        1.0  0.67630  0.94505  0.41451  1.0000
  H   H10       1.0  0.32372  0.05494  0.58550  1.0000
  H   H11       1.0  0.44736  0.93729  0.32185  1.0000
  H   H12       1.0  0.55267  0.06269  0.67815  1.0000
  H   H13       1.0  0.28559  0.76659  0.39036  1.0000
  H   H14       1.0  0.71445  0.23338  0.60963  1.0000
  H   H15       1.0  0.18131  0.59437  0.46993  1.0000
  H   H16       1.0  0.81872  0.40562  0.53006  1.0000
  H   H17       1.0  0.04680  0.42271  0.58554  1.0000
  H   H18       1.0  0.95321  0.57729  0.41445  1.0000
  H   H19       1.0  0.14809  0.31923  0.75704  1.0000
  H   H20       1.0  0.85190  0.68077  0.24295  1.0000
  H   H21       1.0  0.38433  0.38645  0.81241  1.0000
  H   H22       1.0  0.61566  0.61356  0.18759  1.0000
  H   H23       1.0  0.85455  0.19656  0.93381  1.0000
  H   H24       1.0  0.14546  0.80344  0.06619  1.0000
  H   H25       1.0  0.03296  0.14442  0.85369  1.0000
  H   H26       1.0  0.96703  0.85557  0.14631  1.0000
  H   H27       1.0  0.88380  0.02360  0.78842  1.0000
  H   H28       1.0  0.11617  0.97641  0.21157  1.0000
  H   H29       1.0  0.88956  0.96314  0.91815  1.0000
  H   H30       1.0  0.11043  0.03686  0.08184  1.0000
  H   H31       1.0  0.57919  0.13295  0.92269  1.0000
  H   H32       1.0  0.42080  0.86705  0.07731  1.0000
  H   H33       1.0  0.57769  0.16934  0.79391  1.0000
  H   H34       1.0  0.42228  0.83066  0.20609  1.0000
  H   H35       1.0  0.62489  0.88354  0.93879  1.0000
  H   H36       1.0  0.37509  0.11646  0.06122  1.0000
  H   H37       1.0  0.63555  0.91300  0.81050  1.0000
  H   H38       1.0  0.36444  0.08700  0.18951  1.0000
  H   H39       1.0  0.32851  0.07410  0.79638  1.0000
  H   H40       1.0  0.67150  0.92590  0.20361  1.0000
  H   H41       1.0  0.31755  0.05349  0.92490  1.0000
  H   H42       1.0  0.68243  0.94653  0.07509  1.0000
  H   H43       1.0  0.36788  0.79553  0.95001  1.0000
  H   H44       1.0  0.63210  0.20449  0.04999  1.0000
  H   H45       1.0  0.17434  0.90646  0.88621  1.0000
  H   H46       1.0  0.82564  0.09355  0.11379  1.0000
  C   C1        1.0  0.88067  0.65520  0.77059  1.0000
  C   C2        1.0  0.11932  0.34481  0.22942  1.0000
  C   C3        1.0  0.00049  0.72636  0.75615  1.0000
  C   C4        1.0  0.99950  0.27364  0.24386  1.0000
  C   C5        1.0  0.00500  0.82193  0.66561  1.0000
  C   C6        1.0  0.99500  0.17807  0.33439  1.0000
  C   C7        1.0  0.88873  0.84399  0.59276  1.0000
  C   C8        1.0  0.11127  0.15600  0.40725  1.0000
  C   C9        1.0  0.77260  0.76850  0.61158  1.0000
  C   C10       1.0  0.22741  0.23150  0.38843  1.0000
  C   C11       1.0  0.64414  0.77966  0.54172  1.0000
  C   C12       1.0  0.35587  0.22033  0.45829  1.0000
  C   C13       1.0  0.60830  0.87049  0.44792  1.0000
  C   C14       1.0  0.39172  0.12950  0.55208  1.0000
  C   C15       1.0  0.47720  0.86583  0.39455  1.0000
  C   C16       1.0  0.52282  0.13416  0.60545  1.0000
  C   C17       1.0  0.38561  0.77232  0.43295  1.0000
  C   C18       1.0  0.61442  0.22766  0.56704  1.0000
  C   C19       1.0  0.42878  0.68410  0.52729  1.0000
  C   C20       1.0  0.57124  0.31589  0.47271  1.0000
  C   C21       1.0  0.34664  0.58116  0.58347  1.0000
  C   C22       1.0  0.65337  0.41883  0.41652  1.0000
  C   C23       1.0  0.21930  0.54743  0.54685  1.0000
  C   C24       1.0  0.78073  0.45256  0.45314  1.0000
  C   C25       1.0  0.14746  0.45201  0.60973  1.0000
  C   C26       1.0  0.85255  0.54798  0.39026  1.0000
  C   C27       1.0  0.20386  0.39299  0.70674  1.0000
  C   C28       1.0  0.79614  0.60701  0.29325  1.0000
  C   C29       1.0  0.33349  0.42917  0.73791  1.0000
  C   C30       1.0  0.66651  0.57083  0.26209  1.0000
  C   C31       1.0  0.81091  0.30575  0.78113  1.0000
  C   C32       1.0  0.18908  0.69424  0.21887  1.0000
  C   C33       1.0  0.89043  0.17390  0.86213  1.0000
  C   C34       1.0  0.10958  0.82610  0.13787  1.0000
  C   C35       1.0  0.83148  0.05380  0.85659  1.0000
  C   C36       1.0  0.16850  0.94620  0.14341  1.0000
  C   C37       1.0  0.63375  0.08776  0.86060  1.0000
  C   C38       1.0  0.36624  0.91224  0.13941  1.0000
  C   C39       1.0  0.57515  0.96293  0.86979  1.0000
  C   C40       1.0  0.42484  0.03707  0.13022  1.0000
  C   C41       1.0  0.37728  0.00005  0.86734  1.0000
  C   C42       1.0  0.62271  0.99996  0.13265  1.0000
  C   C43       1.0  0.31751  0.87433  0.88145  1.0000
  C   C44       1.0  0.68247  0.12568  0.11854  1.0000
  C   C45       1.0  0.37353  0.80671  0.79601  1.0000
  C   C46       1.0  0.62647  0.19330  0.20399  1.0000
  N   N1        1.0  0.77138  0.67514  0.69990  1.0000
  N   N2        1.0  0.22862  0.32487  0.30011  1.0000
  N   N3        1.0  0.55407  0.69091  0.57792  1.0000
  N   N4        1.0  0.44594  0.30908  0.42208  1.0000
  N   N5        1.0  0.40353  0.52000  0.67738  1.0000
  N   N6        1.0  0.59648  0.47999  0.32262  1.0000
  O   O1        1.0  0.70845  0.40837  0.81289  1.0000
  O   O2        1.0  0.29155  0.59163  0.18711  1.0000
  O   O3        1.0  0.84644  0.30736  0.69232  1.0000
  O   O4        1.0  0.15353  0.69263  0.30769  1.0000
  O   O5        1.0  0.34309  0.88193  0.70905  1.0000
  O   O6        1.0  0.65691  0.11808  0.29095  1.0000
  O   O7        1.0  0.44798  0.67481  0.82140  1.0000
  O   O8        1.0  0.55201  0.32521  0.17860  1.0000
