data_image0
_chemical_formula_structural       Cu2H34C40N6O8
_chemical_formula_sum              "Cu2 H34 C40 N6 O8"
_cell_length_a       8.57399
_cell_length_b       10.3894
_cell_length_c       11.7346
_cell_angle_alpha    63.7159
_cell_angle_beta     80.0485
_cell_angle_gamma    67.0142

_space_group_name_H-M_alt    "P 1"
_space_group_IT_number       1

loop_
  _space_group_symop_operation_xyz
  'x, y, z'

loop_
  _atom_site_type_symbol
  _atom_site_label
  _atom_site_symmetry_multiplicity
  _atom_site_fract_x
  _atom_site_fract_y
  _atom_site_fract_z
  _atom_site_occupancy
  Cu  Cu1       1.0  0.75009  0.11791  0.76430  1.0000
  Cu  Cu2       1.0  0.24992  0.88209  0.23570  1.0000
  H   H1        1.0  0.41873  0.14182  0.91798  1.0000
  H   H2        1.0  0.08152  0.94017  0.91799  1.0000
  H   H3        1.0  0.58131  0.85818  0.08203  1.0000
  H   H4        1.0  0.91848  0.05981  0.08200  1.0000
  H   H5        1.0  0.11407  0.26736  0.86386  1.0000
  H   H6        1.0  0.38613  0.86870  0.86387  1.0000
  H   H7        1.0  0.88596  0.73260  0.13616  1.0000
  H   H8        1.0  0.61386  0.13129  0.13613  1.0000
  H   H9        1.0  0.02611  0.41708  0.63464  1.0000
  H   H10       1.0  0.47401  0.94834  0.63464  1.0000
  H   H11       1.0  0.97389  0.58288  0.36540  1.0000
  H   H12       1.0  0.52599  0.05167  0.36536  1.0000
  H   H13       1.0  0.25538  0.43459  0.46573  1.0000
  H   H14       1.0  0.24463  0.09995  0.46571  1.0000
  H   H15       1.0  0.74461  0.56541  0.53429  1.0000
  H   H16       1.0  0.75538  0.90006  0.53428  1.0000
  H   H17       1.0  0.47500  0.43109  0.33494  1.0000
  H   H18       1.0  0.02500  0.23400  0.33487  1.0000
  H   H19       1.0  0.52498  0.56892  0.66507  1.0000
  H   H20       1.0  0.97498  0.76600  0.66512  1.0000
  H   H21       1.0  0.74995  0.39250  0.21518  1.0000
  H   H22       1.0  0.25002  0.60751  0.78482  1.0000
  H   H23       1.0  0.85851  0.59999  0.99117  1.0000
  H   H24       1.0  0.64133  0.40908  0.99097  1.0000
  H   H25       1.0  0.14148  0.40001  0.00883  1.0000
  H   H26       1.0  0.35867  0.59094  0.00902  1.0000
  H   H27       1.0  0.63638  0.66895  0.99084  1.0000
  H   H28       1.0  0.86346  0.34049  0.99076  1.0000
  H   H29       1.0  0.36361  0.33106  0.00916  1.0000
  H   H30       1.0  0.13654  0.65952  0.00923  1.0000
  H   H31       1.0  0.86010  0.57204  0.78599  1.0000
  H   H32       1.0  0.63975  0.64245  0.78595  1.0000
  H   H33       1.0  0.13989  0.42798  0.21400  1.0000
  H   H34       1.0  0.36023  0.35757  0.21405  1.0000
  C   C1        1.0  0.37824  0.20834  0.81906  1.0000
  C   C2        1.0  0.12198  0.97261  0.81908  1.0000
  C   C3        1.0  0.62179  0.79165  0.18095  1.0000
  C   C4        1.0  0.87802  0.02737  0.18091  1.0000
  C   C5        1.0  0.20669  0.27992  0.78742  1.0000
  C   C6        1.0  0.29350  0.93262  0.78742  1.0000
  C   C7        1.0  0.79332  0.72006  0.21259  1.0000
  C   C8        1.0  0.70651  0.06736  0.21258  1.0000
  C   C9        1.0  0.16007  0.36241  0.65969  1.0000
  C   C10       1.0  0.34005  0.97799  0.65968  1.0000
  C   C11       1.0  0.83993  0.63758  0.34032  1.0000
  C   C12       1.0  0.65996  0.02201  0.34031  1.0000
  C   C13       1.0  0.28616  0.37053  0.56677  1.0000
  C   C14       1.0  0.21392  0.06296  0.56676  1.0000
  C   C15       1.0  0.71384  0.62947  0.43324  1.0000
  C   C16       1.0  0.78609  0.93704  0.43323  1.0000
  C   C17       1.0  0.45551  0.29552  0.60492  1.0000
  C   C18       1.0  0.04458  0.09989  0.60494  1.0000
  C   C19       1.0  0.54449  0.70447  0.39509  1.0000
  C   C20       1.0  0.95542  0.90011  0.39505  1.0000
  C   C21       1.0  0.60093  0.29198  0.51738  1.0000
  C   C22       1.0  0.89920  0.19087  0.51735  1.0000
  C   C23       1.0  0.39907  0.70803  0.48262  1.0000
  C   C24       1.0  0.10080  0.80913  0.48264  1.0000
  C   C25       1.0  0.59622  0.36138  0.38445  1.0000
  C   C26       1.0  0.90382  0.25413  0.38442  1.0000
  C   C27       1.0  0.40377  0.63864  0.61555  1.0000
  C   C28       1.0  0.09617  0.74587  0.61557  1.0000
  C   C29       1.0  0.74999  0.34059  0.31883  1.0000
  C   C30       1.0  0.24999  0.65942  0.68117  1.0000
  C   C31       1.0  0.74430  0.82463  0.84355  1.0000
  C   C32       1.0  0.75579  0.33228  0.84329  1.0000
  C   C33       1.0  0.25570  0.17537  0.15646  1.0000
  C   C34       1.0  0.24421  0.66773  0.15670  1.0000
  C   C35       1.0  0.74781  0.66079  0.92751  1.0000
  C   C36       1.0  0.75205  0.41206  0.92739  1.0000
  C   C37       1.0  0.25218  0.33922  0.07249  1.0000
  C   C38       1.0  0.24794  0.58795  0.07261  1.0000
  C   C39       1.0  0.74992  0.57530  0.84983  1.0000
  C   C40       1.0  0.25006  0.42472  0.15016  1.0000
  N   N1        1.0  0.49920  0.21617  0.73022  1.0000
  N   N2        1.0  0.00094  0.05384  0.73023  1.0000
  N   N3        1.0  0.50082  0.78383  0.26979  1.0000
  N   N4        1.0  0.99906  0.94615  0.26976  1.0000
  N   N5        1.0  0.75008  0.21092  0.57847  1.0000
  N   N6        1.0  0.24992  0.78908  0.42152  1.0000
  O   O1        1.0  0.75683  0.90063  0.90124  1.0000
  O   O2        1.0  0.74314  0.19862  0.90093  1.0000
  O   O3        1.0  0.24318  0.09937  0.09876  1.0000
  O   O4        1.0  0.25686  0.80138  0.09907  1.0000
  O   O5        1.0  0.72950  0.87608  0.72506  1.0000
  O   O6        1.0  0.77092  0.39932  0.72484  1.0000
  O   O7        1.0  0.27050  0.12394  0.27494  1.0000
  O   O8        1.0  0.22909  0.60068  0.27516  1.0000
