data_image0
_chemical_formula_structural       Zn4P4H24C12N4O24
_chemical_formula_sum              "Zn4 P4 H24 C12 N4 O24"
_cell_length_a       5.08127
_cell_length_b       7.72963
_cell_length_c       17.8692
_cell_angle_alpha    90.0003
_cell_angle_beta     89.9996
_cell_angle_gamma    90

_space_group_name_H-M_alt    "P 1"
_space_group_IT_number       1

loop_
  _space_group_symop_operation_xyz
  'x, y, z'

loop_
  _atom_site_type_symbol
  _atom_site_label
  _atom_site_symmetry_multiplicity
  _atom_site_fract_x
  _atom_site_fract_y
  _atom_site_fract_z
  _atom_site_occupancy
  Zn  Zn1       1.0  0.67088  0.02271  0.32675  1.0000
  Zn  Zn2       1.0  0.82914  0.97730  0.82675  1.0000
  Zn  Zn3       1.0  0.17085  0.47730  0.67325  1.0000
  Zn  Zn4       1.0  0.32914  0.52270  0.17325  1.0000
  P   P1        1.0  0.17020  0.82860  0.27301  1.0000
  P   P2        1.0  0.32981  0.17141  0.77301  1.0000
  P   P3        1.0  0.67018  0.67140  0.72699  1.0000
  P   P4        1.0  0.82982  0.32860  0.22698  1.0000
  H   H1        1.0  0.32668  0.33797  0.33806  1.0000
  H   H2        1.0  0.17331  0.66203  0.83805  1.0000
  H   H3        1.0  0.82666  0.16201  0.66194  1.0000
  H   H4        1.0  0.67331  0.83798  0.16194  1.0000
  H   H5        1.0  0.02266  0.31631  0.37098  1.0000
  H   H6        1.0  0.47733  0.68369  0.87098  1.0000
  H   H7        1.0  0.52266  0.18367  0.62902  1.0000
  H   H8        1.0  0.97733  0.81630  0.12902  1.0000
  H   H9        1.0  0.27957  0.22190  0.41771  1.0000
  H   H10       1.0  0.22043  0.77809  0.91771  1.0000
  H   H11       1.0  0.77957  0.27810  0.58230  1.0000
  H   H12       1.0  0.72042  0.72191  0.08229  1.0000
  H   H13       1.0  0.47356  0.50350  0.44144  1.0000
  H   H14       1.0  0.02639  0.49649  0.94143  1.0000
  H   H15       1.0  0.97360  0.99649  0.55857  1.0000
  H   H16       1.0  0.52640  0.00352  0.05857  1.0000
  H   H17       1.0  0.92586  0.62980  0.39077  1.0000
  H   H18       1.0  0.57413  0.37020  0.89078  1.0000
  H   H19       1.0  0.42587  0.87020  0.60922  1.0000
  H   H20       1.0  0.07413  0.12980  0.10922  1.0000
  H   H21       1.0  0.17593  0.76229  0.43150  1.0000
  H   H22       1.0  0.32405  0.23770  0.93150  1.0000
  H   H23       1.0  0.67596  0.73770  0.56850  1.0000
  H   H24       1.0  0.82407  0.26229  0.06851  1.0000
  C   C1        1.0  0.13070  0.45978  0.51055  1.0000
  C   C2        1.0  0.36929  0.54019  0.01056  1.0000
  C   C3        1.0  0.63072  0.04023  0.48945  1.0000
  C   C4        1.0  0.86930  0.95981  0.98944  1.0000
  C   C5        1.0  0.26052  0.48829  0.43395  1.0000
  C   C6        1.0  0.23945  0.51171  0.93395  1.0000
  C   C7        1.0  0.76055  0.01170  0.56606  1.0000
  C   C8        1.0  0.73945  0.98829  0.06605  1.0000
  C   C9        1.0  0.13998  0.64663  0.39699  1.0000
  C   C10       1.0  0.36001  0.35336  0.89699  1.0000
  C   C11       1.0  0.64000  0.85336  0.60300  1.0000
  C   C12       1.0  0.86001  0.14663  0.10301  1.0000
  N   N1        1.0  0.21819  0.33163  0.38693  1.0000
  N   N2        1.0  0.28181  0.66837  0.88692  1.0000
  N   N3        1.0  0.71819  0.16836  0.61308  1.0000
  N   N4        1.0  0.78181  0.83163  0.11308  1.0000
  O   O1        1.0  0.26780  0.50995  0.56657  1.0000
  O   O2        1.0  0.23218  0.49006  0.06656  1.0000
  O   O3        1.0  0.76783  0.99006  0.43343  1.0000
  O   O4        1.0  0.73219  0.00995  0.93344  1.0000
  O   O5        1.0  0.90437  0.39482  0.51116  1.0000
  O   O6        1.0  0.59562  0.60517  0.01116  1.0000
  O   O7        1.0  0.40440  0.10517  0.48884  1.0000
  O   O8        1.0  0.09562  0.89484  0.98884  1.0000
  O   O9        1.0  0.25760  0.66488  0.32440  1.0000
  O   O10       1.0  0.24241  0.33510  0.82440  1.0000
  O   O11       1.0  0.75759  0.83511  0.67560  1.0000
  O   O12       1.0  0.74242  0.16490  0.17560  1.0000
  O   O13       1.0  0.87049  0.84466  0.27528  1.0000
  O   O14       1.0  0.62955  0.15534  0.77528  1.0000
  O   O15       1.0  0.37047  0.65534  0.72472  1.0000
  O   O16       1.0  0.12955  0.34466  0.22472  1.0000
  O   O17       1.0  0.26855  0.77384  0.19452  1.0000
  O   O18       1.0  0.23147  0.22615  0.69452  1.0000
  O   O19       1.0  0.76854  0.72616  0.80548  1.0000
  O   O20       1.0  0.73145  0.27386  0.30548  1.0000
  O   O21       1.0  0.30060  0.99147  0.30383  1.0000
  O   O22       1.0  0.19941  0.00851  0.80384  1.0000
  O   O23       1.0  0.80059  0.50853  0.69617  1.0000
  O   O24       1.0  0.69941  0.49150  0.19615  1.0000
