data_image0
_chemical_formula_structural       Co2P2H20C6N2O16
_chemical_formula_sum              "Co2 P2 H20 C6 N2 O16"
_cell_length_a       5.35961
_cell_length_b       7.79497
_cell_length_c       9.84227
_cell_angle_alpha    90.0018
_cell_angle_beta     90.0001
_cell_angle_gamma    97.756

_space_group_name_H-M_alt    "P 1"
_space_group_IT_number       1

loop_
  _space_group_symop_operation_xyz
  'x, y, z'

loop_
  _atom_site_type_symbol
  _atom_site_label
  _atom_site_symmetry_multiplicity
  _atom_site_fract_x
  _atom_site_fract_y
  _atom_site_fract_z
  _atom_site_occupancy
  Co  Co1       1.0  0.18583  0.51837  0.06591  1.0000
  Co  Co2       1.0  0.81416  0.48162  0.56590  1.0000
  P   P1        1.0  0.68407  0.37900  0.24502  1.0000
  P   P2        1.0  0.31588  0.62101  0.74502  1.0000
  H   H1        1.0  0.71511  0.53890  0.00831  1.0000
  H   H2        1.0  0.28484  0.46104  0.50832  1.0000
  H   H3        1.0  0.89084  0.56797  0.87194  1.0000
  H   H4        1.0  0.10911  0.43198  0.37195  1.0000
  H   H5        1.0  0.27647  0.24059  0.92760  1.0000
  H   H6        1.0  0.72352  0.75939  0.42755  1.0000
  H   H7        1.0  0.98468  0.26677  0.90386  1.0000
  H   H8        1.0  0.01531  0.73319  0.40381  1.0000
  H   H9        1.0  0.62622  0.02132  0.98675  1.0000
  H   H10       1.0  0.37368  0.97866  0.48678  1.0000
  H   H11       1.0  0.54158  0.80232  0.97695  1.0000
  H   H12       1.0  0.45854  0.19764  0.47699  1.0000
  H   H13       1.0  0.84292  0.88295  0.97609  1.0000
  H   H14       1.0  0.15713  0.11718  0.47611  1.0000
  H   H15       1.0  0.81760  0.05057  0.33810  1.0000
  H   H16       1.0  0.18244  0.94949  0.83815  1.0000
  H   H17       1.0  0.99314  0.10491  0.18416  1.0000
  H   H18       1.0  0.00686  0.89512  0.68422  1.0000
  H   H19       1.0  0.82480  0.79318  0.18849  1.0000
  H   H20       1.0  0.17524  0.20685  0.68852  1.0000
  C   C1        1.0  0.80538  0.06172  0.22680  1.0000
  C   C2        1.0  0.19465  0.93827  0.72685  1.0000
  C   C3        1.0  0.69438  0.88772  0.16879  1.0000
  C   C4        1.0  0.30560  0.11228  0.66883  1.0000
  C   C5        1.0  0.43828  0.82201  0.23382  1.0000
  C   C6        1.0  0.56170  0.17805  0.73384  1.0000
  N   N1        1.0  0.67374  0.90225  0.01826  1.0000
  N   N2        1.0  0.32627  0.09776  0.51829  1.0000
  O   O1        1.0  0.87754  0.59449  0.97125  1.0000
  O   O2        1.0  0.12240  0.40542  0.47126  1.0000
  O   O3        1.0  0.51846  0.47433  0.15499  1.0000
  O   O4        1.0  0.48147  0.52569  0.65496  1.0000
  O   O5        1.0  0.11874  0.26904  0.97213  1.0000
  O   O6        1.0  0.88123  0.73092  0.47207  1.0000
  O   O7        1.0  0.96674  0.44611  0.22859  1.0000
  O   O8        1.0  0.03325  0.55393  0.72856  1.0000
  O   O9        1.0  0.63476  0.18092  0.18943  1.0000
  O   O10       1.0  0.36530  0.81912  0.68947  1.0000
  O   O11       1.0  0.61532  0.37050  0.39678  1.0000
  O   O12       1.0  0.38469  0.62942  0.89677  1.0000
  O   O13       1.0  0.24828  0.78693  0.15780  1.0000
  O   O14       1.0  0.75176  0.21309  0.65782  1.0000
  O   O15       1.0  0.43943  0.80779  0.36287  1.0000
  O   O16       1.0  0.56062  0.19225  0.86289  1.0000
