data_image0
_chemical_formula_structural       Re4Ag4H40C16N8O16
_chemical_formula_sum              "Re4 Ag4 H40 C16 N8 O16"
_cell_length_a       6.16044
_cell_length_b       11.3216
_cell_length_c       12.3074
_cell_angle_alpha    89.9989
_cell_angle_beta     89.9972
_cell_angle_gamma    93.7385

_space_group_name_H-M_alt    "P 1"
_space_group_IT_number       1

loop_
  _space_group_symop_operation_xyz
  'x, y, z'

loop_
  _atom_site_type_symbol
  _atom_site_label
  _atom_site_symmetry_multiplicity
  _atom_site_fract_x
  _atom_site_fract_y
  _atom_site_fract_z
  _atom_site_occupancy
  Re  Re1       1.0  0.56490  0.80620  0.75345  1.0000
  Re  Re2       1.0  0.43510  0.69382  0.25346  1.0000
  Re  Re3       1.0  0.43511  0.19385  0.24654  1.0000
  Re  Re4       1.0  0.56491  0.30610  0.74656  1.0000
  Ag  Ag1       1.0  0.05969  0.75211  0.98107  1.0000
  Ag  Ag2       1.0  0.94031  0.74789  0.48105  1.0000
  Ag  Ag3       1.0  0.94031  0.24789  0.01893  1.0000
  Ag  Ag4       1.0  0.05966  0.25211  0.51894  1.0000
  H   H1        1.0  0.25770  0.91104  0.11086  1.0000
  H   H2        1.0  0.74229  0.58896  0.61086  1.0000
  H   H3        1.0  0.74231  0.08896  0.88914  1.0000
  H   H4        1.0  0.25771  0.41104  0.38914  1.0000
  H   H5        1.0  0.87066  0.60054  0.84574  1.0000
  H   H6        1.0  0.12934  0.89947  0.34573  1.0000
  H   H7        1.0  0.12935  0.39945  0.15425  1.0000
  H   H8        1.0  0.87064  0.10054  0.65427  1.0000
  H   H9        1.0  0.36397  0.97334  0.92975  1.0000
  H   H10       1.0  0.63604  0.52666  0.42976  1.0000
  H   H11       1.0  0.63605  0.02667  0.07025  1.0000
  H   H12       1.0  0.36396  0.47334  0.57024  1.0000
  H   H13       1.0  0.28432  0.09353  0.01137  1.0000
  H   H14       1.0  0.71569  0.40647  0.51137  1.0000
  H   H15       1.0  0.71570  0.90647  0.98864  1.0000
  H   H16       1.0  0.28431  0.59353  0.48863  1.0000
  H   H17       1.0  0.70452  0.44339  0.95572  1.0000
  H   H18       1.0  0.29546  0.05661  0.45571  1.0000
  H   H19       1.0  0.29550  0.55661  0.04427  1.0000
  H   H20       1.0  0.70450  0.94340  0.54429  1.0000
  H   H21       1.0  0.64870  0.58762  0.00388  1.0000
  H   H22       1.0  0.35129  0.91238  0.50387  1.0000
  H   H23       1.0  0.35131  0.41237  0.99611  1.0000
  H   H24       1.0  0.64868  0.08763  0.49613  1.0000
  H   H25       1.0  0.99658  0.04843  0.15497  1.0000
  H   H26       1.0  0.00344  0.45156  0.65497  1.0000
  H   H27       1.0  0.00345  0.95157  0.84503  1.0000
  H   H28       1.0  0.99656  0.54844  0.34503  1.0000
  H   H29       1.0  0.88655  0.89834  0.16739  1.0000
  H   H30       1.0  0.11344  0.60166  0.66738  1.0000
  H   H31       1.0  0.11346  0.10166  0.83262  1.0000
  H   H32       1.0  0.88656  0.39835  0.33261  1.0000
  H   H33       1.0  0.24350  0.54648  0.84669  1.0000
  H   H34       1.0  0.75648  0.95353  0.34670  1.0000
  H   H35       1.0  0.75651  0.45352  0.15330  1.0000
  H   H36       1.0  0.24348  0.04648  0.65330  1.0000
  H   H37       1.0  0.05649  0.41944  0.86056  1.0000
  H   H38       1.0  0.94350  0.08057  0.36057  1.0000
  H   H39       1.0  0.94352  0.58056  0.13943  1.0000
  H   H40       1.0  0.05647  0.91944  0.63943  1.0000
  C   C1        1.0  0.22653  0.00973  0.97173  1.0000
  C   C2        1.0  0.77348  0.49028  0.47174  1.0000
  C   C3        1.0  0.77349  0.99028  0.02827  1.0000
  C   C4        1.0  0.22652  0.50972  0.52826  1.0000
  C   C5        1.0  0.77648  0.52605  0.99223  1.0000
  C   C6        1.0  0.22350  0.97395  0.49222  1.0000
  C   C7        1.0  0.22353  0.47395  0.00776  1.0000
  C   C8        1.0  0.77646  0.02606  0.50778  1.0000
  C   C9        1.0  0.94879  0.96635  0.11003  1.0000
  C   C10       1.0  0.05121  0.53365  0.61003  1.0000
  C   C11       1.0  0.05123  0.03365  0.88997  1.0000
  C   C12       1.0  0.94879  0.46635  0.38997  1.0000
  C   C13       1.0  0.12088  0.50224  0.89981  1.0000
  C   C14       1.0  0.87912  0.99777  0.39982  1.0000
  C   C15       1.0  0.87914  0.49776  0.10018  1.0000
  C   C16       1.0  0.12085  0.00224  0.60018  1.0000
  N   N1        1.0  0.14032  0.92264  0.05350  1.0000
  N   N2        1.0  0.85968  0.57736  0.55350  1.0000
  N   N3        1.0  0.85970  0.07736  0.94650  1.0000
  N   N4        1.0  0.14032  0.42264  0.44650  1.0000
  N   N5        1.0  0.94285  0.58185  0.91831  1.0000
  N   N6        1.0  0.05714  0.91816  0.41831  1.0000
  N   N7        1.0  0.05716  0.41815  0.08168  1.0000
  N   N8        1.0  0.94283  0.08185  0.58169  1.0000
  O   O1        1.0  0.58658  0.96207  0.75923  1.0000
  O   O2        1.0  0.41344  0.53794  0.25926  1.0000
  O   O3        1.0  0.41339  0.03797  0.24076  1.0000
  O   O4        1.0  0.58660  0.46199  0.74077  1.0000
  O   O5        1.0  0.82651  0.75253  0.74455  1.0000
  O   O6        1.0  0.17349  0.74748  0.24455  1.0000
  O   O7        1.0  0.17349  0.24750  0.25546  1.0000
  O   O8        1.0  0.82652  0.25248  0.75547  1.0000
  O   O9        1.0  0.43598  0.75057  0.87184  1.0000
  O   O10       1.0  0.56401  0.74947  0.37180  1.0000
  O   O11       1.0  0.56404  0.24947  0.12816  1.0000
  O   O12       1.0  0.43601  0.25047  0.62820  1.0000
  O   O13       1.0  0.41407  0.75919  0.63901  1.0000
  O   O14       1.0  0.58594  0.74083  0.13898  1.0000
  O   O15       1.0  0.58594  0.24083  0.36100  1.0000
  O   O16       1.0  0.41404  0.25912  0.86104  1.0000
