data_image0
_chemical_formula_structural       Ca2H44C40N8O16
_chemical_formula_sum              "Ca2 H44 C40 N8 O16"
_cell_length_a       8.95289
_cell_length_b       10.4308
_cell_length_c       12.9841
_cell_angle_alpha    97.6987
_cell_angle_beta     110.172
_cell_angle_gamma    90.0012

_space_group_name_H-M_alt    "P 1"
_space_group_IT_number       1

loop_
  _space_group_symop_operation_xyz
  'x, y, z'

loop_
  _atom_site_type_symbol
  _atom_site_label
  _atom_site_symmetry_multiplicity
  _atom_site_fract_x
  _atom_site_fract_y
  _atom_site_fract_z
  _atom_site_occupancy
  Ca  Ca1       1.0  0.44554  0.40766  0.90325  1.0000
  Ca  Ca2       1.0  0.45796  0.90760  0.90318  1.0000
  H   H1        1.0  0.16317  0.42844  0.65657  1.0000
  H   H2        1.0  0.49308  0.92845  0.65652  1.0000
  H   H3        1.0  0.75796  0.37962  0.13680  1.0000
  H   H4        1.0  0.37849  0.87958  0.13650  1.0000
  H   H5        1.0  0.68173  0.97147  0.17598  1.0000
  H   H6        1.0  0.49416  0.47147  0.17582  1.0000
  H   H7        1.0  0.21891  0.83725  0.61354  1.0000
  H   H8        1.0  0.39447  0.33727  0.61332  1.0000
  H   H9        1.0  0.12342  0.10968  0.43500  1.0000
  H   H10       1.0  0.31153  0.60970  0.43481  1.0000
  H   H11       1.0  0.09748  0.32479  0.36832  1.0000
  H   H12       1.0  0.27063  0.82473  0.36803  1.0000
  H   H13       1.0  0.81706  0.67317  0.33136  1.0000
  H   H14       1.0  0.51412  0.17290  0.33122  1.0000
  H   H15       1.0  0.84750  0.46131  0.40385  1.0000
  H   H16       1.0  0.55594  0.96108  0.40375  1.0000
  H   H17       1.0  0.33182  0.25726  0.07674  1.0000
  H   H18       1.0  0.74515  0.75726  0.07654  1.0000
  H   H19       1.0  0.59447  0.62760  0.79661  1.0000
  H   H20       1.0  0.20218  0.12775  0.79674  1.0000
  H   H21       1.0  0.61183  0.57717  0.54768  1.0000
  H   H22       1.0  0.93580  0.07718  0.54781  1.0000
  H   H23       1.0  0.80383  0.65101  0.62800  1.0000
  H   H24       1.0  0.82415  0.15104  0.62810  1.0000
  H   H25       1.0  0.63219  0.70242  0.66017  1.0000
  H   H26       1.0  0.02795  0.20252  0.66024  1.0000
  H   H27       1.0  0.92520  0.42431  0.72989  1.0000
  H   H28       1.0  0.80464  0.92444  0.72998  1.0000
  H   H29       1.0  0.77350  0.38438  0.59756  1.0000
  H   H30       1.0  0.82404  0.88452  0.59765  1.0000
  H   H31       1.0  0.75245  0.32814  0.71676  1.0000
  H   H32       1.0  0.96422  0.82820  0.71686  1.0000
  H   H33       1.0  0.93492  0.29457  0.88810  1.0000
  H   H34       1.0  0.95366  0.79417  0.88803  1.0000
  H   H35       1.0  0.85377  0.24400  0.98458  1.0000
  H   H36       1.0  0.13120  0.74357  0.98460  1.0000
  H   H37       1.0  0.88949  0.12579  0.88436  1.0000
  H   H38       1.0  0.99521  0.62536  0.88431  1.0000
  H   H39       1.0  0.08843  0.01332  0.04040  1.0000
  H   H40       1.0  0.95172  0.51298  0.04035  1.0000
  H   H41       1.0  0.04107  0.12708  0.13914  1.0000
  H   H42       1.0  0.09791  0.62666  0.13922  1.0000
  H   H43       1.0  0.24204  0.11552  0.14419  1.0000
  H   H44       1.0  0.90183  0.61542  0.14399  1.0000
  C   C1        1.0  0.28039  0.62615  0.71952  1.0000
  C   C2        1.0  0.43891  0.12627  0.71940  1.0000
  C   C3        1.0  0.61885  0.18917  0.07932  1.0000
  C   C4        1.0  0.46062  0.68927  0.07927  1.0000
  C   C5        1.0  0.15623  0.63713  0.61040  1.0000
  C   C6        1.0  0.45370  0.13708  0.61019  1.0000
  C   C7        1.0  0.75574  0.16903  0.17945  1.0000
  C   C8        1.0  0.42369  0.66904  0.17929  1.0000
  C   C9        1.0  0.77240  0.04910  0.21808  1.0000
  C   C10       1.0  0.44565  0.54913  0.21792  1.0000
  C   C11       1.0  0.13864  0.75435  0.56746  1.0000
  C   C12       1.0  0.42850  0.25429  0.56723  1.0000
  C   C13       1.0  0.05231  0.52916  0.54827  1.0000
  C   C14       1.0  0.49552  0.02906  0.54811  1.0000
  C   C15       1.0  0.87392  0.27003  0.23581  1.0000
  C   C16       1.0  0.36180  0.76998  0.23560  1.0000
  C   C17       1.0  0.90227  0.02708  0.31036  1.0000
  C   C18       1.0  0.40807  0.52709  0.31019  1.0000
  C   C19       1.0  0.02058  0.12786  0.36448  1.0000
  C   C20       1.0  0.34385  0.62786  0.36429  1.0000
  C   C21       1.0  0.01926  0.76806  0.46695  1.0000
  C   C22       1.0  0.44752  0.26793  0.46675  1.0000
  C   C23       1.0  0.00660  0.24703  0.32776  1.0000
  C   C24       1.0  0.32104  0.74700  0.32753  1.0000
  C   C25       1.0  0.91237  0.66134  0.40836  1.0000
  C   C26       1.0  0.49581  0.16118  0.40824  1.0000
  C   C27       1.0  0.92851  0.54419  0.44862  1.0000
  C   C28       1.0  0.51974  0.04400  0.44848  1.0000
  C   C29       1.0  0.21932  0.27508  0.01203  1.0000
  C   C30       1.0  0.79302  0.77490  0.01184  1.0000
  C   C31       1.0  0.65611  0.53714  0.78936  1.0000
  C   C32       1.0  0.13338  0.03725  0.78951  1.0000
  C   C33       1.0  0.68911  0.61914  0.63141  1.0000
  C   C34       1.0  0.94232  0.11920  0.63155  1.0000
  C   C35       1.0  0.79601  0.40812  0.68645  1.0000
  C   C36       1.0  0.89042  0.90823  0.68657  1.0000
  C   C37       1.0  0.93390  0.21854  0.93816  1.0000
  C   C38       1.0  0.00466  0.71812  0.93811  1.0000
  C   C39       1.0  0.11755  0.11042  0.08896  1.0000
  C   C40       1.0  0.97129  0.61012  0.08888  1.0000
  N   N1        1.0  0.90449  0.90342  0.34233  1.0000
  N   N2        1.0  0.43779  0.40336  0.34214  1.0000
  N   N3        1.0  0.01479  0.89082  0.43326  1.0000
  N   N4        1.0  0.41846  0.39075  0.43307  1.0000
  N   N5        1.0  0.09439  0.20734  0.01459  1.0000
  N   N6        1.0  0.92045  0.70706  0.01448  1.0000
  N   N7        1.0  0.71262  0.52297  0.70616  1.0000
  N   N8        1.0  0.99360  0.02305  0.70631  1.0000
  O   O1        1.0  0.60644  0.30514  0.05219  1.0000
  O   O2        1.0  0.44577  0.80524  0.05212  1.0000
  O   O3        1.0  0.29130  0.51340  0.75262  1.0000
  O   O4        1.0  0.46130  0.01356  0.75259  1.0000
  O   O5        1.0  0.52109  0.09650  0.02525  1.0000
  O   O6        1.0  0.50448  0.59665  0.02525  1.0000
  O   O7        1.0  0.06919  0.41252  0.58277  1.0000
  O   O8        1.0  0.51311  0.91245  0.58268  1.0000
  O   O9        1.0  0.36947  0.72356  0.77456  1.0000
  O   O10       1.0  0.40513  0.22375  0.77450  1.0000
  O   O11       1.0  0.86355  0.38714  0.20228  1.0000
  O   O12       1.0  0.33833  0.88701  0.20197  1.0000
  O   O13       1.0  0.21516  0.35136  0.94383  1.0000
  O   O14       1.0  0.72919  0.85126  0.94362  1.0000
  O   O15       1.0  0.66890  0.45494  0.85420  1.0000
  O   O16       1.0  0.18548  0.95503  0.85429  1.0000
