data_image0
_chemical_formula_structural       Ca2H24C28N4O16
_chemical_formula_sum              "Ca2 H24 C28 N4 O16"
_cell_length_a       5.31953
_cell_length_b       9.72047
_cell_length_c       14.7294
_cell_angle_alpha    105.603
_cell_angle_beta     89.9994
_cell_angle_gamma    90.0005

_space_group_name_H-M_alt    "P 1"
_space_group_IT_number       1

loop_
  _space_group_symop_operation_xyz
  'x, y, z'

loop_
  _atom_site_type_symbol
  _atom_site_label
  _atom_site_symmetry_multiplicity
  _atom_site_fract_x
  _atom_site_fract_y
  _atom_site_fract_z
  _atom_site_occupancy
  Ca  Ca1       1.0  0.29891  0.68738  0.52795  1.0000
  Ca  Ca2       1.0  0.79897  0.31262  0.47206  1.0000
  H   H1        1.0  0.06548  0.73235  0.73260  1.0000
  H   H2        1.0  0.56547  0.26759  0.26738  1.0000
  H   H3        1.0  0.41611  0.85781  0.80468  1.0000
  H   H4        1.0  0.91609  0.14218  0.19531  1.0000
  H   H5        1.0  0.42280  0.42981  0.68419  1.0000
  H   H6        1.0  0.92286  0.57021  0.31583  1.0000
  H   H7        1.0  0.88286  0.13066  0.66469  1.0000
  H   H8        1.0  0.38285  0.86937  0.33533  1.0000
  H   H9        1.0  0.96738  0.66737  0.95632  1.0000
  H   H10       1.0  0.46732  0.33262  0.04367  1.0000
  H   H11       1.0  0.09967  0.24358  0.95689  1.0000
  H   H12       1.0  0.59970  0.75643  0.04312  1.0000
  H   H13       1.0  0.63423  0.49759  0.97585  1.0000
  H   H14       1.0  0.13419  0.50242  0.02415  1.0000
  H   H15       1.0  0.79087  0.07109  0.98821  1.0000
  H   H16       1.0  0.29088  0.92891  0.01179  1.0000
  H   H17       1.0  0.04185  0.92243  0.45325  1.0000
  H   H18       1.0  0.54187  0.07757  0.54673  1.0000
  H   H19       1.0  0.59340  0.68196  0.33144  1.0000
  H   H20       1.0  0.09342  0.31805  0.66856  1.0000
  H   H21       1.0  0.87186  0.88798  0.53297  1.0000
  H   H22       1.0  0.37189  0.11202  0.46702  1.0000
  H   H23       1.0  0.73274  0.74098  0.42714  1.0000
  H   H24       1.0  0.23278  0.25903  0.57284  1.0000
  C   C1        1.0  0.73059  0.57110  0.73157  1.0000
  C   C2        1.0  0.23059  0.42889  0.26843  1.0000
  C   C3        1.0  0.50338  0.45186  0.83184  1.0000
  C   C4        1.0  0.00340  0.54816  0.16816  1.0000
  C   C5        1.0  0.55222  0.92418  0.67132  1.0000
  C   C6        1.0  0.05220  0.07584  0.32869  1.0000
  C   C7        1.0  0.77243  0.59362  0.63739  1.0000
  C   C8        1.0  0.27247  0.40636  0.36260  1.0000
  C   C9        1.0  0.88504  0.64056  0.80951  1.0000
  C   C10       1.0  0.38501  0.35942  0.19049  1.0000
  C   C11       1.0  0.54082  0.47937  0.74427  1.0000
  C   C12       1.0  0.04084  0.52063  0.25573  1.0000
  C   C13       1.0  0.86070  0.11828  0.73557  1.0000
  C   C14       1.0  0.36070  0.88173  0.26445  1.0000
  C   C15       1.0  0.68964  0.01775  0.75101  1.0000
  C   C16       1.0  0.18967  0.98226  0.24900  1.0000
  C   C17       1.0  0.66139  0.00286  0.84399  1.0000
  C   C18       1.0  0.16141  0.99714  0.15602  1.0000
  C   C19       1.0  0.84763  0.61335  0.89744  1.0000
  C   C20       1.0  0.34758  0.38663  0.10256  1.0000
  C   C21       1.0  0.00719  0.20079  0.80871  1.0000
  C   C22       1.0  0.50717  0.79922  0.19130  1.0000
  C   C23       1.0  0.98149  0.18191  0.90032  1.0000
  C   C24       1.0  0.48150  0.81809  0.09968  1.0000
  C   C25       1.0  0.66157  0.51980  0.90785  1.0000
  C   C26       1.0  0.16158  0.48023  0.09215  1.0000
  C   C27       1.0  0.80991  0.08616  0.91784  1.0000
  C   C28       1.0  0.30993  0.91383  0.08217  1.0000
  N   N1        1.0  0.32564  0.35825  0.85157  1.0000
  N   N2        1.0  0.82563  0.64176  0.14842  1.0000
  N   N3        1.0  0.17551  0.29720  0.78546  1.0000
  N   N4        1.0  0.67556  0.70281  0.21454  1.0000
  O   O1        1.0  0.62604  0.53284  0.56861  1.0000
  O   O2        1.0  0.12607  0.46713  0.43138  1.0000
  O   O3        1.0  0.58741  0.93130  0.58592  1.0000
  O   O4        1.0  0.08733  0.06870  0.41409  1.0000
  O   O5        1.0  0.40133  0.83030  0.68672  1.0000
  O   O6        1.0  0.90131  0.16972  0.31328  1.0000
  O   O7        1.0  0.95656  0.67268  0.62692  1.0000
  O   O8        1.0  0.45659  0.32732  0.37308  1.0000
  O   O9        1.0  0.00317  0.84577  0.48495  1.0000
  O   O10       1.0  0.50318  0.15423  0.51504  1.0000
  O   O11       1.0  0.06599  0.73171  0.80120  1.0000
  O   O12       1.0  0.56596  0.26828  0.19879  1.0000
  O   O13       1.0  0.50053  0.91027  0.86499  1.0000
  O   O14       1.0  0.00053  0.08972  0.13502  1.0000
  O   O15       1.0  0.57613  0.69070  0.40074  1.0000
  O   O16       1.0  0.07617  0.30931  0.59925  1.0000
