data_image0
_chemical_formula_structural       Zn4P4H40C24N12O20
_chemical_formula_sum              "Zn4 P4 H40 C24 N12 O20"
_cell_length_a       8.41767
_cell_length_b       8.5186
_cell_length_c       16.635
_cell_angle_alpha    98.0297
_cell_angle_beta     89.9998
_cell_angle_gamma    119.609

_space_group_name_H-M_alt    "P 1"
_space_group_IT_number       1

loop_
  _space_group_symop_operation_xyz
  'x, y, z'

loop_
  _atom_site_type_symbol
  _atom_site_label
  _atom_site_symmetry_multiplicity
  _atom_site_fract_x
  _atom_site_fract_y
  _atom_site_fract_z
  _atom_site_occupancy
  Zn  Zn1       1.0  0.87545  0.75040  0.93300  1.0000
  Zn  Zn2       1.0  0.12504  0.24959  0.56700  1.0000
  Zn  Zn3       1.0  0.12456  0.24960  0.06700  1.0000
  Zn  Zn4       1.0  0.87496  0.75041  0.43300  1.0000
  P   P1        1.0  0.79364  0.88325  0.10989  1.0000
  P   P2        1.0  0.91038  0.11676  0.39011  1.0000
  P   P3        1.0  0.20637  0.11675  0.89011  1.0000
  P   P4        1.0  0.08961  0.88324  0.60989  1.0000
  H   H1        1.0  0.78262  0.75521  0.15843  1.0000
  H   H2        1.0  0.02741  0.24479  0.34158  1.0000
  H   H3        1.0  0.21738  0.24479  0.84158  1.0000
  H   H4        1.0  0.97259  0.75520  0.65842  1.0000
  H   H5        1.0  0.44551  0.14029  0.68684  1.0000
  H   H6        1.0  0.30522  0.85971  0.81316  1.0000
  H   H7        1.0  0.55449  0.85971  0.31316  1.0000
  H   H8        1.0  0.69478  0.14029  0.18684  1.0000
  H   H9        1.0  0.67111  0.28945  0.72257  1.0000
  H   H10       1.0  0.38166  0.71055  0.77743  1.0000
  H   H11       1.0  0.32889  0.71055  0.27743  1.0000
  H   H12       1.0  0.61834  0.28945  0.22257  1.0000
  H   H13       1.0  0.49587  0.20575  0.78657  1.0000
  H   H14       1.0  0.29012  0.79425  0.71343  1.0000
  H   H15       1.0  0.50413  0.79425  0.21343  1.0000
  H   H16       1.0  0.70989  0.20575  0.28657  1.0000
  H   H17       1.0  0.35273  0.35364  0.72528  1.0000
  H   H18       1.0  0.99908  0.64634  0.77472  1.0000
  H   H19       1.0  0.64727  0.64635  0.27472  1.0000
  H   H20       1.0  0.00092  0.35366  0.22528  1.0000
  H   H21       1.0  0.72706  0.58271  0.66208  1.0000
  H   H22       1.0  0.14434  0.41729  0.83793  1.0000
  H   H23       1.0  0.27294  0.41729  0.33792  1.0000
  H   H24       1.0  0.85566  0.58271  0.16207  1.0000
  H   H25       1.0  0.52494  0.59304  0.64765  1.0000
  H   H26       1.0  0.93189  0.40696  0.85235  1.0000
  H   H27       1.0  0.47506  0.40696  0.35235  1.0000
  H   H28       1.0  0.06811  0.59304  0.14765  1.0000
  H   H29       1.0  0.26482  0.08188  0.41901  1.0000
  H   H30       1.0  0.18295  0.91813  0.08099  1.0000
  H   H31       1.0  0.73517  0.91812  0.58099  1.0000
  H   H32       1.0  0.81705  0.08187  0.91901  1.0000
  H   H33       1.0  0.60046  0.13829  0.42257  1.0000
  H   H34       1.0  0.46218  0.86172  0.07743  1.0000
  H   H35       1.0  0.39953  0.86171  0.57743  1.0000
  H   H36       1.0  0.53782  0.13828  0.92257  1.0000
  H   H37       1.0  0.79122  0.36159  0.54497  1.0000
  H   H38       1.0  0.42962  0.63841  0.95503  1.0000
  H   H39       1.0  0.20878  0.63841  0.45503  1.0000
  H   H40       1.0  0.57037  0.36159  0.04497  1.0000
  C   C1        1.0  0.59316  0.55634  0.80325  1.0000
  C   C2        1.0  0.03683  0.44366  0.69675  1.0000
  C   C3        1.0  0.40684  0.44366  0.19674  1.0000
  C   C4        1.0  0.96318  0.55634  0.30325  1.0000
  C   C5        1.0  0.50163  0.40856  0.72777  1.0000
  C   C6        1.0  0.09306  0.59144  0.77223  1.0000
  C   C7        1.0  0.49837  0.59144  0.27223  1.0000
  C   C8        1.0  0.90694  0.40856  0.22777  1.0000
  C   C9        1.0  0.57731  0.49909  0.65174  1.0000
  C   C10       1.0  0.07821  0.50091  0.84827  1.0000
  C   C11       1.0  0.42269  0.50091  0.34826  1.0000
  C   C12       1.0  0.92179  0.49909  0.15174  1.0000
  C   C13       1.0  0.53427  0.37105  0.57384  1.0000
  C   C14       1.0  0.16321  0.62894  0.92616  1.0000
  C   C15       1.0  0.46572  0.62894  0.42615  1.0000
  C   C16       1.0  0.83679  0.37106  0.07384  1.0000
  C   C17       1.0  0.37623  0.17420  0.46474  1.0000
  C   C18       1.0  0.20203  0.82580  0.03526  1.0000
  C   C19       1.0  0.62376  0.82579  0.53526  1.0000
  C   C20       1.0  0.79797  0.17420  0.96474  1.0000
  C   C21       1.0  0.64918  0.32242  0.53258  1.0000
  C   C22       1.0  0.32676  0.67758  0.96742  1.0000
  C   C23       1.0  0.35081  0.67758  0.46742  1.0000
  C   C24       1.0  0.67323  0.32242  0.03258  1.0000
  N   N1        1.0  0.53412  0.25343  0.73123  1.0000
  N   N2        1.0  0.28068  0.74657  0.76877  1.0000
  N   N3        1.0  0.46589  0.74657  0.26877  1.0000
  N   N4        1.0  0.71932  0.25343  0.23123  1.0000
  N   N5        1.0  0.36367  0.27764  0.53022  1.0000
  N   N6        1.0  0.08603  0.72237  0.96979  1.0000
  N   N7        1.0  0.63633  0.72236  0.46978  1.0000
  N   N8        1.0  0.91397  0.27763  0.03022  1.0000
  N   N9        1.0  0.54733  0.19945  0.46485  1.0000
  N   N10       1.0  0.34788  0.80055  0.03515  1.0000
  N   N11       1.0  0.45266  0.80054  0.53515  1.0000
  N   N12       1.0  0.65212  0.19945  0.96485  1.0000
  O   O1        1.0  0.73974  0.78410  0.02133  1.0000
  O   O2        1.0  0.95563  0.21590  0.47867  1.0000
  O   O3        1.0  0.26027  0.21590  0.97867  1.0000
  O   O4        1.0  0.04437  0.78410  0.52133  1.0000
  O   O5        1.0  0.99308  0.03937  0.12641  1.0000
  O   O6        1.0  0.95371  0.96064  0.37359  1.0000
  O   O7        1.0  0.00693  0.96064  0.87359  1.0000
  O   O8        1.0  0.04629  0.03936  0.62640  1.0000
  O   O9        1.0  0.64927  0.93450  0.14032  1.0000
  O   O10       1.0  0.71477  0.06551  0.35967  1.0000
  O   O11       1.0  0.35073  0.06550  0.85967  1.0000
  O   O12       1.0  0.28523  0.93449  0.64033  1.0000
  O   O13       1.0  0.55497  0.68172  0.81525  1.0000
  O   O14       1.0  0.87326  0.31828  0.68474  1.0000
  O   O15       1.0  0.44502  0.31829  0.18474  1.0000
  O   O16       1.0  0.12674  0.68172  0.31526  1.0000
  O   O17       1.0  0.71023  0.54225  0.84724  1.0000
  O   O18       1.0  0.16799  0.45775  0.65277  1.0000
  O   O19       1.0  0.28977  0.45776  0.15275  1.0000
  O   O20       1.0  0.83201  0.54226  0.34723  1.0000
