data_image0
_chemical_formula_structural       K4Na4H40C16O36
_chemical_formula_sum              "K4 Na4 H40 C16 O36"
_cell_length_a       9.20834
_cell_length_b       9.45442
_cell_length_c       11.8382
_cell_angle_alpha    90.0001
_cell_angle_beta     90
_cell_angle_gamma    111.23

_space_group_name_H-M_alt    "P 1"
_space_group_IT_number       1

loop_
  _space_group_symop_operation_xyz
  'x, y, z'

loop_
  _atom_site_type_symbol
  _atom_site_label
  _atom_site_symmetry_multiplicity
  _atom_site_fract_x
  _atom_site_fract_y
  _atom_site_fract_z
  _atom_site_occupancy
  K   K1        1.0  0.67033  0.88790  0.82301  1.0000
  K   K2        1.0  0.82968  0.61209  0.32300  1.0000
  K   K3        1.0  0.32967  0.11210  0.17699  1.0000
  K   K4        1.0  0.17032  0.38791  0.67700  1.0000
  Na  Na1       1.0  0.02454  0.19295  0.98530  1.0000
  Na  Na2       1.0  0.47546  0.30704  0.48529  1.0000
  Na  Na3       1.0  0.97546  0.80705  0.01470  1.0000
  Na  Na4       1.0  0.52454  0.69296  0.51471  1.0000
  H   H1        1.0  0.67087  0.64000  0.05598  1.0000
  H   H2        1.0  0.82913  0.86000  0.55598  1.0000
  H   H3        1.0  0.32913  0.36000  0.94402  1.0000
  H   H4        1.0  0.17087  0.14000  0.44402  1.0000
  H   H5        1.0  0.96134  0.04033  0.65051  1.0000
  H   H6        1.0  0.53867  0.45967  0.15051  1.0000
  H   H7        1.0  0.03867  0.95967  0.34949  1.0000
  H   H8        1.0  0.46133  0.54033  0.84949  1.0000
  H   H9        1.0  0.43409  0.91338  0.62877  1.0000
  H   H10       1.0  0.06591  0.58662  0.12877  1.0000
  H   H11       1.0  0.56591  0.08662  0.37123  1.0000
  H   H12       1.0  0.93409  0.41338  0.87123  1.0000
  H   H13       1.0  0.62429  0.75438  0.20150  1.0000
  H   H14       1.0  0.87570  0.74562  0.70150  1.0000
  H   H15       1.0  0.37570  0.24562  0.79850  1.0000
  H   H16       1.0  0.12430  0.25438  0.29850  1.0000
  H   H17       1.0  0.86252  0.10449  0.57084  1.0000
  H   H18       1.0  0.63748  0.39551  0.07084  1.0000
  H   H19       1.0  0.13748  0.89551  0.42916  1.0000
  H   H20       1.0  0.36252  0.60449  0.92916  1.0000
  H   H21       1.0  0.70290  0.12733  0.02499  1.0000
  H   H22       1.0  0.79710  0.37267  0.52498  1.0000
  H   H23       1.0  0.29710  0.87267  0.97501  1.0000
  H   H24       1.0  0.20290  0.62733  0.47502  1.0000
  H   H25       1.0  0.31966  0.75553  0.66937  1.0000
  H   H26       1.0  0.18034  0.74447  0.16937  1.0000
  H   H27       1.0  0.68034  0.24447  0.33063  1.0000
  H   H28       1.0  0.81966  0.25553  0.83063  1.0000
  H   H29       1.0  0.67364  0.03570  0.19396  1.0000
  H   H30       1.0  0.82635  0.46429  0.69396  1.0000
  H   H31       1.0  0.32636  0.96430  0.80604  1.0000
  H   H32       1.0  0.17365  0.53571  0.30604  1.0000
  H   H33       1.0  0.17784  0.41240  0.14417  1.0000
  H   H34       1.0  0.32216  0.08760  0.64416  1.0000
  H   H35       1.0  0.82216  0.58760  0.85583  1.0000
  H   H36       1.0  0.67784  0.91240  0.35584  1.0000
  H   H37       1.0  0.00179  0.36295  0.18210  1.0000
  H   H38       1.0  0.49821  0.13705  0.68210  1.0000
  H   H39       1.0  0.99821  0.63705  0.81790  1.0000
  H   H40       1.0  0.50179  0.86295  0.31790  1.0000
  C   C1        1.0  0.88260  0.98625  0.19669  1.0000
  C   C2        1.0  0.61740  0.51375  0.69669  1.0000
  C   C3        1.0  0.11740  0.01374  0.80331  1.0000
  C   C4        1.0  0.38260  0.48625  0.30331  1.0000
  C   C5        1.0  0.73328  0.98246  0.13687  1.0000
  C   C6        1.0  0.76672  0.51754  0.63687  1.0000
  C   C7        1.0  0.26672  0.01754  0.86313  1.0000
  C   C8        1.0  0.23328  0.48246  0.36313  1.0000
  C   C9        1.0  0.46259  0.80490  0.09677  1.0000
  C   C10       1.0  0.03741  0.69510  0.59677  1.0000
  C   C11       1.0  0.53742  0.19510  0.90323  1.0000
  C   C12       1.0  0.96259  0.30490  0.40323  1.0000
  C   C13       1.0  0.62896  0.81327  0.12056  1.0000
  C   C14       1.0  0.87104  0.68673  0.62056  1.0000
  C   C15       1.0  0.37104  0.18673  0.87944  1.0000
  C   C16       1.0  0.12896  0.31327  0.37944  1.0000
  O   O1        1.0  0.41066  0.78221  0.99595  1.0000
  O   O2        1.0  0.08934  0.71779  0.49594  1.0000
  O   O3        1.0  0.58934  0.21779  0.00406  1.0000
  O   O4        1.0  0.91066  0.28221  0.50406  1.0000
  O   O5        1.0  0.07142  0.39836  0.11563  1.0000
  O   O6        1.0  0.42858  0.10164  0.61563  1.0000
  O   O7        1.0  0.92858  0.60164  0.88437  1.0000
  O   O8        1.0  0.57142  0.89836  0.38437  1.0000
  O   O9        1.0  0.76527  0.05899  0.03182  1.0000
  O   O10       1.0  0.73473  0.44101  0.53182  1.0000
  O   O11       1.0  0.23473  0.94101  0.96818  1.0000
  O   O12       1.0  0.26527  0.55899  0.46818  1.0000
  O   O13       1.0  0.01057  0.03329  0.14455  1.0000
  O   O14       1.0  0.48942  0.46671  0.64455  1.0000
  O   O15       1.0  0.98943  0.96671  0.85545  1.0000
  O   O16       1.0  0.51058  0.53329  0.35545  1.0000
  O   O17       1.0  0.43239  0.81427  0.65818  1.0000
  O   O18       1.0  0.06761  0.68573  0.15818  1.0000
  O   O19       1.0  0.56761  0.18573  0.34182  1.0000
  O   O20       1.0  0.93239  0.31427  0.84182  1.0000
  O   O21       1.0  0.38965  0.83009  0.18132  1.0000
  O   O22       1.0  0.11035  0.66990  0.68132  1.0000
  O   O23       1.0  0.61035  0.16990  0.81868  1.0000
  O   O24       1.0  0.88965  0.33010  0.31868  1.0000
  O   O25       1.0  0.86298  0.93410  0.29794  1.0000
  O   O26       1.0  0.63701  0.56590  0.79793  1.0000
  O   O27       1.0  0.13702  0.06590  0.70206  1.0000
  O   O28       1.0  0.36299  0.43410  0.20207  1.0000
  O   O29       1.0  0.85362  0.01590  0.61865  1.0000
  O   O30       1.0  0.64638  0.48410  0.11865  1.0000
  O   O31       1.0  0.14638  0.98410  0.38135  1.0000
  O   O32       1.0  0.35362  0.51590  0.88135  1.0000
  O   O33       1.0  0.69633  0.75085  0.03539  1.0000
  O   O34       1.0  0.80367  0.74915  0.53539  1.0000
  O   O35       1.0  0.30367  0.24915  0.96461  1.0000
  O   O36       1.0  0.19633  0.25085  0.46461  1.0000
