data_image0
_chemical_formula_structural       Zn2H38C24N4Cl2O6
_chemical_formula_sum              "Zn2 H38 C24 N4 Cl2 O6"
_cell_length_a       7.25415
_cell_length_b       9.74805
_cell_length_c       9.34938
_cell_angle_alpha    89.9996
_cell_angle_beta     93.9281
_cell_angle_gamma    89.9993

_space_group_name_H-M_alt    "P 1"
_space_group_IT_number       1

loop_
  _space_group_symop_operation_xyz
  'x, y, z'

loop_
  _atom_site_type_symbol
  _atom_site_label
  _atom_site_symmetry_multiplicity
  _atom_site_fract_x
  _atom_site_fract_y
  _atom_site_fract_z
  _atom_site_occupancy
  Zn  Zn1       1.0  0.82653  0.86198  0.52127  1.0000
  Zn  Zn2       1.0  0.17349  0.36198  0.47873  1.0000
  H   H1        1.0  0.15476  0.64733  0.58432  1.0000
  H   H2        1.0  0.84525  0.14732  0.41567  1.0000
  H   H3        1.0  0.50931  0.26388  0.53047  1.0000
  H   H4        1.0  0.49070  0.76388  0.46952  1.0000
  H   H5        1.0  0.45428  0.45526  0.97039  1.0000
  H   H6        1.0  0.54570  0.95527  0.02962  1.0000
  H   H7        1.0  0.43723  0.61195  0.87327  1.0000
  H   H8        1.0  0.56273  0.11196  0.12674  1.0000
  H   H9        1.0  0.74258  0.59119  0.79412  1.0000
  H   H10       1.0  0.25739  0.09119  0.20588  1.0000
  H   H11       1.0  0.85867  0.36036  0.71710  1.0000
  H   H12       1.0  0.14131  0.86034  0.28290  1.0000
  H   H13       1.0  0.61434  0.20699  0.91178  1.0000
  H   H14       1.0  0.38566  0.70699  0.08822  1.0000
  H   H15       1.0  0.67651  0.15444  0.74416  1.0000
  H   H16       1.0  0.32350  0.65443  0.25583  1.0000
  H   H17       1.0  0.03208  0.57321  0.03076  1.0000
  H   H18       1.0  0.96792  0.07320  0.96923  1.0000
  H   H19       1.0  0.13010  0.41510  0.98646  1.0000
  H   H20       1.0  0.86989  0.91510  0.01353  1.0000
  H   H21       1.0  0.05482  0.53237  0.84742  1.0000
  H   H22       1.0  0.94516  0.03237  0.15257  1.0000
  H   H23       1.0  0.63912  0.34976  0.09888  1.0000
  H   H24       1.0  0.36087  0.84976  0.90112  1.0000
  H   H25       1.0  0.85032  0.41582  0.17587  1.0000
  H   H26       1.0  0.14967  0.91582  0.82413  1.0000
  H   H27       1.0  0.84661  0.25481  0.09291  1.0000
  H   H28       1.0  0.15339  0.75481  0.90708  1.0000
  H   H29       1.0  0.29722  0.24212  0.93687  1.0000
  H   H30       1.0  0.70279  0.74212  0.06312  1.0000
  H   H31       1.0  0.31543  0.09384  0.83120  1.0000
  H   H32       1.0  0.68458  0.59385  0.16879  1.0000
  H   H33       1.0  0.14327  0.21990  0.78259  1.0000
  H   H34       1.0  0.85673  0.71990  0.21740  1.0000
  H   H35       1.0  0.41697  0.01915  0.62915  1.0000
  H   H36       1.0  0.58307  0.51915  0.37086  1.0000
  H   H37       1.0  0.40494  0.06880  0.44776  1.0000
  H   H38       1.0  0.59507  0.56881  0.55225  1.0000
  C   C1        1.0  0.14414  0.06671  0.53264  1.0000
  C   C2        1.0  0.85587  0.56671  0.46738  1.0000
  C   C3        1.0  0.42620  0.27734  0.73743  1.0000
  C   C4        1.0  0.57380  0.77734  0.26257  1.0000
  C   C5        1.0  0.39101  0.43112  0.74673  1.0000
  C   C6        1.0  0.60897  0.93112  0.25325  1.0000
  C   C7        1.0  0.48650  0.50604  0.86983  1.0000
  C   C8        1.0  0.51348  0.00605  0.13018  1.0000
  C   C9        1.0  0.69170  0.50041  0.84734  1.0000
  C   C10       1.0  0.30828  0.00041  0.15266  1.0000
  C   C11       1.0  0.76365  0.36112  0.80251  1.0000
  C   C12       1.0  0.23634  0.86112  0.19749  1.0000
  C   C13       1.0  0.62603  0.24363  0.80175  1.0000
  C   C14       1.0  0.37398  0.74362  0.19825  1.0000
  C   C15       1.0  0.83340  0.42525  0.94473  1.0000
  C   C16       1.0  0.16659  0.92525  0.05527  1.0000
  C   C17       1.0  0.02326  0.48964  0.95151  1.0000
  C   C18       1.0  0.97673  0.98964  0.04849  1.0000
  C   C19       1.0  0.78764  0.35840  0.08402  1.0000
  C   C20       1.0  0.21236  0.85840  0.91598  1.0000
  C   C21       1.0  0.28587  0.20389  0.82634  1.0000
  C   C22       1.0  0.71414  0.70390  0.17365  1.0000
  C   C23       1.0  0.35164  0.09273  0.55212  1.0000
  C   C24       1.0  0.64838  0.59274  0.44789  1.0000
  N   N1        1.0  0.39613  0.23672  0.58365  1.0000
  N   N2        1.0  0.60388  0.73672  0.41634  1.0000
  N   N3        1.0  0.28814  0.48703  0.64503  1.0000
  N   N4        1.0  0.71188  0.98702  0.35498  1.0000
  Cl  Cl1       1.0  0.71184  0.87306  0.73766  1.0000
  Cl  Cl2       1.0  0.28816  0.37306  0.26233  1.0000
  O   O1        1.0  0.09160  0.94312  0.53576  1.0000
  O   O2        1.0  0.90841  0.44312  0.46427  1.0000
  O   O3        1.0  0.03728  0.17022  0.50875  1.0000
  O   O4        1.0  0.96274  0.67021  0.49124  1.0000
  O   O5        1.0  0.26363  0.62795  0.65507  1.0000
  O   O6        1.0  0.73638  0.12795  0.34492  1.0000
