data_image0
_chemical_formula_structural       Cu2H12C12N8
_chemical_formula_sum              "Cu2 H12 C12 N8"
_cell_length_a       7.75897
_cell_length_b       7.87873
_cell_length_c       7.85287
_cell_angle_alpha    120.109
_cell_angle_beta     119.606
_cell_angle_gamma    90

_space_group_name_H-M_alt    "P 1"
_space_group_IT_number       1

loop_
  _space_group_symop_operation_xyz
  'x, y, z'

loop_
  _atom_site_type_symbol
  _atom_site_label
  _atom_site_symmetry_multiplicity
  _atom_site_fract_x
  _atom_site_fract_y
  _atom_site_fract_z
  _atom_site_occupancy
  Cu  Cu1       1.0  0.75000  0.50000  0.00000  1.0000
  Cu  Cu2       1.0  0.25000  0.50000  0.00000  1.0000
  H   H1        1.0  0.58324  0.03574  0.72412  1.0000
  H   H2        1.0  0.85912  0.96426  0.27588  1.0000
  H   H3        1.0  0.91676  0.31162  0.27588  1.0000
  H   H4        1.0  0.64088  0.68838  0.72412  1.0000
  H   H5        1.0  0.41675  0.96425  0.27588  1.0000
  H   H6        1.0  0.14087  0.03575  0.72412  1.0000
  H   H7        1.0  0.08325  0.68838  0.72412  1.0000
  H   H8        1.0  0.35912  0.31163  0.27588  1.0000
  H   H9        1.0  0.76545  0.76842  0.53090  1.0000
  H   H10       1.0  0.23456  0.23158  0.46910  1.0000
  H   H11       1.0  0.73455  0.23753  0.46911  1.0000
  H   H12       1.0  0.26544  0.76247  0.53089  1.0000
  C   C1        1.0  0.73030  0.06993  0.74484  1.0000
  C   C2        1.0  0.98546  0.93007  0.25516  1.0000
  C   C3        1.0  0.76971  0.32509  0.25517  1.0000
  C   C4        1.0  0.51454  0.67491  0.74484  1.0000
  C   C5        1.0  0.26972  0.93009  0.25518  1.0000
  C   C6        1.0  0.01454  0.06991  0.74482  1.0000
  C   C7        1.0  0.23028  0.67491  0.74482  1.0000
  C   C8        1.0  0.48546  0.32509  0.25519  1.0000
  C   C9        1.0  0.82551  0.93675  0.65100  1.0000
  C   C10       1.0  0.17451  0.06325  0.34900  1.0000
  C   C11       1.0  0.67449  0.28575  0.34899  1.0000
  C   C12       1.0  0.32550  0.71426  0.65101  1.0000
  N   N1        1.0  0.85377  0.26971  0.88167  1.0000
  N   N2        1.0  0.97210  0.73029  0.11832  1.0000
  N   N3        1.0  0.64622  0.38803  0.11832  1.0000
  N   N4        1.0  0.52790  0.61197  0.88168  1.0000
  N   N5        1.0  0.14620  0.73029  0.11832  1.0000
  N   N6        1.0  0.02788  0.26971  0.88168  1.0000
  N   N7        1.0  0.35379  0.61197  0.88168  1.0000
  N   N8        1.0  0.47212  0.38803  0.11832  1.0000
