data_image0
_chemical_formula_structural       H56Rh4C68N4O16
_chemical_formula_sum              "H56 Rh4 C68 N4 O16"
_cell_length_a       10.2567
_cell_length_b       10.4578
_cell_length_c       15.5306
_cell_angle_alpha    78.7315
_cell_angle_beta     81.4038
_cell_angle_gamma    86.1223

_space_group_name_H-M_alt    "P 1"
_space_group_IT_number       1

loop_
  _space_group_symop_operation_xyz
  'x, y, z'

loop_
  _atom_site_type_symbol
  _atom_site_label
  _atom_site_symmetry_multiplicity
  _atom_site_fract_x
  _atom_site_fract_y
  _atom_site_fract_z
  _atom_site_occupancy
  H   H1        1.0  0.11738  0.04464  0.03320  1.0000
  H   H2        1.0  0.88262  0.95536  0.96680  1.0000
  H   H3        1.0  0.22137  0.84763  0.97471  1.0000
  H   H4        1.0  0.77863  0.15237  0.02529  1.0000
  H   H5        1.0  0.31152  0.86896  0.81655  1.0000
  H   H6        1.0  0.68848  0.13103  0.18345  1.0000
  H   H7        1.0  0.28544  0.07924  0.71205  1.0000
  H   H8        1.0  0.71456  0.92075  0.28796  1.0000
  H   H9        1.0  0.17806  0.27288  0.76961  1.0000
  H   H10       1.0  0.82194  0.72711  0.23039  1.0000
  H   H11       1.0  0.26651  0.48863  0.22311  1.0000
  H   H12       1.0  0.73349  0.51136  0.77689  1.0000
  H   H13       1.0  0.45557  0.55910  0.28465  1.0000
  H   H14       1.0  0.54443  0.44090  0.71535  1.0000
  H   H15       1.0  0.63417  0.68267  0.18253  1.0000
  H   H16       1.0  0.36583  0.31733  0.81747  1.0000
  H   H17       1.0  0.62595  0.73473  0.02067  1.0000
  H   H18       1.0  0.37405  0.26527  0.97933  1.0000
  H   H19       1.0  0.43442  0.66652  0.96003  1.0000
  H   H20       1.0  0.56558  0.33348  0.03997  1.0000
  H   H21       1.0  0.46056  0.00515  0.19721  1.0000
  H   H22       1.0  0.53944  0.99485  0.80279  1.0000
  H   H23       1.0  0.35306  0.94702  0.07700  1.0000
  H   H24       1.0  0.64694  0.05298  0.92300  1.0000
  H   H25       1.0  0.14587  0.82359  0.11556  1.0000
  H   H26       1.0  0.85413  0.17641  0.88444  1.0000
  H   H27       1.0  0.04820  0.75815  0.27172  1.0000
  H   H28       1.0  0.95180  0.24185  0.72828  1.0000
  H   H29       1.0  0.15689  0.81525  0.39265  1.0000
  H   H30       1.0  0.84310  0.18475  0.60735  1.0000
  H   H31       1.0  0.43151  0.45778  0.45151  1.0000
  H   H32       1.0  0.56849  0.54222  0.54849  1.0000
  H   H33       1.0  0.31372  0.66549  0.48180  1.0000
  H   H34       1.0  0.68628  0.33451  0.51820  1.0000
  H   H35       1.0  0.09198  0.65777  0.57174  1.0000
  H   H36       1.0  0.90802  0.34223  0.42826  1.0000
  H   H37       1.0  0.98836  0.44513  0.63323  1.0000
  H   H38       1.0  0.01164  0.55487  0.36677  1.0000
  H   H39       1.0  0.10926  0.23770  0.60551  1.0000
  H   H40       1.0  0.89074  0.76230  0.39449  1.0000
  H   H41       1.0  0.71010  0.44452  0.18198  1.0000
  H   H42       1.0  0.28990  0.55548  0.81802  1.0000
  H   H43       1.0  0.56667  0.31821  0.31307  1.0000
  H   H44       1.0  0.43334  0.68180  0.68693  1.0000
  H   H45       1.0  0.88382  0.06276  0.36786  1.0000
  H   H46       1.0  0.11617  0.93724  0.63214  1.0000
  H   H47       1.0  0.11176  0.22893  0.17097  1.0000
  H   H48       1.0  0.88824  0.77108  0.82903  1.0000
  H   H49       1.0  0.08548  0.07842  0.24557  1.0000
  H   H50       1.0  0.91453  0.92158  0.75443  1.0000
  H   H51       1.0  0.13122  0.33643  0.30254  1.0000
  H   H52       1.0  0.86878  0.66357  0.69746  1.0000
  H   H53       1.0  0.25497  0.21152  0.28894  1.0000
  H   H54       1.0  0.74504  0.78848  0.71107  1.0000
  H   H55       1.0  0.11749  0.18060  0.37336  1.0000
  H   H56       1.0  0.88252  0.81940  0.62664  1.0000
  Rh  Rh1       1.0  0.96374  0.43497  0.07234  1.0000
  Rh  Rh2       1.0  0.03626  0.56503  0.92766  1.0000
  Rh  Rh3       1.0  0.57943  0.06378  0.44564  1.0000
  Rh  Rh4       1.0  0.42057  0.93622  0.55435  1.0000
  C   C1        1.0  0.09192  0.28875  0.94029  1.0000
  C   C2        1.0  0.90808  0.71124  0.05971  1.0000
  C   C3        1.0  0.14438  0.17037  0.90524  1.0000
  C   C4        1.0  0.85562  0.82963  0.09477  1.0000
  C   C5        1.0  0.15459  0.05038  0.96319  1.0000
  C   C6        1.0  0.84541  0.94962  0.03681  1.0000
  C   C7        1.0  0.21325  0.94189  0.93077  1.0000
  C   C8        1.0  0.78675  0.05811  0.06923  1.0000
  C   C9        1.0  0.26236  0.95316  0.84096  1.0000
  C   C10       1.0  0.73764  0.04684  0.15905  1.0000
  C   C11       1.0  0.24868  0.07145  0.78232  1.0000
  C   C12       1.0  0.75131  0.92854  0.21768  1.0000
  C   C13       1.0  0.18901  0.17965  0.81429  1.0000
  C   C14       1.0  0.81099  0.82035  0.18571  1.0000
  C   C15       1.0  0.22209  0.53844  0.05394  1.0000
  C   C16       1.0  0.77791  0.46155  0.94605  1.0000
  C   C17       1.0  0.33963  0.57356  0.08827  1.0000
  C   C18       1.0  0.66037  0.42644  0.91173  1.0000
  C   C19       1.0  0.34621  0.54188  0.17960  1.0000
  C   C20       1.0  0.65379  0.45812  0.82039  1.0000
  C   C21       1.0  0.45184  0.58133  0.21342  1.0000
  C   C22       1.0  0.54816  0.41866  0.78658  1.0000
  C   C23       1.0  0.55190  0.65105  0.15619  1.0000
  C   C24       1.0  0.44810  0.34895  0.84381  1.0000
  C   C25       1.0  0.54682  0.68109  0.06499  1.0000
  C   C26       1.0  0.45318  0.31891  0.93501  1.0000
  C   C27       1.0  0.44055  0.64321  0.03086  1.0000
  C   C28       1.0  0.55945  0.35679  0.96914  1.0000
  C   C29       1.0  0.37934  0.94872  0.37341  1.0000
  C   C30       1.0  0.62066  0.05128  0.62659  1.0000
  C   C31       1.0  0.31477  0.91432  0.30193  1.0000
  C   C32       1.0  0.68523  0.08568  0.69807  1.0000
  C   C33       1.0  0.36996  0.95157  0.21295  1.0000
  C   C34       1.0  0.63004  0.04843  0.78705  1.0000
  C   C35       1.0  0.30966  0.91866  0.14607  1.0000
  C   C36       1.0  0.69033  0.08134  0.85393  1.0000
  C   C37       1.0  0.19395  0.84920  0.16751  1.0000
  C   C38       1.0  0.80605  0.15080  0.83249  1.0000
  C   C39       1.0  0.13869  0.81189  0.25602  1.0000
  C   C40       1.0  0.86130  0.18811  0.74398  1.0000
  C   C41       1.0  0.19876  0.84380  0.32332  1.0000
  C   C42       1.0  0.80124  0.15620  0.67668  1.0000
  C   C43       1.0  0.35206  0.21286  0.51271  1.0000
  C   C44       1.0  0.64794  0.78714  0.48729  1.0000
  C   C45       1.0  0.27711  0.33573  0.52654  1.0000
  C   C46       1.0  0.72289  0.66427  0.47346  1.0000
  C   C47       1.0  0.33419  0.45639  0.49091  1.0000
  C   C48       1.0  0.66581  0.54361  0.50909  1.0000
  C   C49       1.0  0.26831  0.57186  0.50770  1.0000
  C   C50       1.0  0.73170  0.42814  0.49230  1.0000
  C   C51       1.0  0.14393  0.56744  0.55898  1.0000
  C   C52       1.0  0.85607  0.43256  0.44103  1.0000
  C   C53       1.0  0.08589  0.44779  0.59387  1.0000
  C   C54       1.0  0.91411  0.55221  0.40613  1.0000
  C   C55       1.0  0.15233  0.33202  0.57816  1.0000
  C   C56       1.0  0.84767  0.66798  0.42184  1.0000
  C   C57       1.0  0.74944  0.36009  0.22462  1.0000
  C   C58       1.0  0.25056  0.63991  0.77538  1.0000
  C   C59       1.0  0.67020  0.29050  0.29588  1.0000
  C   C60       1.0  0.32981  0.70951  0.70412  1.0000
  C   C61       1.0  0.84620  0.15017  0.32669  1.0000
  C   C62       1.0  0.15380  0.84983  0.67331  1.0000
  C   C63       1.0  0.92846  0.22098  0.25567  1.0000
  C   C64       1.0  0.07154  0.77902  0.74433  1.0000
  C   C65       1.0  0.07273  0.18493  0.23910  1.0000
  C   C66       1.0  0.92728  0.81507  0.76090  1.0000
  C   C67       1.0  0.14847  0.23102  0.30496  1.0000
  C   C68       1.0  0.85153  0.76898  0.69504  1.0000
  N   N1        1.0  0.87749  0.32488  0.20281  1.0000
  N   N2        1.0  0.12251  0.67512  0.79719  1.0000
  N   N3        1.0  0.71778  0.18245  0.34621  1.0000
  N   N4        1.0  0.28222  0.81756  0.65379  1.0000
  O   O1        1.0  0.03914  0.27388  0.02164  1.0000
  O   O2        1.0  0.96086  0.72612  0.97836  1.0000
  O   O3        1.0  0.10595  0.39809  0.88587  1.0000
  O   O4        1.0  0.89405  0.60191  0.11413  1.0000
  O   O5        1.0  0.14035  0.46423  0.10872  1.0000
  O   O6        1.0  0.85965  0.53576  0.89128  1.0000
  O   O7        1.0  0.20900  0.58755  0.97310  1.0000
  O   O8        1.0  0.79100  0.41245  0.02690  1.0000
  O   O9        1.0  0.47890  0.02184  0.35035  1.0000
  O   O10       1.0  0.52110  0.97816  0.64965  1.0000
  O   O11       1.0  0.33055  0.90135  0.45356  1.0000
  O   O12       1.0  0.66945  0.09865  0.54644  1.0000
  O   O13       1.0  0.45866  0.22425  0.45728  1.0000
  O   O14       1.0  0.54133  0.77575  0.54272  1.0000
  O   O15       1.0  0.30705  0.10502  0.55848  1.0000
  O   O16       1.0  0.69295  0.89498  0.44152  1.0000
