data_image0
_chemical_formula_structural       Re4Ag4H24C20N8O16
_chemical_formula_sum              "Re4 Ag4 H24 C20 N8 O16"
_cell_length_a       7.14497
_cell_length_b       8.01018
_cell_length_c       15.6226
_cell_angle_alpha    89.9993
_cell_angle_beta     90.0002
_cell_angle_gamma    93.3814

_space_group_name_H-M_alt    "P 1"
_space_group_IT_number       1

loop_
  _space_group_symop_operation_xyz
  'x, y, z'

loop_
  _atom_site_type_symbol
  _atom_site_label
  _atom_site_symmetry_multiplicity
  _atom_site_fract_x
  _atom_site_fract_y
  _atom_site_fract_z
  _atom_site_occupancy
  Re  Re1       1.0  0.44995  0.87999  0.37135  1.0000
  Re  Re2       1.0  0.55006  0.62002  0.87134  1.0000
  Re  Re3       1.0  0.55004  0.12001  0.62866  1.0000
  Re  Re4       1.0  0.44995  0.37998  0.12866  1.0000
  Ag  Ag1       1.0  0.44363  0.62792  0.60160  1.0000
  Ag  Ag2       1.0  0.55637  0.87208  0.10160  1.0000
  Ag  Ag3       1.0  0.55636  0.37208  0.39840  1.0000
  Ag  Ag4       1.0  0.44363  0.12793  0.89840  1.0000
  H   H1        1.0  0.13674  0.78816  0.50174  1.0000
  H   H2        1.0  0.86327  0.71184  0.00174  1.0000
  H   H3        1.0  0.86326  0.21184  0.49826  1.0000
  H   H4        1.0  0.13674  0.28816  0.99827  1.0000
  H   H5        1.0  0.78534  0.79854  0.50164  1.0000
  H   H6        1.0  0.21467  0.70145  0.00165  1.0000
  H   H7        1.0  0.21465  0.20146  0.49836  1.0000
  H   H8        1.0  0.78534  0.29854  0.99836  1.0000
  H   H9        1.0  0.75069  0.45537  0.70124  1.0000
  H   H10       1.0  0.24931  0.04462  0.20125  1.0000
  H   H11       1.0  0.24930  0.54462  0.29876  1.0000
  H   H12       1.0  0.75070  0.95539  0.79876  1.0000
  H   H13       1.0  0.27554  0.40652  0.70649  1.0000
  H   H14       1.0  0.72446  0.09349  0.20649  1.0000
  H   H15       1.0  0.72445  0.59348  0.29351  1.0000
  H   H16       1.0  0.27554  0.90652  0.79351  1.0000
  H   H17       1.0  0.07024  0.26886  0.70084  1.0000
  H   H18       1.0  0.92977  0.23114  0.20083  1.0000
  H   H19       1.0  0.92975  0.73113  0.29916  1.0000
  H   H20       1.0  0.07024  0.76887  0.79916  1.0000
  H   H21       1.0  0.08922  0.42588  0.78092  1.0000
  H   H22       1.0  0.91078  0.07412  0.28092  1.0000
  H   H23       1.0  0.91077  0.57412  0.21907  1.0000
  H   H24       1.0  0.08922  0.92589  0.71908  1.0000
  C   C1        1.0  0.03238  0.51531  0.65492  1.0000
  C   C2        1.0  0.96763  0.98468  0.15492  1.0000
  C   C3        1.0  0.96761  0.48469  0.34508  1.0000
  C   C4        1.0  0.03238  0.01532  0.84508  1.0000
  C   C5        1.0  0.05022  0.71174  0.54574  1.0000
  C   C6        1.0  0.94978  0.78826  0.04575  1.0000
  C   C7        1.0  0.94977  0.28826  0.45426  1.0000
  C   C8        1.0  0.05023  0.21174  0.95426  1.0000
  C   C9        1.0  0.85667  0.71934  0.54605  1.0000
  C   C10       1.0  0.14334  0.78065  0.04606  1.0000
  C   C11       1.0  0.14333  0.28065  0.45394  1.0000
  C   C12       1.0  0.85667  0.21935  0.95395  1.0000
  C   C13       1.0  0.83747  0.52776  0.65556  1.0000
  C   C14       1.0  0.16254  0.97223  0.15557  1.0000
  C   C15       1.0  0.16253  0.47223  0.34443  1.0000
  C   C16       1.0  0.83747  0.02778  0.84443  1.0000
  C   C17       1.0  0.12283  0.39813  0.71396  1.0000
  C   C18       1.0  0.87717  0.10187  0.21396  1.0000
  C   C19       1.0  0.87716  0.60186  0.28604  1.0000
  C   C20       1.0  0.12283  0.89814  0.78604  1.0000
  N   N1        1.0  0.13763  0.60989  0.59935  1.0000
  N   N2        1.0  0.86237  0.89010  0.09935  1.0000
  N   N3        1.0  0.86236  0.39011  0.40065  1.0000
  N   N4        1.0  0.13764  0.10989  0.90065  1.0000
  N   N5        1.0  0.75023  0.62663  0.60131  1.0000
  N   N6        1.0  0.24977  0.87336  0.10132  1.0000
  N   N7        1.0  0.24976  0.37336  0.39868  1.0000
  N   N8        1.0  0.75024  0.12664  0.89868  1.0000
  O   O1        1.0  0.47994  0.70543  0.43733  1.0000
  O   O2        1.0  0.52006  0.79457  0.93732  1.0000
  O   O3        1.0  0.52004  0.29457  0.56267  1.0000
  O   O4        1.0  0.47995  0.20543  0.06268  1.0000
  O   O5        1.0  0.21634  0.93669  0.37711  1.0000
  O   O6        1.0  0.78367  0.56334  0.87711  1.0000
  O   O7        1.0  0.78365  0.06331  0.62289  1.0000
  O   O8        1.0  0.21634  0.43667  0.12289  1.0000
  O   O9        1.0  0.60571  0.04580  0.40413  1.0000
  O   O10       1.0  0.39432  0.45420  0.90412  1.0000
  O   O11       1.0  0.39428  0.95419  0.59588  1.0000
  O   O12       1.0  0.60570  0.54580  0.09588  1.0000
  O   O13       1.0  0.50050  0.82312  0.26560  1.0000
  O   O14       1.0  0.49950  0.67691  0.76559  1.0000
  O   O15       1.0  0.49950  0.17689  0.73440  1.0000
  O   O16       1.0  0.50050  0.32310  0.23441  1.0000
