data_image0
_chemical_formula_structural       Gd4H48C60O36
_chemical_formula_sum              "Gd4 H48 C60 O36"
_cell_length_a       10.0593
_cell_length_b       12.4234
_cell_length_c       12.8233
_cell_angle_alpha    101.13
_cell_angle_beta     89.999
_cell_angle_gamma    90.0006

_space_group_name_H-M_alt    "P 1"
_space_group_IT_number       1

loop_
  _space_group_symop_operation_xyz
  'x, y, z'

loop_
  _atom_site_type_symbol
  _atom_site_label
  _atom_site_symmetry_multiplicity
  _atom_site_fract_x
  _atom_site_fract_y
  _atom_site_fract_z
  _atom_site_occupancy
  Gd  Gd1       1.0  0.72455  0.40092  0.92345  1.0000
  Gd  Gd2       1.0  0.22456  0.59908  0.57655  1.0000
  Gd  Gd3       1.0  0.27544  0.59910  0.07654  1.0000
  Gd  Gd4       1.0  0.77545  0.40090  0.42346  1.0000
  H   H1        1.0  0.87783  0.69402  0.11240  1.0000
  H   H2        1.0  0.37784  0.30598  0.38760  1.0000
  H   H3        1.0  0.12217  0.30599  0.88760  1.0000
  H   H4        1.0  0.62217  0.69402  0.61240  1.0000
  H   H5        1.0  0.00040  0.78934  0.27394  1.0000
  H   H6        1.0  0.50042  0.21067  0.22606  1.0000
  H   H7        1.0  0.99959  0.21067  0.72606  1.0000
  H   H8        1.0  0.49960  0.78935  0.77394  1.0000
  H   H9        1.0  0.64504  0.79294  0.46075  1.0000
  H   H10       1.0  0.14506  0.20705  0.03925  1.0000
  H   H11       1.0  0.35496  0.20705  0.53926  1.0000
  H   H12       1.0  0.85496  0.79295  0.96074  1.0000
  H   H13       1.0  0.52052  0.70353  0.29911  1.0000
  H   H14       1.0  0.02053  0.29647  0.20089  1.0000
  H   H15       1.0  0.47949  0.29647  0.70089  1.0000
  H   H16       1.0  0.97948  0.70353  0.79911  1.0000
  H   H17       1.0  0.98015  0.86255  0.65862  1.0000
  H   H18       1.0  0.48016  0.13744  0.84137  1.0000
  H   H19       1.0  0.01986  0.13745  0.34138  1.0000
  H   H20       1.0  0.51985  0.86255  0.15862  1.0000
  H   H21       1.0  0.91574  0.02127  0.80197  1.0000
  H   H22       1.0  0.41574  0.97873  0.69802  1.0000
  H   H23       1.0  0.08427  0.97874  0.19803  1.0000
  H   H24       1.0  0.58427  0.02126  0.30197  1.0000
  H   H25       1.0  0.69038  0.15767  0.57220  1.0000
  H   H26       1.0  0.19038  0.84233  0.92780  1.0000
  H   H27       1.0  0.30961  0.84234  0.42780  1.0000
  H   H28       1.0  0.80961  0.15767  0.07219  1.0000
  H   H29       1.0  0.74994  0.99975  0.43261  1.0000
  H   H30       1.0  0.24995  0.00025  0.06739  1.0000
  H   H31       1.0  0.25005  0.00025  0.56739  1.0000
  H   H32       1.0  0.75005  0.99975  0.93260  1.0000
  H   H33       1.0  0.69390  0.32077  0.13700  1.0000
  H   H34       1.0  0.19391  0.67923  0.36300  1.0000
  H   H35       1.0  0.30610  0.67923  0.86299  1.0000
  H   H36       1.0  0.80610  0.32076  0.63701  1.0000
  H   H37       1.0  0.56127  0.30001  0.06662  1.0000
  H   H38       1.0  0.06127  0.69997  0.43338  1.0000
  H   H39       1.0  0.43873  0.69999  0.93338  1.0000
  H   H40       1.0  0.93873  0.30000  0.56662  1.0000
  H   H41       1.0  0.57494  0.49080  0.74771  1.0000
  H   H42       1.0  0.07491  0.50918  0.75227  1.0000
  H   H43       1.0  0.42502  0.50922  0.25230  1.0000
  H   H44       1.0  0.92501  0.49077  0.24769  1.0000
  H   H45       1.0  0.70813  0.55638  0.76745  1.0000
  H   H46       1.0  0.20813  0.44364  0.73257  1.0000
  H   H47       1.0  0.29183  0.44363  0.23255  1.0000
  H   H48       1.0  0.79184  0.55637  0.26747  1.0000
  C   C1        1.0  0.62080  0.62941  0.10156  1.0000
  C   C2        1.0  0.12081  0.37059  0.39844  1.0000
  C   C3        1.0  0.37919  0.37060  0.89844  1.0000
  C   C4        1.0  0.87919  0.62940  0.60156  1.0000
  C   C5        1.0  0.69209  0.69204  0.19591  1.0000
  C   C6        1.0  0.19210  0.30796  0.30408  1.0000
  C   C7        1.0  0.30791  0.30796  0.80409  1.0000
  C   C8        1.0  0.80791  0.69204  0.69591  1.0000
  C   C9        1.0  0.82710  0.71706  0.18846  1.0000
  C   C10       1.0  0.32712  0.28295  0.31154  1.0000
  C   C11       1.0  0.17289  0.28295  0.81154  1.0000
  C   C12       1.0  0.67290  0.71706  0.68846  1.0000
  C   C13       1.0  0.89580  0.76943  0.27773  1.0000
  C   C14       1.0  0.39582  0.23057  0.22227  1.0000
  C   C15       1.0  0.10419  0.23057  0.72227  1.0000
  C   C16       1.0  0.60420  0.76944  0.77772  1.0000
  C   C17       1.0  0.83009  0.79493  0.37508  1.0000
  C   C18       1.0  0.33011  0.20507  0.12492  1.0000
  C   C19       1.0  0.16991  0.20508  0.62492  1.0000
  C   C20       1.0  0.66991  0.79493  0.87508  1.0000
  C   C21       1.0  0.69464  0.77307  0.38393  1.0000
  C   C22       1.0  0.19466  0.22693  0.11608  1.0000
  C   C23       1.0  0.30536  0.22693  0.61608  1.0000
  C   C24       1.0  0.80536  0.77308  0.88392  1.0000
  C   C25       1.0  0.62573  0.72265  0.29366  1.0000
  C   C26       1.0  0.12574  0.27735  0.20634  1.0000
  C   C27       1.0  0.37427  0.27735  0.70634  1.0000
  C   C28       1.0  0.87427  0.72265  0.79366  1.0000
  C   C29       1.0  0.86535  0.92077  0.53940  1.0000
  C   C30       1.0  0.36536  0.07923  0.96060  1.0000
  C   C31       1.0  0.13465  0.07924  0.46060  1.0000
  C   C32       1.0  0.63465  0.92077  0.03940  1.0000
  C   C33       1.0  0.91402  0.92671  0.64250  1.0000
  C   C34       1.0  0.41403  0.07328  0.85751  1.0000
  C   C35       1.0  0.08599  0.07329  0.35751  1.0000
  C   C36       1.0  0.58598  0.92671  0.14249  1.0000
  C   C37       1.0  0.87740  0.01484  0.72147  1.0000
  C   C38       1.0  0.37741  0.98516  0.77853  1.0000
  C   C39       1.0  0.12261  0.98517  0.27853  1.0000
  C   C40       1.0  0.62260  0.01484  0.22147  1.0000
  C   C41       1.0  0.79609  0.09883  0.69744  1.0000
  C   C42       1.0  0.29610  0.90117  0.80255  1.0000
  C   C43       1.0  0.20391  0.90118  0.30256  1.0000
  C   C44       1.0  0.70391  0.09883  0.19744  1.0000
  C   C45       1.0  0.75008  0.09177  0.59291  1.0000
  C   C46       1.0  0.25009  0.90823  0.90709  1.0000
  C   C47       1.0  0.24992  0.90824  0.40709  1.0000
  C   C48       1.0  0.74992  0.09177  0.09291  1.0000
  C   C49       1.0  0.78339  0.00280  0.51387  1.0000
  C   C50       1.0  0.28340  0.99720  0.98613  1.0000
  C   C51       1.0  0.21660  0.99721  0.48614  1.0000
  C   C52       1.0  0.71660  0.00280  0.01386  1.0000
  C   C53       1.0  0.77166  0.20011  0.77797  1.0000
  C   C54       1.0  0.27167  0.79989  0.72203  1.0000
  C   C55       1.0  0.22834  0.79990  0.22203  1.0000
  C   C56       1.0  0.72835  0.20010  0.27797  1.0000
  C   C57       1.0  0.99370  0.47549  0.05116  1.0000
  C   C58       1.0  0.49371  0.52451  0.44884  1.0000
  C   C59       1.0  0.00630  0.52453  0.94882  1.0000
  C   C60       1.0  0.50630  0.47546  0.55118  1.0000
  O   O1        1.0  0.68968  0.57266  0.02813  1.0000
  O   O2        1.0  0.18968  0.42733  0.47187  1.0000
  O   O3        1.0  0.31031  0.42734  0.97187  1.0000
  O   O4        1.0  0.81032  0.57265  0.52813  1.0000
  O   O5        1.0  0.49471  0.63633  0.10143  1.0000
  O   O6        1.0  0.99472  0.36366  0.39857  1.0000
  O   O7        1.0  0.50528  0.36367  0.89858  1.0000
  O   O8        1.0  0.00528  0.63632  0.60142  1.0000
  O   O9        1.0  0.90878  0.83343  0.46313  1.0000
  O   O10       1.0  0.40880  0.16656  0.03687  1.0000
  O   O11       1.0  0.09122  0.16657  0.53687  1.0000
  O   O12       1.0  0.59122  0.83343  0.96313  1.0000
  O   O13       1.0  0.78625  0.20297  0.87716  1.0000
  O   O14       1.0  0.28628  0.79702  0.62284  1.0000
  O   O15       1.0  0.21375  0.79704  0.12284  1.0000
  O   O16       1.0  0.71375  0.20296  0.37716  1.0000
  O   O17       1.0  0.73962  0.28890  0.74512  1.0000
  O   O18       1.0  0.23962  0.71109  0.75488  1.0000
  O   O19       1.0  0.26037  0.71111  0.25488  1.0000
  O   O20       1.0  0.76038  0.28890  0.24512  1.0000
  O   O21       1.0  0.90223  0.40627  0.05276  1.0000
  O   O22       1.0  0.40224  0.59372  0.44724  1.0000
  O   O23       1.0  0.09776  0.59375  0.94723  1.0000
  O   O24       1.0  0.59776  0.40625  0.55277  1.0000
  O   O25       1.0  0.07567  0.50975  0.12582  1.0000
  O   O26       1.0  0.57569  0.49025  0.37418  1.0000
  O   O27       1.0  0.92432  0.49026  0.87415  1.0000
  O   O28       1.0  0.42432  0.50973  0.62584  1.0000
  O   O29       1.0  0.64339  0.34221  0.07669  1.0000
  O   O30       1.0  0.14340  0.65779  0.42331  1.0000
  O   O31       1.0  0.35661  0.65780  0.92331  1.0000
  O   O32       1.0  0.85662  0.34220  0.57669  1.0000
  O   O33       1.0  0.64623  0.51186  0.79966  1.0000
  O   O34       1.0  0.14622  0.48814  0.70034  1.0000
  O   O35       1.0  0.35374  0.48815  0.20034  1.0000
  O   O36       1.0  0.85375  0.51186  0.29967  1.0000
