data_image0
_chemical_formula_structural       Cd2H36C42N4O8
_chemical_formula_sum              "Cd2 H36 C42 N4 O8"
_cell_length_a       6.90657
_cell_length_b       11.8656
_cell_length_c       13.2094
_cell_angle_alpha    91.7739
_cell_angle_beta     90.0009
_cell_angle_gamma    90.0005

_space_group_name_H-M_alt    "P 1"
_space_group_IT_number       1

loop_
  _space_group_symop_operation_xyz
  'x, y, z'

loop_
  _atom_site_type_symbol
  _atom_site_label
  _atom_site_symmetry_multiplicity
  _atom_site_fract_x
  _atom_site_fract_y
  _atom_site_fract_z
  _atom_site_occupancy
  Cd  Cd1       1.0  0.74966  0.18842  0.34742  1.0000
  Cd  Cd2       1.0  0.24967  0.81158  0.65258  1.0000
  H   H1        1.0  0.73284  0.37118  0.53918  1.0000
  H   H2        1.0  0.23285  0.62881  0.46083  1.0000
  H   H3        1.0  0.76077  0.37628  0.72880  1.0000
  H   H4        1.0  0.26077  0.62372  0.27120  1.0000
  H   H5        1.0  0.79039  0.19308  0.81741  1.0000
  H   H6        1.0  0.29040  0.80692  0.18260  1.0000
  H   H7        1.0  0.79749  0.01354  0.71542  1.0000
  H   H8        1.0  0.29749  0.98645  0.28459  1.0000
  H   H9        1.0  0.73166  0.87883  0.62918  1.0000
  H   H10       1.0  0.23166  0.12117  0.37082  1.0000
  H   H11       1.0  0.73801  0.70860  0.51661  1.0000
  H   H12       1.0  0.23800  0.29141  0.48338  1.0000
  H   H13       1.0  0.77855  0.73304  0.32717  1.0000
  H   H14       1.0  0.27854  0.26697  0.67283  1.0000
  H   H15       1.0  0.79641  0.92982  0.26366  1.0000
  H   H16       1.0  0.29640  0.07019  0.73634  1.0000
  H   H17       1.0  0.24545  0.59134  0.00563  1.0000
  H   H18       1.0  0.74545  0.40867  0.99437  1.0000
  H   H19       1.0  0.16496  0.79144  0.97622  1.0000
  H   H20       1.0  0.66495  0.20856  0.02379  1.0000
  H   H21       1.0  0.86585  0.87626  0.05232  1.0000
  H   H22       1.0  0.36583  0.12375  0.94769  1.0000
  H   H23       1.0  0.64712  0.75788  0.15511  1.0000
  H   H24       1.0  0.14709  0.24212  0.84490  1.0000
  H   H25       1.0  0.73048  0.55738  0.18472  1.0000
  H   H26       1.0  0.23045  0.44262  0.81528  1.0000
  H   H27       1.0  0.05933  0.39552  0.03782  1.0000
  H   H28       1.0  0.55932  0.60448  0.96218  1.0000
  H   H29       1.0  0.91735  0.39874  0.14958  1.0000
  H   H30       1.0  0.41735  0.60126  0.85041  1.0000
  H   H31       1.0  0.21344  0.45755  0.24998  1.0000
  H   H32       1.0  0.71343  0.54244  0.75002  1.0000
  H   H33       1.0  0.35356  0.44997  0.13682  1.0000
  H   H34       1.0  0.85355  0.55002  0.86318  1.0000
  H   H35       1.0  0.25673  0.24415  0.11590  1.0000
  H   H36       1.0  0.75676  0.75585  0.88410  1.0000
  C   C1        1.0  0.74641  0.29380  0.58123  1.0000
  C   C2        1.0  0.24642  0.70620  0.41877  1.0000
  C   C3        1.0  0.76216  0.29629  0.68639  1.0000
  C   C4        1.0  0.26217  0.70371  0.31361  1.0000
  C   C5        1.0  0.77925  0.19423  0.73516  1.0000
  C   C6        1.0  0.27925  0.80577  0.26484  1.0000
  C   C7        1.0  0.78012  0.09361  0.67809  1.0000
  C   C8        1.0  0.28013  0.90638  0.32191  1.0000
  C   C9        1.0  0.76217  0.09783  0.57245  1.0000
  C   C10       1.0  0.26217  0.90217  0.42756  1.0000
  C   C11       1.0  0.76179  0.99373  0.50702  1.0000
  C   C12       1.0  0.26178  0.00627  0.49298  1.0000
  C   C13       1.0  0.74693  0.88694  0.54804  1.0000
  C   C14       1.0  0.24693  0.11305  0.45195  1.0000
  C   C15       1.0  0.75126  0.79151  0.48405  1.0000
  C   C16       1.0  0.25126  0.20849  0.51594  1.0000
  C   C17       1.0  0.77117  0.80498  0.38015  1.0000
  C   C18       1.0  0.27117  0.19502  0.61985  1.0000
  C   C19       1.0  0.78181  0.91411  0.34425  1.0000
  C   C20       1.0  0.28180  0.08589  0.65575  1.0000
  C   C21       1.0  0.11581  0.62849  0.03978  1.0000
  C   C22       1.0  0.61581  0.37151  0.96023  1.0000
  C   C23       1.0  0.07087  0.74117  0.02354  1.0000
  C   C24       1.0  0.57086  0.25884  0.97646  1.0000
  C   C25       1.0  0.90250  0.78858  0.06569  1.0000
  C   C26       1.0  0.40248  0.21142  0.93431  1.0000
  C   C27       1.0  0.78047  0.72217  0.12345  1.0000
  C   C28       1.0  0.28045  0.27783  0.87656  1.0000
  C   C29       1.0  0.82664  0.60941  0.13988  1.0000
  C   C30       1.0  0.32661  0.39059  0.86013  1.0000
  C   C31       1.0  0.99471  0.56086  0.09792  1.0000
  C   C32       1.0  0.49469  0.43914  0.90208  1.0000
  C   C33       1.0  0.04141  0.43848  0.11246  1.0000
  C   C34       1.0  0.54140  0.56152  0.88754  1.0000
  C   C35       1.0  0.22470  0.41655  0.17455  1.0000
  C   C36       1.0  0.72469  0.58344  0.82545  1.0000
  C   C37       1.0  0.24967  0.29012  0.18910  1.0000
  C   C38       1.0  0.74968  0.70987  0.81089  1.0000
  C   C39       1.0  0.43099  0.25866  0.24820  1.0000
  C   C40       1.0  0.93101  0.74133  0.75180  1.0000
  C   C41       1.0  0.07449  0.24387  0.24588  1.0000
  C   C42       1.0  0.57451  0.75613  0.75412  1.0000
  N   N1        1.0  0.74622  0.19717  0.52585  1.0000
  N   N2        1.0  0.24622  0.80283  0.47415  1.0000
  N   N3        1.0  0.77593  0.00577  0.40602  1.0000
  N   N4        1.0  0.27593  0.99423  0.59398  1.0000
  O   O1        1.0  0.52202  0.33263  0.30087  1.0000
  O   O2        1.0  0.02203  0.66735  0.69912  1.0000
  O   O3        1.0  0.48177  0.15448  0.24360  1.0000
  O   O4        1.0  0.98178  0.84551  0.75639  1.0000
  O   O5        1.0  0.99245  0.15394  0.21407  1.0000
  O   O6        1.0  0.49247  0.84606  0.78593  1.0000
  O   O7        1.0  0.01768  0.30040  0.32482  1.0000
  O   O8        1.0  0.51768  0.69960  0.67518  1.0000
