data_image0
_chemical_formula_structural       La2H34C20O16
_chemical_formula_sum              "La2 H34 C20 O16"
_cell_length_a       6.97679
_cell_length_b       8.96856
_cell_length_c       12.2148
_cell_angle_alpha    111.86
_cell_angle_beta     92.6139
_cell_angle_gamma    103.08

_space_group_name_H-M_alt    "P 1"
_space_group_IT_number       1

loop_
  _space_group_symop_operation_xyz
  'x, y, z'

loop_
  _atom_site_type_symbol
  _atom_site_label
  _atom_site_symmetry_multiplicity
  _atom_site_fract_x
  _atom_site_fract_y
  _atom_site_fract_z
  _atom_site_occupancy
  La  La1       1.0  0.23371  0.92752  0.58414  1.0000
  La  La2       1.0  0.76633  0.07251  0.41586  1.0000
  H   H1        1.0  0.20479  0.89459  0.95209  1.0000
  H   H2        1.0  0.79517  0.10539  0.04791  1.0000
  H   H3        1.0  0.06586  0.64332  0.98680  1.0000
  H   H4        1.0  0.93414  0.35666  0.01320  1.0000
  H   H5        1.0  0.91616  0.64397  0.86599  1.0000
  H   H6        1.0  0.08380  0.35600  0.13403  1.0000
  H   H7        1.0  0.07567  0.45165  0.72084  1.0000
  H   H8        1.0  0.92431  0.54833  0.27917  1.0000
  H   H9        1.0  0.97603  0.36247  0.81973  1.0000
  H   H10       1.0  0.02399  0.63752  0.18028  1.0000
  H   H11       1.0  0.30801  0.44396  0.93630  1.0000
  H   H12       1.0  0.69201  0.55605  0.06371  1.0000
  H   H13       1.0  0.46760  0.58400  0.75414  1.0000
  H   H14       1.0  0.53236  0.41600  0.24585  1.0000
  H   H15       1.0  0.60905  0.58255  0.87783  1.0000
  H   H16       1.0  0.39095  0.41746  0.12214  1.0000
  H   H17       1.0  0.54766  0.86116  0.91822  1.0000
  H   H18       1.0  0.45230  0.13885  0.08177  1.0000
  H   H19       1.0  0.44825  0.77557  0.01797  1.0000
  H   H20       1.0  0.55174  0.22442  0.98202  1.0000
  H   H21       1.0  0.70065  0.14005  0.83367  1.0000
  H   H22       1.0  0.29937  0.85995  0.16633  1.0000
  H   H23       1.0  0.93295  0.08091  0.82976  1.0000
  H   H24       1.0  0.06705  0.91907  0.17023  1.0000
  H   H25       1.0  0.69540  0.92928  0.78693  1.0000
  H   H26       1.0  0.30459  0.07071  0.21305  1.0000
  H   H27       1.0  0.43458  0.67847  0.39113  1.0000
  H   H28       1.0  0.56545  0.32155  0.60888  1.0000
  H   H29       1.0  0.20926  0.57414  0.37787  1.0000
  H   H30       1.0  0.79072  0.42594  0.62210  1.0000
  H   H31       1.0  0.87704  0.66923  0.55638  1.0000
  H   H32       1.0  0.12307  0.33083  0.44365  1.0000
  H   H33       1.0  0.80787  0.68964  0.43621  1.0000
  H   H34       1.0  0.19215  0.31038  0.56381  1.0000
  C   C1        1.0  0.20392  0.78808  0.76746  1.0000
  C   C2        1.0  0.79605  0.21189  0.23253  1.0000
  C   C3        1.0  0.22582  0.77604  0.88894  1.0000
  C   C4        1.0  0.77415  0.22395  0.11105  1.0000
  C   C5        1.0  0.06237  0.63291  0.89395  1.0000
  C   C6        1.0  0.93761  0.36707  0.10605  1.0000
  C   C7        1.0  0.09141  0.46446  0.81418  1.0000
  C   C8        1.0  0.90858  0.53553  0.18582  1.0000
  C   C9        1.0  0.29903  0.44639  0.84669  1.0000
  C   C10       1.0  0.70097  0.55361  0.15332  1.0000
  C   C11       1.0  0.46391  0.59209  0.84603  1.0000
  C   C12       1.0  0.53607  0.40791  0.15396  1.0000
  C   C13       1.0  0.43151  0.76019  0.92409  1.0000
  C   C14       1.0  0.56847  0.23981  0.07590  1.0000
  C   C15       1.0  0.32001  0.27970  0.76145  1.0000
  C   C16       1.0  0.68000  0.72030  0.23857  1.0000
  C   C17       1.0  0.77349  0.03209  0.65989  1.0000
  C   C18       1.0  0.22654  0.96793  0.34010  1.0000
  C   C19       1.0  0.78019  0.04795  0.78630  1.0000
  C   C20       1.0  0.21982  0.95205  0.21368  1.0000
  O   O1        1.0  0.35806  0.80797  0.71644  1.0000
  O   O2        1.0  0.64191  0.19206  0.28357  1.0000
  O   O3        1.0  0.03422  0.78611  0.72164  1.0000
  O   O4        1.0  0.96570  0.21378  0.27835  1.0000
  O   O5        1.0  0.91979  0.67792  0.48331  1.0000
  O   O6        1.0  0.08026  0.32209  0.51668  1.0000
  O   O7        1.0  0.31518  0.66704  0.43206  1.0000
  O   O8        1.0  0.68484  0.33298  0.56794  1.0000
  O   O9        1.0  0.60777  0.00551  0.59754  1.0000
  O   O10       1.0  0.39225  0.99451  0.40246  1.0000
  O   O11       1.0  0.93273  0.04836  0.61242  1.0000
  O   O12       1.0  0.06728  0.95166  0.38758  1.0000
  O   O13       1.0  0.34229  0.25772  0.65166  1.0000
  O   O14       1.0  0.65773  0.74229  0.34836  1.0000
  O   O15       1.0  0.30816  0.16083  0.79489  1.0000
  O   O16       1.0  0.69185  0.83917  0.20512  1.0000
