data_image0
_chemical_formula_structural       Cs4H24Pd4C12N4Cl8O12
_chemical_formula_sum              "Cs4 H24 Pd4 C12 N4 Cl8 O12"
_cell_length_a       4.53681
_cell_length_b       11.5551
_cell_length_c       17.0277
_cell_angle_alpha    89.9997
_cell_angle_beta     90
_cell_angle_gamma    90

_space_group_name_H-M_alt    "P 1"
_space_group_IT_number       1

loop_
  _space_group_symop_operation_xyz
  'x, y, z'

loop_
  _atom_site_type_symbol
  _atom_site_label
  _atom_site_symmetry_multiplicity
  _atom_site_fract_x
  _atom_site_fract_y
  _atom_site_fract_z
  _atom_site_occupancy
  Cs  Cs1       1.0  0.65819  0.38578  0.10494  1.0000
  Cs  Cs2       1.0  0.65819  0.61422  0.89506  1.0000
  Cs  Cs3       1.0  0.34181  0.11422  0.60494  1.0000
  Cs  Cs4       1.0  0.34181  0.88578  0.39506  1.0000
  H   H1        1.0  0.57213  0.61760  0.24011  1.0000
  H   H2        1.0  0.57213  0.38240  0.75989  1.0000
  H   H3        1.0  0.42787  0.88240  0.74011  1.0000
  H   H4        1.0  0.42787  0.11760  0.25989  1.0000
  H   H5        1.0  0.15324  0.42389  0.45221  1.0000
  H   H6        1.0  0.15324  0.57610  0.54779  1.0000
  H   H7        1.0  0.84675  0.07611  0.95221  1.0000
  H   H8        1.0  0.84675  0.92389  0.04779  1.0000
  H   H9        1.0  0.43385  0.50338  0.41692  1.0000
  H   H10       1.0  0.43385  0.49662  0.58308  1.0000
  H   H11       1.0  0.56614  0.99662  0.91692  1.0000
  H   H12       1.0  0.56614  0.00338  0.08308  1.0000
  H   H13       1.0  0.91882  0.42855  0.34021  1.0000
  H   H14       1.0  0.91882  0.57145  0.65979  1.0000
  H   H15       1.0  0.08119  0.07144  0.84021  1.0000
  H   H16       1.0  0.08119  0.92855  0.15979  1.0000
  H   H17       1.0  0.09041  0.54077  0.23093  1.0000
  H   H18       1.0  0.09041  0.45923  0.76907  1.0000
  H   H19       1.0  0.90958  0.95922  0.73093  1.0000
  H   H20       1.0  0.90958  0.04077  0.26907  1.0000
  H   H21       1.0  0.16075  0.61669  0.31965  1.0000
  H   H22       1.0  0.16075  0.38331  0.68035  1.0000
  H   H23       1.0  0.83925  0.88331  0.81965  1.0000
  H   H24       1.0  0.83925  0.11669  0.18035  1.0000
  Pd  Pd1       1.0  0.57482  0.28857  0.42064  1.0000
  Pd  Pd2       1.0  0.57482  0.71143  0.57936  1.0000
  Pd  Pd3       1.0  0.42519  0.21143  0.92064  1.0000
  Pd  Pd4       1.0  0.42518  0.78857  0.07936  1.0000
  C   C1        1.0  0.23551  0.32434  0.28208  1.0000
  C   C2        1.0  0.23552  0.67566  0.71792  1.0000
  C   C3        1.0  0.76449  0.17566  0.78208  1.0000
  C   C4        1.0  0.76449  0.82434  0.21792  1.0000
  C   C5        1.0  0.15904  0.43136  0.33046  1.0000
  C   C6        1.0  0.15904  0.56865  0.66954  1.0000
  C   C7        1.0  0.84097  0.06865  0.83046  1.0000
  C   C8        1.0  0.84097  0.93135  0.16954  1.0000
  C   C9        1.0  0.22612  0.54071  0.28453  1.0000
  C   C10       1.0  0.22612  0.45929  0.71547  1.0000
  C   C11       1.0  0.77388  0.95929  0.78453  1.0000
  C   C12       1.0  0.77388  0.04071  0.21547  1.0000
  N   N1        1.0  0.30903  0.42972  0.40829  1.0000
  N   N2        1.0  0.30903  0.57028  0.59171  1.0000
  N   N3        1.0  0.69097  0.07028  0.90829  1.0000
  N   N4        1.0  0.69097  0.92972  0.09171  1.0000
  Cl  Cl1       1.0  0.84571  0.11911  0.42981  1.0000
  Cl  Cl2       1.0  0.84571  0.88089  0.57019  1.0000
  Cl  Cl3       1.0  0.15430  0.38089  0.92981  1.0000
  Cl  Cl4       1.0  0.15429  0.61911  0.07019  1.0000
  Cl  Cl5       1.0  0.76334  0.35276  0.53871  1.0000
  Cl  Cl6       1.0  0.76333  0.64724  0.46129  1.0000
  Cl  Cl7       1.0  0.23666  0.14724  0.03871  1.0000
  Cl  Cl8       1.0  0.23666  0.85276  0.96129  1.0000
  O   O1        1.0  0.40831  0.24659  0.31396  1.0000
  O   O2        1.0  0.40831  0.75341  0.68604  1.0000
  O   O3        1.0  0.59171  0.25341  0.81396  1.0000
  O   O4        1.0  0.59170  0.74659  0.18604  1.0000
  O   O5        1.0  0.13646  0.31252  0.21464  1.0000
  O   O6        1.0  0.13646  0.68749  0.78536  1.0000
  O   O7        1.0  0.86355  0.18748  0.71464  1.0000
  O   O8        1.0  0.86356  0.81251  0.28536  1.0000
  O   O9        1.0  0.53251  0.54207  0.26596  1.0000
  O   O10       1.0  0.53250  0.45793  0.73404  1.0000
  O   O11       1.0  0.46749  0.95793  0.76596  1.0000
  O   O12       1.0  0.46749  0.04207  0.23404  1.0000
