data_image0
_chemical_formula_structural       Al4P8H44C40N8O32
_chemical_formula_sum              "Al4 P8 H44 C40 N8 O32"
_cell_length_a       8.31631
_cell_length_b       10.9062
_cell_length_c       15.6925
_cell_angle_alpha    89.9998
_cell_angle_beta     89.9999
_cell_angle_gamma    109.29

_space_group_name_H-M_alt    "P 1"
_space_group_IT_number       1

loop_
  _space_group_symop_operation_xyz
  'x, y, z'

loop_
  _atom_site_type_symbol
  _atom_site_label
  _atom_site_symmetry_multiplicity
  _atom_site_fract_x
  _atom_site_fract_y
  _atom_site_fract_z
  _atom_site_occupancy
  Al  Al1       1.0  0.45470  0.33552  0.11582  1.0000
  Al  Al2       1.0  0.04530  0.66448  0.61582  1.0000
  Al  Al3       1.0  0.54530  0.66448  0.88418  1.0000
  Al  Al4       1.0  0.95469  0.33552  0.38418  1.0000
  P   P1        1.0  0.37553  0.35278  0.91981  1.0000
  P   P2        1.0  0.12448  0.64722  0.41981  1.0000
  P   P3        1.0  0.62447  0.64722  0.08019  1.0000
  P   P4        1.0  0.87553  0.35278  0.58020  1.0000
  P   P5        1.0  0.18810  0.44390  0.21460  1.0000
  P   P6        1.0  0.31189  0.55610  0.71461  1.0000
  P   P7        1.0  0.81190  0.55609  0.78540  1.0000
  P   P8        1.0  0.68811  0.44390  0.28539  1.0000
  H   H1        1.0  0.18909  0.35023  0.82310  1.0000
  H   H2        1.0  0.31091  0.64976  0.32309  1.0000
  H   H3        1.0  0.81091  0.64976  0.17690  1.0000
  H   H4        1.0  0.68909  0.35024  0.67691  1.0000
  H   H5        1.0  0.56911  0.36281  0.81971  1.0000
  H   H6        1.0  0.93089  0.63719  0.31970  1.0000
  H   H7        1.0  0.43089  0.63719  0.18030  1.0000
  H   H8        1.0  0.06911  0.36281  0.68030  1.0000
  H   H9        1.0  0.98382  0.52290  0.18976  1.0000
  H   H10       1.0  0.51617  0.47710  0.68977  1.0000
  H   H11       1.0  0.01617  0.47710  0.81024  1.0000
  H   H12       1.0  0.48382  0.52290  0.31023  1.0000
  H   H13       1.0  0.12153  0.15534  0.19213  1.0000
  H   H14       1.0  0.37847  0.84466  0.69213  1.0000
  H   H15       1.0  0.87847  0.84466  0.80787  1.0000
  H   H16       1.0  0.62153  0.15534  0.30787  1.0000
  H   H17       1.0  0.98528  0.91343  0.21047  1.0000
  H   H18       1.0  0.51473  0.08657  0.71047  1.0000
  H   H19       1.0  0.01473  0.08657  0.78953  1.0000
  H   H20       1.0  0.48528  0.91343  0.28953  1.0000
  H   H21       1.0  0.15757  0.76896  0.17332  1.0000
  H   H22       1.0  0.34243  0.23104  0.67333  1.0000
  H   H23       1.0  0.84243  0.23104  0.82668  1.0000
  H   H24       1.0  0.65758  0.76896  0.32667  1.0000
  H   H25       1.0  0.45001  0.86899  0.11942  1.0000
  H   H26       1.0  0.04999  0.13101  0.61942  1.0000
  H   H27       1.0  0.54999  0.13101  0.88058  1.0000
  H   H28       1.0  0.95001  0.86899  0.38058  1.0000
  H   H29       1.0  0.70852  0.97210  0.09133  1.0000
  H   H30       1.0  0.79148  0.02790  0.59133  1.0000
  H   H31       1.0  0.29148  0.02790  0.90867  1.0000
  H   H32       1.0  0.20853  0.97210  0.40867  1.0000
  H   H33       1.0  0.99114  0.10681  0.03102  1.0000
  H   H34       1.0  0.50886  0.89319  0.53101  1.0000
  H   H35       1.0  0.00886  0.89319  0.96899  1.0000
  H   H36       1.0  0.49114  0.10682  0.46899  1.0000
  H   H37       1.0  0.04120  0.33936  0.99772  1.0000
  H   H38       1.0  0.45881  0.66064  0.49772  1.0000
  H   H39       1.0  0.95880  0.66064  0.00228  1.0000
  H   H40       1.0  0.54119  0.33936  0.50228  1.0000
  H   H41       1.0  0.80743  0.43273  0.02739  1.0000
  H   H42       1.0  0.69258  0.56727  0.52739  1.0000
  H   H43       1.0  0.19257  0.56727  0.97261  1.0000
  H   H44       1.0  0.30742  0.43273  0.47261  1.0000
  C   C1        1.0  0.18857  0.08765  0.17657  1.0000
  C   C2        1.0  0.31143  0.91235  0.67658  1.0000
  C   C3        1.0  0.81143  0.91235  0.82342  1.0000
  C   C4        1.0  0.68857  0.08765  0.32342  1.0000
  C   C5        1.0  0.11543  0.95403  0.18763  1.0000
  C   C6        1.0  0.38457  0.04597  0.68763  1.0000
  C   C7        1.0  0.88457  0.04597  0.81238  1.0000
  C   C8        1.0  0.61543  0.95403  0.31237  1.0000
  C   C9        1.0  0.21045  0.87420  0.16682  1.0000
  C   C10       1.0  0.28956  0.12580  0.66682  1.0000
  C   C11       1.0  0.78956  0.12580  0.83319  1.0000
  C   C12       1.0  0.71044  0.87421  0.33318  1.0000
  C   C13       1.0  0.37528  0.93066  0.13594  1.0000
  C   C14       1.0  0.12472  0.06934  0.63594  1.0000
  C   C15       1.0  0.62472  0.06934  0.86406  1.0000
  C   C16       1.0  0.87528  0.93066  0.36405  1.0000
  C   C17       1.0  0.44020  0.06512  0.12558  1.0000
  C   C18       1.0  0.05980  0.93488  0.62558  1.0000
  C   C19       1.0  0.55980  0.93488  0.87442  1.0000
  C   C20       1.0  0.94020  0.06512  0.37442  1.0000
  C   C21       1.0  0.61149  0.13370  0.09155  1.0000
  C   C22       1.0  0.88852  0.86630  0.59155  1.0000
  C   C23       1.0  0.38851  0.86630  0.90845  1.0000
  C   C24       1.0  0.11149  0.13370  0.40845  1.0000
  C   C25       1.0  0.73473  0.07454  0.07687  1.0000
  C   C26       1.0  0.76528  0.92546  0.57687  1.0000
  C   C27       1.0  0.26527  0.92546  0.92313  1.0000
  C   C28       1.0  0.23472  0.07454  0.42313  1.0000
  C   C29       1.0  0.89159  0.14913  0.04316  1.0000
  C   C30       1.0  0.60841  0.85086  0.54316  1.0000
  C   C31       1.0  0.10841  0.85087  0.95684  1.0000
  C   C32       1.0  0.39159  0.14914  0.45684  1.0000
  C   C33       1.0  0.92056  0.27938  0.02444  1.0000
  C   C34       1.0  0.57944  0.72062  0.52443  1.0000
  C   C35       1.0  0.07944  0.72062  0.97557  1.0000
  C   C36       1.0  0.42056  0.27938  0.47556  1.0000
  C   C37       1.0  0.79234  0.33186  0.04111  1.0000
  C   C38       1.0  0.70767  0.66814  0.54110  1.0000
  C   C39       1.0  0.20766  0.66814  0.95890  1.0000
  C   C40       1.0  0.29234  0.33187  0.45889  1.0000
  N   N1        1.0  0.34640  0.14183  0.14507  1.0000
  N   N2        1.0  0.15360  0.85816  0.64507  1.0000
  N   N3        1.0  0.65359  0.85817  0.85493  1.0000
  N   N4        1.0  0.84641  0.14184  0.35493  1.0000
  N   N5        1.0  0.64248  0.26134  0.07506  1.0000
  N   N6        1.0  0.85752  0.73866  0.57506  1.0000
  N   N7        1.0  0.35752  0.73866  0.92494  1.0000
  N   N8        1.0  0.14248  0.26134  0.42494  1.0000
  O   O1        1.0  0.35151  0.29055  0.00718  1.0000
  O   O2        1.0  0.14849  0.70945  0.50718  1.0000
  O   O3        1.0  0.64849  0.70945  0.99282  1.0000
  O   O4        1.0  0.85151  0.29055  0.49282  1.0000
  O   O5        1.0  0.20386  0.28777  0.86929  1.0000
  O   O6        1.0  0.29614  0.71223  0.36929  1.0000
  O   O7        1.0  0.79614  0.71223  0.13071  1.0000
  O   O8        1.0  0.70386  0.28777  0.63071  1.0000
  O   O9        1.0  0.51940  0.31232  0.87381  1.0000
  O   O10       1.0  0.98061  0.68768  0.37380  1.0000
  O   O11       1.0  0.48060  0.68768  0.12619  1.0000
  O   O12       1.0  0.01939  0.31232  0.62619  1.0000
  O   O13       1.0  0.41573  0.49914  0.91781  1.0000
  O   O14       1.0  0.08426  0.50085  0.41780  1.0000
  O   O15       1.0  0.58427  0.50085  0.08220  1.0000
  O   O16       1.0  0.91573  0.49914  0.58219  1.0000
  O   O17       1.0  0.26360  0.36916  0.15354  1.0000
  O   O18       1.0  0.23640  0.63084  0.65355  1.0000
  O   O19       1.0  0.73640  0.63084  0.84646  1.0000
  O   O20       1.0  0.76360  0.36916  0.34645  1.0000
  O   O21       1.0  0.33692  0.55345  0.25852  1.0000
  O   O22       1.0  0.16307  0.44655  0.75853  1.0000
  O   O23       1.0  0.66307  0.44655  0.74148  1.0000
  O   O24       1.0  0.83693  0.55345  0.24147  1.0000
  O   O25       1.0  0.08671  0.51506  0.15827  1.0000
  O   O26       1.0  0.41328  0.48493  0.65828  1.0000
  O   O27       1.0  0.91329  0.48493  0.84173  1.0000
  O   O28       1.0  0.58672  0.51507  0.34172  1.0000
  O   O29       1.0  0.06436  0.35437  0.27739  1.0000
  O   O30       1.0  0.43563  0.64563  0.77740  1.0000
  O   O31       1.0  0.93563  0.64563  0.72260  1.0000
  O   O32       1.0  0.56436  0.35437  0.22260  1.0000
