data_image0
_chemical_formula_structural       Li4H48C56S4N12O4
_chemical_formula_sum              "Li4 H48 C56 S4 N12 O4"
_cell_length_a       7.10048
_cell_length_b       12.3348
_cell_length_c       16.9352
_cell_angle_alpha    91.1317
_cell_angle_beta     90.0001
_cell_angle_gamma    90.0004

_space_group_name_H-M_alt    "P 1"
_space_group_IT_number       1

loop_
  _space_group_symop_operation_xyz
  'x, y, z'

loop_
  _atom_site_type_symbol
  _atom_site_label
  _atom_site_symmetry_multiplicity
  _atom_site_fract_x
  _atom_site_fract_y
  _atom_site_fract_z
  _atom_site_occupancy
  Li  Li1       1.0  0.12475  0.50952  0.58791  1.0000
  Li  Li2       1.0  0.62475  0.99048  0.91209  1.0000
  Li  Li3       1.0  0.87525  0.49049  0.41209  1.0000
  Li  Li4       1.0  0.37526  0.00951  0.08791  1.0000
  H   H1        1.0  0.36946  0.67753  0.52543  1.0000
  H   H2        1.0  0.86947  0.82247  0.97457  1.0000
  H   H3        1.0  0.63053  0.32247  0.47457  1.0000
  H   H4        1.0  0.13055  0.17753  0.02543  1.0000
  H   H5        1.0  0.61100  0.63740  0.53784  1.0000
  H   H6        1.0  0.11101  0.86260  0.96216  1.0000
  H   H7        1.0  0.38899  0.36260  0.46216  1.0000
  H   H8        1.0  0.88900  0.13740  0.03784  1.0000
  H   H9        1.0  0.32879  0.54283  0.41698  1.0000
  H   H10       1.0  0.82880  0.95717  0.08301  1.0000
  H   H11       1.0  0.67120  0.45717  0.58301  1.0000
  H   H12       1.0  0.17121  0.04283  0.91699  1.0000
  H   H13       1.0  0.52818  0.62704  0.39480  1.0000
  H   H14       1.0  0.02818  0.87296  0.10519  1.0000
  H   H15       1.0  0.47181  0.37296  0.60519  1.0000
  H   H16       1.0  0.97183  0.12703  0.89481  1.0000
  H   H17       1.0  0.83125  0.50978  0.22163  1.0000
  H   H18       1.0  0.33125  0.99022  0.27837  1.0000
  H   H19       1.0  0.16874  0.49022  0.77837  1.0000
  H   H20       1.0  0.66875  0.00978  0.72163  1.0000
  H   H21       1.0  0.74713  0.66525  0.13384  1.0000
  H   H22       1.0  0.24712  0.83475  0.36616  1.0000
  H   H23       1.0  0.25285  0.33475  0.86616  1.0000
  H   H24       1.0  0.75285  0.16525  0.63384  1.0000
  H   H25       1.0  0.72431  0.85156  0.19565  1.0000
  H   H26       1.0  0.22430  0.64844  0.30435  1.0000
  H   H27       1.0  0.27568  0.14844  0.80436  1.0000
  H   H28       1.0  0.77568  0.35156  0.69565  1.0000
  H   H29       1.0  0.79740  0.87724  0.33840  1.0000
  H   H30       1.0  0.29741  0.62276  0.16160  1.0000
  H   H31       1.0  0.20259  0.12276  0.66160  1.0000
  H   H32       1.0  0.70259  0.37724  0.83840  1.0000
  H   H33       1.0  0.91988  0.89004  0.47795  1.0000
  H   H34       1.0  0.41987  0.60997  0.02205  1.0000
  H   H35       1.0  0.08012  0.10997  0.52205  1.0000
  H   H36       1.0  0.58015  0.39003  0.97796  1.0000
  H   H37       1.0  0.91817  0.96526  0.63280  1.0000
  H   H38       1.0  0.41817  0.53473  0.86720  1.0000
  H   H39       1.0  0.08184  0.03474  0.36720  1.0000
  H   H40       1.0  0.58185  0.46526  0.13280  1.0000
  H   H41       1.0  0.06596  0.00772  0.77322  1.0000
  H   H42       1.0  0.56597  0.49229  0.72678  1.0000
  H   H43       1.0  0.93404  0.99229  0.22678  1.0000
  H   H44       1.0  0.43403  0.50772  0.27322  1.0000
  H   H45       1.0  0.28292  0.84608  0.82028  1.0000
  H   H46       1.0  0.78293  0.65393  0.67973  1.0000
  H   H47       1.0  0.71707  0.15393  0.17973  1.0000
  H   H48       1.0  0.21706  0.34608  0.32027  1.0000
  C   C1        1.0  0.46959  0.61017  0.51936  1.0000
  C   C2        1.0  0.96960  0.88983  0.98063  1.0000
  C   C3        1.0  0.53040  0.38983  0.48063  1.0000
  C   C4        1.0  0.03041  0.11017  0.01936  1.0000
  C   C5        1.0  0.47282  0.56631  0.43515  1.0000
  C   C6        1.0  0.97283  0.93369  0.06484  1.0000
  C   C7        1.0  0.52717  0.43369  0.56484  1.0000
  C   C8        1.0  0.02718  0.06631  0.93515  1.0000
  C   C9        1.0  0.82467  0.59297  0.24484  1.0000
  C   C10       1.0  0.32468  0.90704  0.25516  1.0000
  C   C11       1.0  0.17532  0.40703  0.75516  1.0000
  C   C12       1.0  0.67532  0.09297  0.74484  1.0000
  C   C13       1.0  0.77791  0.67891  0.19630  1.0000
  C   C14       1.0  0.27790  0.82109  0.30370  1.0000
  C   C15       1.0  0.22208  0.32109  0.80370  1.0000
  C   C16       1.0  0.72208  0.17891  0.69630  1.0000
  C   C17       1.0  0.76612  0.78253  0.23072  1.0000
  C   C18       1.0  0.26612  0.71747  0.26928  1.0000
  C   C19       1.0  0.23387  0.21747  0.76929  1.0000
  C   C20       1.0  0.73387  0.28253  0.73071  1.0000
  C   C21       1.0  0.80518  0.79693  0.31061  1.0000
  C   C22       1.0  0.30517  0.70307  0.18939  1.0000
  C   C23       1.0  0.19482  0.20307  0.68939  1.0000
  C   C24       1.0  0.69482  0.29693  0.81061  1.0000
  C   C25       1.0  0.85808  0.70698  0.35499  1.0000
  C   C26       1.0  0.35808  0.79302  0.14501  1.0000
  C   C27       1.0  0.14192  0.29302  0.64501  1.0000
  C   C28       1.0  0.64192  0.20698  0.85499  1.0000
  C   C29       1.0  0.91467  0.71519  0.43769  1.0000
  C   C30       1.0  0.41468  0.78482  0.06232  1.0000
  C   C31       1.0  0.08533  0.28482  0.56232  1.0000
  C   C32       1.0  0.58533  0.21518  0.93769  1.0000
  C   C33       1.0  0.94058  0.80463  0.48954  1.0000
  C   C34       1.0  0.44056  0.69536  0.01047  1.0000
  C   C35       1.0  0.05943  0.19537  0.51046  1.0000
  C   C36       1.0  0.55944  0.30462  0.98954  1.0000
  C   C37       1.0  0.00478  0.75807  0.55980  1.0000
  C   C38       1.0  0.50479  0.74193  0.94020  1.0000
  C   C39       1.0  0.99522  0.24194  0.44020  1.0000
  C   C40       1.0  0.49523  0.25806  0.05980  1.0000
  C   C41       1.0  0.06151  0.80969  0.63369  1.0000
  C   C42       1.0  0.56150  0.69031  0.86631  1.0000
  C   C43       1.0  0.93850  0.19031  0.36631  1.0000
  C   C44       1.0  0.43850  0.30969  0.13369  1.0000
  C   C45       1.0  0.01240  0.91099  0.66379  1.0000
  C   C46       1.0  0.51240  0.58901  0.83621  1.0000
  C   C47       1.0  0.98761  0.08901  0.33621  1.0000
  C   C48       1.0  0.48761  0.41099  0.16379  1.0000
  C   C49       1.0  0.09334  0.93403  0.73898  1.0000
  C   C50       1.0  0.59334  0.56597  0.76102  1.0000
  C   C51       1.0  0.90666  0.06598  0.26102  1.0000
  C   C52       1.0  0.40666  0.43402  0.23898  1.0000
  C   C53       1.0  0.20518  0.85109  0.76521  1.0000
  C   C54       1.0  0.70519  0.64891  0.73479  1.0000
  C   C55       1.0  0.79482  0.14891  0.23479  1.0000
  C   C56       1.0  0.29482  0.35109  0.26521  1.0000
  S   S1        1.0  0.21153  0.74470  0.69841  1.0000
  S   S2        1.0  0.71153  0.75530  0.80159  1.0000
  S   S3        1.0  0.78847  0.25531  0.30159  1.0000
  S   S4        1.0  0.28847  0.24469  0.19841  1.0000
  N   N1        1.0  0.86338  0.60542  0.32193  1.0000
  N   N2        1.0  0.36338  0.89458  0.17807  1.0000
  N   N3        1.0  0.13662  0.39458  0.67807  1.0000
  N   N4        1.0  0.63662  0.10542  0.82193  1.0000
  N   N5        1.0  0.95938  0.62210  0.47537  1.0000
  N   N6        1.0  0.45939  0.87790  0.02463  1.0000
  N   N7        1.0  0.04061  0.37790  0.52463  1.0000
  N   N8        1.0  0.54063  0.12210  0.97537  1.0000
  N   N9        1.0  0.01322  0.64782  0.54978  1.0000
  N   N10       1.0  0.51322  0.85218  0.95022  1.0000
  N   N11       1.0  0.98678  0.35218  0.45022  1.0000
  N   N12       1.0  0.48678  0.14781  0.04978  1.0000
  O   O1        1.0  0.40566  0.52699  0.57177  1.0000
  O   O2        1.0  0.90566  0.97300  0.92823  1.0000
  O   O3        1.0  0.59434  0.47300  0.42822  1.0000
  O   O4        1.0  0.09435  0.02700  0.07177  1.0000
