data_image0
_chemical_formula_structural       Cu2H28C18N6O8
_chemical_formula_sum              "Cu2 H28 C18 N6 O8"
_cell_length_a       7.18447
_cell_length_b       7.90186
_cell_length_c       11.5961
_cell_angle_alpha    72.4872
_cell_angle_beta     88.5469
_cell_angle_gamma    66.3026

_space_group_name_H-M_alt    "P 1"
_space_group_IT_number       1

loop_
  _space_group_symop_operation_xyz
  'x, y, z'

loop_
  _atom_site_type_symbol
  _atom_site_label
  _atom_site_symmetry_multiplicity
  _atom_site_fract_x
  _atom_site_fract_y
  _atom_site_fract_z
  _atom_site_occupancy
  Cu  Cu1       1.0  0.57895  0.06305  0.40404  1.0000
  Cu  Cu2       1.0  0.42105  0.93696  0.59596  1.0000
  H   H1        1.0  0.03186  0.01129  0.31615  1.0000
  H   H2        1.0  0.96816  0.98870  0.68385  1.0000
  H   H3        1.0  0.47022  0.39874  0.10835  1.0000
  H   H4        1.0  0.52979  0.60125  0.89165  1.0000
  H   H5        1.0  0.26495  0.12315  0.17208  1.0000
  H   H6        1.0  0.73504  0.87685  0.82792  1.0000
  H   H7        1.0  0.14620  0.35447  0.05940  1.0000
  H   H8        1.0  0.85380  0.64553  0.94060  1.0000
  H   H9        1.0  0.08295  0.20345  0.91362  1.0000
  H   H10       1.0  0.91706  0.79655  0.08638  1.0000
  H   H11       1.0  0.18923  0.97013  0.02434  1.0000
  H   H12       1.0  0.81077  0.02987  0.97566  1.0000
  H   H13       1.0  0.42170  0.05569  0.86537  1.0000
  H   H14       1.0  0.57830  0.94431  0.13464  1.0000
  H   H15       1.0  0.43172  0.21968  0.93627  1.0000
  H   H16       1.0  0.56828  0.78032  0.06373  1.0000
  H   H17       1.0  0.53312  0.47984  0.63061  1.0000
  H   H18       1.0  0.46686  0.52017  0.36940  1.0000
  H   H19       1.0  0.79457  0.32510  0.64303  1.0000
  H   H20       1.0  0.20541  0.67491  0.35698  1.0000
  H   H21       1.0  0.64345  0.27570  0.76464  1.0000
  H   H22       1.0  0.35653  0.72430  0.23537  1.0000
  H   H23       1.0  0.17982  0.59481  0.60990  1.0000
  H   H24       1.0  0.82018  0.40519  0.39010  1.0000
  H   H25       1.0  0.06997  0.49964  0.74196  1.0000
  H   H26       1.0  0.93002  0.50037  0.25803  1.0000
  H   H27       1.0  0.07359  0.42600  0.61159  1.0000
  H   H28       1.0  0.92641  0.57400  0.38841  1.0000
  C   C1        1.0  0.91619  0.12014  0.24294  1.0000
  C   C2        1.0  0.08381  0.87985  0.75705  1.0000
  C   C3        1.0  0.63335  0.31838  0.13657  1.0000
  C   C4        1.0  0.36665  0.68162  0.86343  1.0000
  C   C5        1.0  0.15016  0.20704  0.09247  1.0000
  C   C6        1.0  0.84984  0.79295  0.90753  1.0000
  C   C7        1.0  0.19975  0.11184  0.99216  1.0000
  C   C8        1.0  0.80025  0.88816  0.00784  1.0000
  C   C9        1.0  0.41293  0.08255  0.95328  1.0000
  C   C10       1.0  0.58707  0.91745  0.04672  1.0000
  C   C11       1.0  0.58906  0.20761  0.60502  1.0000
  C   C12       1.0  0.41092  0.79239  0.39499  1.0000
  C   C13       1.0  0.64489  0.32740  0.66595  1.0000
  C   C14       1.0  0.35510  0.67260  0.33405  1.0000
  C   C15       1.0  0.85208  0.71622  0.59005  1.0000
  C   C16       1.0  0.14792  0.28378  0.40994  1.0000
  C   C17       1.0  0.05746  0.54942  0.64243  1.0000
  C   C18       1.0  0.94255  0.45058  0.35757  1.0000
  N   N1        1.0  0.71472  0.17695  0.24592  1.0000
  N   N2        1.0  0.28528  0.82305  0.75409  1.0000
  N   N3        1.0  0.95345  0.22282  0.13633  1.0000
  N   N4        1.0  0.04655  0.77718  0.86367  1.0000
  N   N5        1.0  0.77343  0.35083  0.06659  1.0000
  N   N6        1.0  0.22657  0.64917  0.93341  1.0000
  O   O1        1.0  0.63858  0.21577  0.49770  1.0000
  O   O2        1.0  0.36142  0.78423  0.50230  1.0000
  O   O3        1.0  0.49689  0.10670  0.66499  1.0000
  O   O4        1.0  0.50309  0.89331  0.33501  1.0000
  O   O5        1.0  0.84158  0.83219  0.48386  1.0000
  O   O6        1.0  0.15844  0.16780  0.51613  1.0000
  O   O7        1.0  0.70442  0.72775  0.65522  1.0000
  O   O8        1.0  0.29559  0.27226  0.34478  1.0000
