data_image0
_chemical_formula_structural       Zn4H8C20N40
_chemical_formula_sum              "Zn4 H8 C20 N40"
_cell_length_a       8.75708
_cell_length_b       8.75708
_cell_length_c       16.9017
_cell_angle_alpha    92.0478
_cell_angle_beta     92.0479
_cell_angle_gamma    119.33

_space_group_name_H-M_alt    "P 1"
_space_group_IT_number       1

loop_
  _space_group_symop_operation_xyz
  'x, y, z'

loop_
  _atom_site_type_symbol
  _atom_site_label
  _atom_site_symmetry_multiplicity
  _atom_site_fract_x
  _atom_site_fract_y
  _atom_site_fract_z
  _atom_site_occupancy
  Zn  Zn1       1.0  0.31446  0.64889  0.30590  1.0000
  Zn  Zn2       1.0  0.64889  0.31446  0.80590  1.0000
  Zn  Zn3       1.0  0.07975  0.90009  0.37443  1.0000
  Zn  Zn4       1.0  0.90009  0.07975  0.87443  1.0000
  H   H1        1.0  0.20988  0.19305  0.06852  1.0000
  H   H2        1.0  0.19305  0.20988  0.56852  1.0000
  H   H3        1.0  0.67698  0.84134  0.61201  1.0000
  H   H4        1.0  0.84134  0.67698  0.11201  1.0000
  H   H5        1.0  0.22671  0.48780  0.09875  1.0000
  H   H6        1.0  0.48780  0.22670  0.59875  1.0000
  H   H7        1.0  0.96245  0.84968  0.58497  1.0000
  H   H8        1.0  0.84968  0.96244  0.08497  1.0000
  C   C1        1.0  0.20041  0.28384  0.33970  1.0000
  C   C2        1.0  0.28384  0.20041  0.83970  1.0000
  C   C3        1.0  0.20122  0.27765  0.25465  1.0000
  C   C4        1.0  0.27765  0.20122  0.75464  1.0000
  C   C5        1.0  0.21855  0.39750  0.14269  1.0000
  C   C6        1.0  0.39750  0.21856  0.64269  1.0000
  C   C7        1.0  0.20030  0.16149  0.19606  1.0000
  C   C8        1.0  0.16149  0.20030  0.69606  1.0000
  C   C9        1.0  0.21064  0.00258  0.19930  1.0000
  C   C10       1.0  0.00258  0.21064  0.69930  1.0000
  C   C11       1.0  0.70734  0.77951  0.34174  1.0000
  C   C12       1.0  0.77951  0.70734  0.84174  1.0000
  C   C13       1.0  0.72340  0.80454  0.42689  1.0000
  C   C14       1.0  0.80454  0.72340  0.92689  1.0000
  C   C15       1.0  0.86529  0.83713  0.53988  1.0000
  C   C16       1.0  0.83714  0.86529  0.03989  1.0000
  C   C17       1.0  0.61955  0.81396  0.48521  1.0000
  C   C18       1.0  0.81396  0.61955  0.98521  1.0000
  C   C19       1.0  0.46071  0.82507  0.48197  1.0000
  C   C20       1.0  0.82507  0.46071  0.98197  1.0000
  N   N1        1.0  0.16587  0.16259  0.39278  1.0000
  N   N2        1.0  0.16259  0.16587  0.89278  1.0000
  N   N3        1.0  0.18354  0.24628  0.46478  1.0000
  N   N4        1.0  0.24628  0.18354  0.96478  1.0000
  N   N5        1.0  0.22704  0.40981  0.45571  1.0000
  N   N6        1.0  0.40980  0.22704  0.95571  1.0000
  N   N7        1.0  0.23763  0.43688  0.37796  1.0000
  N   N8        1.0  0.43688  0.23763  0.87796  1.0000
  N   N9        1.0  0.21478  0.42452  0.22015  1.0000
  N   N10       1.0  0.42452  0.21478  0.72015  1.0000
  N   N11       1.0  0.20917  0.24092  0.12593  1.0000
  N   N12       1.0  0.24092  0.20917  0.62593  1.0000
  N   N13       1.0  0.21135  0.92207  0.26580  1.0000
  N   N14       1.0  0.92207  0.21135  0.76580  1.0000
  N   N15       1.0  0.23155  0.78624  0.23984  1.0000
  N   N16       1.0  0.78625  0.23155  0.73983  1.0000
  N   N17       1.0  0.24339  0.78488  0.16180  1.0000
  N   N18       1.0  0.78488  0.24339  0.66180  1.0000
  N   N19       1.0  0.23055  0.91921  0.13481  1.0000
  N   N20       1.0  0.91921  0.23055  0.63481  1.0000
  N   N21       1.0  0.57114  0.72954  0.28876  1.0000
  N   N22       1.0  0.72953  0.57114  0.78876  1.0000
  N   N23       1.0  0.62947  0.71598  0.21688  1.0000
  N   N24       1.0  0.71598  0.62947  0.71688  1.0000
  N   N25       1.0  0.79434  0.75694  0.22624  1.0000
  N   N26       1.0  0.75694  0.79434  0.72624  1.0000
  N   N27       1.0  0.84703  0.79725  0.30378  1.0000
  N   N28       1.0  0.79725  0.84703  0.80378  1.0000
  N   N29       1.0  0.87680  0.82210  0.46225  1.0000
  N   N30       1.0  0.82210  0.87680  0.96225  1.0000
  N   N31       1.0  0.71271  0.83218  0.55576  1.0000
  N   N32       1.0  0.83218  0.71271  0.05576  1.0000
  N   N33       1.0  0.36238  0.80792  0.41548  1.0000
  N   N34       1.0  0.80792  0.36238  0.91548  1.0000
  N   N35       1.0  0.23473  0.83676  0.44128  1.0000
  N   N36       1.0  0.83676  0.23473  0.94128  1.0000
  N   N37       1.0  0.25524  0.87107  0.51926  1.0000
  N   N38       1.0  0.87107  0.25524  0.01926  1.0000
  N   N39       1.0  0.39635  0.86470  0.54631  1.0000
  N   N40       1.0  0.86470  0.39635  0.04631  1.0000
