data_image0
_chemical_formula_structural       Cu2H8C4N16O4
_chemical_formula_sum              "Cu2 H8 C4 N16 O4"
_cell_length_a       7.37264
_cell_length_b       7.40905
_cell_length_c       7.40528
_cell_angle_alpha    117.654
_cell_angle_beta     107.56
_cell_angle_gamma    93.5576

_space_group_name_H-M_alt    "P 1"
_space_group_IT_number       1

loop_
  _space_group_symop_operation_xyz
  'x, y, z'

loop_
  _atom_site_type_symbol
  _atom_site_label
  _atom_site_symmetry_multiplicity
  _atom_site_fract_x
  _atom_site_fract_y
  _atom_site_fract_z
  _atom_site_occupancy
  Cu  Cu1       1.0  0.82221  0.04990  0.27603  1.0000
  Cu  Cu2       1.0  0.17779  0.95010  0.72397  1.0000
  H   H1        1.0  0.92936  0.42518  0.63374  1.0000
  H   H2        1.0  0.07064  0.57482  0.36626  1.0000
  H   H3        1.0  0.68929  0.33728  0.53503  1.0000
  H   H4        1.0  0.31071  0.66272  0.46496  1.0000
  H   H5        1.0  0.80411  0.66085  0.01410  1.0000
  H   H6        1.0  0.19589  0.33915  0.98590  1.0000
  H   H7        1.0  0.78440  0.77748  0.86866  1.0000
  H   H8        1.0  0.21560  0.22252  0.13134  1.0000
  C   C1        1.0  0.39867  0.73678  0.13195  1.0000
  C   C2        1.0  0.60133  0.26322  0.86805  1.0000
  C   C3        1.0  0.55691  0.76061  0.31961  1.0000
  C   C4        1.0  0.44309  0.23939  0.68038  1.0000
  N   N1        1.0  0.14710  0.61123  0.83614  1.0000
  N   N2        1.0  0.85289  0.38877  0.16386  1.0000
  N   N3        1.0  0.54619  0.68293  0.44840  1.0000
  N   N4        1.0  0.45381  0.31707  0.55160  1.0000
  N   N5        1.0  0.24710  0.56772  0.98768  1.0000
  N   N6        1.0  0.75290  0.43228  0.01232  1.0000
  N   N7        1.0  0.84528  0.85617  0.56334  1.0000
  N   N8        1.0  0.15472  0.14383  0.43666  1.0000
  N   N9        1.0  0.39423  0.88388  0.07441  1.0000
  N   N10       1.0  0.60577  0.11612  0.92559  1.0000
  N   N11       1.0  0.23624  0.80043  0.89033  1.0000
  N   N12       1.0  0.76376  0.19957  0.10967  1.0000
  N   N13       1.0  0.72841  0.74526  0.59899  1.0000
  N   N14       1.0  0.27159  0.25474  0.40101  1.0000
  N   N15       1.0  0.74151  0.86895  0.38898  1.0000
  N   N16       1.0  0.25849  0.13105  0.61102  1.0000
  O   O1        1.0  0.81756  0.29741  0.54561  1.0000
  O   O2        1.0  0.18244  0.70259  0.45439  1.0000
  O   O3        1.0  0.83623  0.79874  0.02024  1.0000
  O   O4        1.0  0.16378  0.20126  0.97976  1.0000
