data_image0
_chemical_formula_structural       Er4H36C40N16O40
_chemical_formula_sum              "Er4 H36 C40 N16 O40"
_cell_length_a       9.21215
_cell_length_b       10.8495
_cell_length_c       14.1478
_cell_angle_alpha    104.781
_cell_angle_beta     90
_cell_angle_gamma    90

_space_group_name_H-M_alt    "P 1"
_space_group_IT_number       1

loop_
  _space_group_symop_operation_xyz
  'x, y, z'

loop_
  _atom_site_type_symbol
  _atom_site_label
  _atom_site_symmetry_multiplicity
  _atom_site_fract_x
  _atom_site_fract_y
  _atom_site_fract_z
  _atom_site_occupancy
  Er  Er1       1.0  0.12850  0.95755  0.23510  1.0000
  Er  Er2       1.0  0.37150  0.45756  0.73510  1.0000
  Er  Er3       1.0  0.87150  0.04244  0.76490  1.0000
  Er  Er4       1.0  0.62850  0.54245  0.26490  1.0000
  H   H1        1.0  0.39709  0.22164  0.51761  1.0000
  H   H2        1.0  0.10291  0.72164  0.01761  1.0000
  H   H3        1.0  0.60291  0.77836  0.48239  1.0000
  H   H4        1.0  0.89709  0.27837  0.98239  1.0000
  H   H5        1.0  0.94411  0.92748  0.06525  1.0000
  H   H6        1.0  0.55588  0.42748  0.56525  1.0000
  H   H7        1.0  0.05588  0.07252  0.93475  1.0000
  H   H8        1.0  0.44411  0.57252  0.43475  1.0000
  H   H9        1.0  0.91643  0.07177  0.12728  1.0000
  H   H10       1.0  0.58357  0.57177  0.62728  1.0000
  H   H11       1.0  0.08358  0.92823  0.87272  1.0000
  H   H12       1.0  0.41643  0.42823  0.37272  1.0000
  H   H13       1.0  0.15845  0.11066  0.43885  1.0000
  H   H14       1.0  0.34155  0.61066  0.93885  1.0000
  H   H15       1.0  0.84155  0.88934  0.56115  1.0000
  H   H16       1.0  0.65845  0.38934  0.06115  1.0000
  H   H17       1.0  0.30109  0.02522  0.41368  1.0000
  H   H18       1.0  0.19891  0.52522  0.91368  1.0000
  H   H19       1.0  0.69891  0.97478  0.58632  1.0000
  H   H20       1.0  0.80109  0.47478  0.08632  1.0000
  H   H21       1.0  0.40507  0.19456  0.26969  1.0000
  H   H22       1.0  0.09493  0.69455  0.76969  1.0000
  H   H23       1.0  0.59493  0.80544  0.73031  1.0000
  H   H24       1.0  0.90507  0.30544  0.23031  1.0000
  H   H25       1.0  0.89555  0.18534  0.42678  1.0000
  H   H26       1.0  0.60445  0.68534  0.92678  1.0000
  H   H27       1.0  0.10445  0.81466  0.57322  1.0000
  H   H28       1.0  0.39555  0.31466  0.07322  1.0000
  H   H29       1.0  0.66046  0.94107  0.05038  1.0000
  H   H30       1.0  0.83954  0.44107  0.55038  1.0000
  H   H31       1.0  0.33954  0.05893  0.94962  1.0000
  H   H32       1.0  0.16046  0.55893  0.44962  1.0000
  H   H33       1.0  0.55840  0.91091  0.34353  1.0000
  H   H34       1.0  0.94160  0.41090  0.84353  1.0000
  H   H35       1.0  0.44160  0.08909  0.65647  1.0000
  H   H36       1.0  0.05840  0.58910  0.15647  1.0000
  C   C1        1.0  0.35898  0.81778  0.05892  1.0000
  C   C2        1.0  0.14102  0.31778  0.55892  1.0000
  C   C3        1.0  0.64102  0.18222  0.94108  1.0000
  C   C4        1.0  0.85898  0.68222  0.44108  1.0000
  C   C5        1.0  0.43906  0.93211  0.11363  1.0000
  C   C6        1.0  0.06094  0.43210  0.61363  1.0000
  C   C7        1.0  0.56094  0.06790  0.88637  1.0000
  C   C8        1.0  0.93906  0.56789  0.38637  1.0000
  C   C9        1.0  0.57579  0.98380  0.10144  1.0000
  C   C10       1.0  0.92422  0.48379  0.60144  1.0000
  C   C11       1.0  0.42421  0.01621  0.89856  1.0000
  C   C12       1.0  0.07579  0.51620  0.39856  1.0000
  C   C13       1.0  0.57540  0.10415  0.16747  1.0000
  C   C14       1.0  0.92460  0.60415  0.66747  1.0000
  C   C15       1.0  0.42460  0.89585  0.83253  1.0000
  C   C16       1.0  0.07540  0.39585  0.33253  1.0000
  C   C17       1.0  0.67622  0.21440  0.18800  1.0000
  C   C18       1.0  0.82378  0.71439  0.68800  1.0000
  C   C19       1.0  0.32378  0.78560  0.81200  1.0000
  C   C20       1.0  0.17622  0.28560  0.31200  1.0000
  C   C21       1.0  0.83842  0.79438  0.23984  1.0000
  C   C22       1.0  0.66158  0.29438  0.73984  1.0000
  C   C23       1.0  0.16158  0.20561  0.76016  1.0000
  C   C24       1.0  0.33842  0.70561  0.26016  1.0000
  C   C25       1.0  0.79214  0.91851  0.30547  1.0000
  C   C26       1.0  0.70786  0.41851  0.80547  1.0000
  C   C27       1.0  0.20786  0.08149  0.69453  1.0000
  C   C28       1.0  0.29214  0.58149  0.19453  1.0000
  C   C29       1.0  0.65967  0.96342  0.35045  1.0000
  C   C30       1.0  0.84033  0.46342  0.85045  1.0000
  C   C31       1.0  0.34033  0.03658  0.64954  1.0000
  C   C32       1.0  0.15967  0.53659  0.14955  1.0000
  C   C33       1.0  0.68911  0.08773  0.40409  1.0000
  C   C34       1.0  0.81089  0.58773  0.90409  1.0000
  C   C35       1.0  0.31089  0.91227  0.59591  1.0000
  C   C36       1.0  0.18910  0.41227  0.09591  1.0000
  C   C37       1.0  0.59763  0.18951  0.46378  1.0000
  C   C38       1.0  0.90237  0.68951  0.96379  1.0000
  C   C39       1.0  0.40237  0.81049  0.53621  1.0000
  C   C40       1.0  0.09762  0.31051  0.03622  1.0000
  N   N1        1.0  0.36355  0.01421  0.18446  1.0000
  N   N2        1.0  0.13645  0.51421  0.68446  1.0000
  N   N3        1.0  0.63645  0.98579  0.81554  1.0000
  N   N4        1.0  0.86355  0.48579  0.31554  1.0000
  N   N5        1.0  0.44641  0.11650  0.21542  1.0000
  N   N6        1.0  0.05359  0.61650  0.71543  1.0000
  N   N7        1.0  0.55359  0.88350  0.78458  1.0000
  N   N8        1.0  0.94642  0.38350  0.28458  1.0000
  N   N9        1.0  0.89578  0.00958  0.33036  1.0000
  N   N10       1.0  0.60422  0.50958  0.83036  1.0000
  N   N11       1.0  0.10422  0.99042  0.66964  1.0000
  N   N12       1.0  0.39578  0.49042  0.16965  1.0000
  N   N13       1.0  0.83218  0.11044  0.38914  1.0000
  N   N14       1.0  0.66782  0.61044  0.88914  1.0000
  N   N15       1.0  0.16782  0.88956  0.61086  1.0000
  N   N16       1.0  0.33218  0.38956  0.11086  1.0000
  O   O1        1.0  0.22325  0.81424  0.08105  1.0000
  O   O2        1.0  0.27675  0.31424  0.58104  1.0000
  O   O3        1.0  0.77675  0.18576  0.91895  1.0000
  O   O4        1.0  0.72325  0.68576  0.41895  1.0000
  O   O5        1.0  0.42486  0.73473  0.99445  1.0000
  O   O6        1.0  0.07514  0.23473  0.49445  1.0000
  O   O7        1.0  0.57514  0.26528  0.00555  1.0000
  O   O8        1.0  0.92486  0.76527  0.50555  1.0000
  O   O9        1.0  0.62222  0.32036  0.23480  1.0000
  O   O10       1.0  0.87778  0.82036  0.73480  1.0000
  O   O11       1.0  0.37778  0.67964  0.76520  1.0000
  O   O12       1.0  0.12222  0.17964  0.26520  1.0000
  O   O13       1.0  0.80695  0.19684  0.15879  1.0000
  O   O14       1.0  0.69305  0.69683  0.65878  1.0000
  O   O15       1.0  0.19305  0.80316  0.84122  1.0000
  O   O16       1.0  0.30695  0.30316  0.34122  1.0000
  O   O17       1.0  0.96652  0.79128  0.20525  1.0000
  O   O18       1.0  0.53348  0.29128  0.70526  1.0000
  O   O19       1.0  0.03348  0.20871  0.79474  1.0000
  O   O20       1.0  0.46652  0.70871  0.29475  1.0000
  O   O21       1.0  0.75449  0.69951  0.22256  1.0000
  O   O22       1.0  0.74551  0.19950  0.72256  1.0000
  O   O23       1.0  0.24551  0.30049  0.77744  1.0000
  O   O24       1.0  0.25449  0.80049  0.27745  1.0000
  O   O25       1.0  0.46398  0.15126  0.47737  1.0000
  O   O26       1.0  0.03603  0.65126  0.97737  1.0000
  O   O27       1.0  0.53602  0.84874  0.52263  1.0000
  O   O28       1.0  0.96398  0.34874  0.02263  1.0000
  O   O29       1.0  0.64525  0.29881  0.49549  1.0000
  O   O30       1.0  0.85476  0.79881  0.99549  1.0000
  O   O31       1.0  0.35475  0.70119  0.50451  1.0000
  O   O32       1.0  0.14525  0.20119  0.00451  1.0000
  O   O33       1.0  0.98829  0.00044  0.11398  1.0000
  O   O34       1.0  0.51171  0.50044  0.61398  1.0000
  O   O35       1.0  0.01171  0.99955  0.88602  1.0000
  O   O36       1.0  0.48829  0.49955  0.38602  1.0000
  O   O37       1.0  0.19828  0.02698  0.39766  1.0000
  O   O38       1.0  0.30172  0.52699  0.89765  1.0000
  O   O39       1.0  0.80172  0.97302  0.60234  1.0000
  O   O40       1.0  0.69828  0.47302  0.10235  1.0000
