data_image0
_chemical_formula_structural       Cu2H36C36N4O6
_chemical_formula_sum              "Cu2 H36 C36 N4 O6"
_cell_length_a       5.42718
_cell_length_b       9.09433
_cell_length_c       15.8247
_cell_angle_alpha    90.0002
_cell_angle_beta     95.8577
_cell_angle_gamma    90.0011

_space_group_name_H-M_alt    "P 1"
_space_group_IT_number       1

loop_
  _space_group_symop_operation_xyz
  'x, y, z'

loop_
  _atom_site_type_symbol
  _atom_site_label
  _atom_site_symmetry_multiplicity
  _atom_site_fract_x
  _atom_site_fract_y
  _atom_site_fract_z
  _atom_site_occupancy
  Cu  Cu1       1.0  0.91771  0.37377  0.91771  1.0000
  Cu  Cu2       1.0  0.08226  0.87378  0.08229  1.0000
  H   H1        1.0  0.85059  0.62101  0.83355  1.0000
  H   H2        1.0  0.14937  0.12101  0.16646  1.0000
  H   H3        1.0  0.88854  0.47083  0.77602  1.0000
  H   H4        1.0  0.11143  0.97081  0.22398  1.0000
  H   H5        1.0  0.41499  0.17606  0.97653  1.0000
  H   H6        1.0  0.58501  0.67606  0.02348  1.0000
  H   H7        1.0  0.41546  0.92845  0.92449  1.0000
  H   H8        1.0  0.58451  0.42846  0.07551  1.0000
  H   H9        1.0  0.25959  0.05243  0.85016  1.0000
  H   H10       1.0  0.74039  0.55244  0.14984  1.0000
  H   H11       1.0  0.87394  0.85871  0.89813  1.0000
  H   H12       1.0  0.12606  0.35868  0.10188  1.0000
  H   H13       1.0  0.14225  0.78960  0.78708  1.0000
  H   H14       1.0  0.85775  0.28956  0.21293  1.0000
  H   H15       1.0  0.01456  0.84931  0.63557  1.0000
  H   H16       1.0  0.98546  0.34928  0.36443  1.0000
  H   H17       1.0  0.61184  0.97400  0.59589  1.0000
  H   H18       1.0  0.38818  0.47399  0.40412  1.0000
  H   H19       1.0  0.35321  0.05537  0.70856  1.0000
  H   H20       1.0  0.64679  0.55537  0.29144  1.0000
  H   H21       1.0  0.44667  0.57994  0.84935  1.0000
  H   H22       1.0  0.55329  0.07994  0.15065  1.0000
  H   H23       1.0  0.22789  0.52788  0.70863  1.0000
  H   H24       1.0  0.77212  0.02788  0.29134  1.0000
  H   H25       1.0  0.46144  0.66477  0.70724  1.0000
  H   H26       1.0  0.53858  0.16477  0.29275  1.0000
  H   H27       1.0  0.26814  0.28988  0.63884  1.0000
  H   H28       1.0  0.73186  0.78986  0.36115  1.0000
  H   H29       1.0  0.44605  0.15647  0.52201  1.0000
  H   H30       1.0  0.55397  0.65649  0.47800  1.0000
  H   H31       1.0  0.82764  0.24789  0.46595  1.0000
  H   H32       1.0  0.17241  0.74792  0.53407  1.0000
  H   H33       1.0  0.02288  0.48150  0.52255  1.0000
  H   H34       1.0  0.97718  0.98152  0.47745  1.0000
  H   H35       1.0  0.83311  0.61936  0.63537  1.0000
  H   H36       1.0  0.16695  0.11936  0.36463  1.0000
  C   C1        1.0  0.79171  0.10654  0.98773  1.0000
  C   C2        1.0  0.20828  0.60655  0.01227  1.0000
  C   C3        1.0  0.55330  0.14846  0.93208  1.0000
  C   C4        1.0  0.44666  0.64846  0.06792  1.0000
  C   C5        1.0  0.44188  0.01736  0.87908  1.0000
  C   C6        1.0  0.55810  0.51736  0.12092  1.0000
  C   C7        1.0  0.59670  0.96504  0.81131  1.0000
  C   C8        1.0  0.40329  0.46504  0.18870  1.0000
  C   C9        1.0  0.81749  0.88669  0.83212  1.0000
  C   C10       1.0  0.18249  0.38668  0.16788  1.0000
  C   C11       1.0  0.96685  0.84580  0.76937  1.0000
  C   C12       1.0  0.03315  0.34576  0.23064  1.0000
  C   C13       1.0  0.89530  0.87884  0.68428  1.0000
  C   C14       1.0  0.10470  0.37884  0.31572  1.0000
  C   C15       1.0  0.67169  0.95147  0.66234  1.0000
  C   C16       1.0  0.32832  0.45146  0.33766  1.0000
  C   C17       1.0  0.52545  0.99569  0.72546  1.0000
  C   C18       1.0  0.47455  0.49569  0.27455  1.0000
  C   C19       1.0  0.43705  0.35109  0.83427  1.0000
  C   C20       1.0  0.56293  0.85108  0.16573  1.0000
  C   C21       1.0  0.52685  0.50240  0.80603  1.0000
  C   C22       1.0  0.47312  0.00239  0.19396  1.0000
  C   C23       1.0  0.42911  0.54621  0.71471  1.0000
  C   C24       1.0  0.57090  0.04620  0.28528  1.0000
  C   C25       1.0  0.54110  0.46249  0.64593  1.0000
  C   C26       1.0  0.45892  0.96249  0.35406  1.0000
  C   C27       1.0  0.43385  0.33134  0.61336  1.0000
  C   C28       1.0  0.56617  0.83135  0.38663  1.0000
  C   C29       1.0  0.53510  0.25604  0.54838  1.0000
  C   C30       1.0  0.46494  0.75604  0.45162  1.0000
  C   C31       1.0  0.74842  0.30848  0.51611  1.0000
  C   C32       1.0  0.25165  0.80850  0.48389  1.0000
  C   C33       1.0  0.85783  0.43864  0.54796  1.0000
  C   C34       1.0  0.14222  0.93865  0.45204  1.0000
  C   C35       1.0  0.75353  0.51504  0.61218  1.0000
  C   C36       1.0  0.24650  0.01505  0.38782  1.0000
  N   N1        1.0  0.60740  0.27851  0.88432  1.0000
  N   N2        1.0  0.39255  0.77850  0.11568  1.0000
  N   N3        1.0  0.79755  0.51385  0.82422  1.0000
  N   N4        1.0  0.20241  0.01385  0.17578  1.0000
  O   O1        1.0  0.79534  0.98262  0.02488  1.0000
  O   O2        1.0  0.20462  0.48263  0.97511  1.0000
  O   O3        1.0  0.97221  0.19776  0.99524  1.0000
  O   O4        1.0  0.02779  0.69777  0.00474  1.0000
  O   O5        1.0  0.21489  0.31335  0.81388  1.0000
  O   O6        1.0  0.78508  0.81336  0.18611  1.0000
