data_image0
_chemical_formula_structural       CuH16C20N14O6
_chemical_formula_sum              "Cu1 H16 C20 N14 O6"
_cell_length_a       7.30754
_cell_length_b       8.72813
_cell_length_c       9.58131
_cell_angle_alpha    81.728
_cell_angle_beta     75.6071
_cell_angle_gamma    81.9896

_space_group_name_H-M_alt    "P 1"
_space_group_IT_number       1

loop_
  _space_group_symop_operation_xyz
  'x, y, z'

loop_
  _atom_site_type_symbol
  _atom_site_label
  _atom_site_symmetry_multiplicity
  _atom_site_fract_x
  _atom_site_fract_y
  _atom_site_fract_z
  _atom_site_occupancy
  Cu  Cu1       1.0  0.00000  0.50000  0.00000  1.0000
  H   H1        1.0  0.58902  0.38723  0.13685  1.0000
  H   H2        1.0  0.41098  0.61277  0.86315  1.0000
  H   H3        1.0  0.79828  0.80101  0.17800  1.0000
  H   H4        1.0  0.20170  0.19900  0.82200  1.0000
  H   H5        1.0  0.42634  0.65832  0.56232  1.0000
  H   H6        1.0  0.57366  0.34167  0.43768  1.0000
  H   H7        1.0  0.22908  0.85294  0.72392  1.0000
  H   H8        1.0  0.77092  0.14706  0.27608  1.0000
  H   H9        1.0  0.10929  0.11115  0.61413  1.0000
  H   H10       1.0  0.89070  0.88884  0.38587  1.0000
  H   H11       1.0  0.40327  0.98940  0.18726  1.0000
  H   H12       1.0  0.59673  0.01060  0.81275  1.0000
  H   H13       1.0  0.19105  0.16709  0.11505  1.0000
  H   H14       1.0  0.80895  0.83291  0.88495  1.0000
  H   H15       1.0  0.99882  0.56219  0.34190  1.0000
  H   H16       1.0  0.00117  0.43781  0.65810  1.0000
  C   C1        1.0  0.59480  0.49939  0.17102  1.0000
  C   C2        1.0  0.40520  0.50061  0.82898  1.0000
  C   C3        1.0  0.70635  0.70928  0.18917  1.0000
  C   C4        1.0  0.29364  0.29072  0.81083  1.0000
  C   C5        1.0  0.42063  0.81508  0.36787  1.0000
  C   C6        1.0  0.57936  0.18492  0.63213  1.0000
  C   C7        1.0  0.37440  0.77316  0.51747  1.0000
  C   C8        1.0  0.62559  0.22683  0.48253  1.0000
  C   C9        1.0  0.26537  0.88181  0.60640  1.0000
  C   C10       1.0  0.73463  0.11819  0.39360  1.0000
  C   C11       1.0  0.20075  0.02826  0.54583  1.0000
  C   C12       1.0  0.79925  0.97174  0.45418  1.0000
  C   C13       1.0  0.25035  0.06615  0.39580  1.0000
  C   C14       1.0  0.74964  0.93385  0.60420  1.0000
  C   C15       1.0  0.36279  0.96110  0.30450  1.0000
  C   C16       1.0  0.63720  0.03890  0.69550  1.0000
  C   C17       1.0  0.15829  0.24901  0.19529  1.0000
  C   C18       1.0  0.84171  0.75098  0.80472  1.0000
  C   C19       1.0  0.05686  0.44594  0.31490  1.0000
  C   C20       1.0  0.94314  0.55406  0.68510  1.0000
  N   N1        1.0  0.75078  0.57973  0.12253  1.0000
  N   N2        1.0  0.24922  0.42027  0.87747  1.0000
  N   N3        1.0  0.53034  0.70421  0.27512  1.0000
  N   N4        1.0  0.46966  0.29579  0.72488  1.0000
  N   N5        1.0  0.45712  0.57132  0.26491  1.0000
  N   N6        1.0  0.54288  0.42867  0.73509  1.0000
  N   N7        1.0  0.18007  0.21241  0.33226  1.0000
  N   N8        1.0  0.81993  0.78759  0.66774  1.0000
  N   N9        1.0  0.11468  0.33654  0.41016  1.0000
  N   N10       1.0  0.88531  0.66346  0.58984  1.0000
  N   N11       1.0  0.08105  0.39681  0.18127  1.0000
  N   N12       1.0  0.91896  0.60319  0.81874  1.0000
  N   N13       1.0  0.83022  0.13666  0.96093  1.0000
  N   N14       1.0  0.16979  0.86334  0.03906  1.0000
  O   O1        1.0  0.85741  0.25019  0.02081  1.0000
  O   O2        1.0  0.14261  0.74981  0.97918  1.0000
  O   O3        1.0  0.95066  0.09343  0.84991  1.0000
  O   O4        1.0  0.04934  0.90658  0.15009  1.0000
  O   O5        1.0  0.68330  0.06729  0.01349  1.0000
  O   O6        1.0  0.31670  0.93273  0.98651  1.0000
