data_image0
_chemical_formula_structural       Cd2H44C60S4N8O8
_chemical_formula_sum              "Cd2 H44 C60 S4 N8 O8"
_cell_length_a       8.64222
_cell_length_b       10.473
_cell_length_c       15.6263
_cell_angle_alpha    90.4905
_cell_angle_beta     77.6115
_cell_angle_gamma    77.6791

_space_group_name_H-M_alt    "P 1"
_space_group_IT_number       1

loop_
  _space_group_symop_operation_xyz
  'x, y, z'

loop_
  _atom_site_type_symbol
  _atom_site_label
  _atom_site_symmetry_multiplicity
  _atom_site_fract_x
  _atom_site_fract_y
  _atom_site_fract_z
  _atom_site_occupancy
  Cd  Cd1       1.0  0.64223  0.69163  0.24834  1.0000
  Cd  Cd2       1.0  0.35778  0.30837  0.75166  1.0000
  H   H1        1.0  0.90928  0.32269  0.85708  1.0000
  H   H2        1.0  0.09071  0.67731  0.14292  1.0000
  H   H3        1.0  0.29597  0.12339  0.44025  1.0000
  H   H4        1.0  0.70403  0.87660  0.55975  1.0000
  H   H5        1.0  0.07685  0.74749  0.97101  1.0000
  H   H6        1.0  0.92314  0.25251  0.02899  1.0000
  H   H7        1.0  0.14783  0.86688  0.83609  1.0000
  H   H8        1.0  0.85216  0.13312  0.16391  1.0000
  H   H9        1.0  0.60364  0.00211  0.03521  1.0000
  H   H10       1.0  0.39636  0.99789  0.96480  1.0000
  H   H11       1.0  0.66830  0.11687  0.89788  1.0000
  H   H12       1.0  0.33169  0.88313  0.10212  1.0000
  H   H13       1.0  0.04822  0.00478  0.72599  1.0000
  H   H14       1.0  0.95177  0.99523  0.27401  1.0000
  H   H15       1.0  0.03532  0.14548  0.79015  1.0000
  H   H16       1.0  0.96468  0.85452  0.20985  1.0000
  H   H17       1.0  0.80575  0.55929  0.96855  1.0000
  H   H18       1.0  0.19425  0.44072  0.03145  1.0000
  H   H19       1.0  0.57281  0.75248  0.00622  1.0000
  H   H20       1.0  0.42719  0.24753  0.99378  1.0000
  H   H21       1.0  0.33687  0.77450  0.93893  1.0000
  H   H22       1.0  0.66313  0.22550  0.06107  1.0000
  H   H23       1.0  0.31822  0.60060  0.83246  1.0000
  H   H24       1.0  0.68178  0.39941  0.16754  1.0000
  H   H25       1.0  0.07230  0.56798  0.41694  1.0000
  H   H26       1.0  0.92770  0.43202  0.58306  1.0000
  H   H27       1.0  0.33285  0.42373  0.43441  1.0000
  H   H28       1.0  0.66714  0.57627  0.56558  1.0000
  H   H29       1.0  0.05361  0.30424  0.20908  1.0000
  H   H30       1.0  0.94639  0.69575  0.79092  1.0000
  H   H31       1.0  0.31959  0.16623  0.22109  1.0000
  H   H32       1.0  0.68041  0.83377  0.77892  1.0000
  H   H33       1.0  0.53323  0.21906  0.39935  1.0000
  H   H34       1.0  0.46677  0.78093  0.60065  1.0000
  H   H35       1.0  0.60309  0.26895  0.29374  1.0000
  H   H36       1.0  0.39691  0.73105  0.70627  1.0000
  H   H37       1.0  0.08374  0.01603  0.57933  1.0000
  H   H38       1.0  0.91628  0.98395  0.42067  1.0000
  H   H39       1.0  0.04262  0.79626  0.63076  1.0000
  H   H40       1.0  0.95741  0.20372  0.36925  1.0000
  H   H41       1.0  0.22264  0.59285  0.55876  1.0000
  H   H42       1.0  0.77739  0.40714  0.44124  1.0000
  H   H43       1.0  0.45158  0.59708  0.42966  1.0000
  H   H44       1.0  0.54843  0.40291  0.57033  1.0000
  C   C1        1.0  0.79401  0.79777  0.09321  1.0000
  C   C2        1.0  0.20599  0.20223  0.90678  1.0000
  C   C3        1.0  0.83638  0.86841  0.01184  1.0000
  C   C4        1.0  0.16362  0.13159  0.98816  1.0000
  C   C5        1.0  0.98939  0.83020  0.95517  1.0000
  C   C6        1.0  0.01061  0.16980  0.04483  1.0000
  C   C7        1.0  0.02776  0.89674  0.87958  1.0000
  C   C8        1.0  0.97223  0.10326  0.12042  1.0000
  C   C9        1.0  0.72232  0.97271  0.99063  1.0000
  C   C10       1.0  0.27768  0.02729  0.00937  1.0000
  C   C11       1.0  0.76011  0.03811  0.91437  1.0000
  C   C12       1.0  0.23989  0.96190  0.08563  1.0000
  C   C13       1.0  0.91419  0.00201  0.85846  1.0000
  C   C14       1.0  0.08580  0.99800  0.14154  1.0000
  C   C15       1.0  0.96547  0.07379  0.77763  1.0000
  C   C16       1.0  0.03452  0.92622  0.22237  1.0000
  C   C17       1.0  0.72380  0.30019  0.78828  1.0000
  C   C18       1.0  0.27620  0.69982  0.21172  1.0000
  C   C19       1.0  0.69138  0.47419  0.87784  1.0000
  C   C20       1.0  0.30861  0.52581  0.12216  1.0000
  C   C21       1.0  0.70151  0.56892  0.93844  1.0000
  C   C22       1.0  0.29848  0.43109  0.06156  1.0000
  C   C23       1.0  0.57089  0.67657  0.95876  1.0000
  C   C24       1.0  0.42910  0.32344  0.04124  1.0000
  C   C25       1.0  0.43580  0.68858  0.92033  1.0000
  C   C26       1.0  0.56419  0.31143  0.07967  1.0000
  C   C27       1.0  0.42448  0.59313  0.86074  1.0000
  C   C28       1.0  0.57551  0.40688  0.13927  1.0000
  C   C29       1.0  0.55505  0.48485  0.83954  1.0000
  C   C30       1.0  0.44495  0.51516  0.16047  1.0000
  C   C31       1.0  0.89499  0.53401  0.29917  1.0000
  C   C32       1.0  0.10501  0.46599  0.70083  1.0000
  C   C33       1.0  0.04714  0.44492  0.31194  1.0000
  C   C34       1.0  0.95285  0.55508  0.68807  1.0000
  C   C35       1.0  0.12576  0.47839  0.37565  1.0000
  C   C36       1.0  0.87424  0.52161  0.62435  1.0000
  C   C37       1.0  0.27173  0.39862  0.38446  1.0000
  C   C38       1.0  0.72826  0.60138  0.61554  1.0000
  C   C39       1.0  0.11575  0.33027  0.25816  1.0000
  C   C40       1.0  0.88424  0.66973  0.74184  1.0000
  C   C41       1.0  0.26446  0.25282  0.26525  1.0000
  C   C42       1.0  0.73554  0.74717  0.73475  1.0000
  C   C43       1.0  0.34510  0.28775  0.32752  1.0000
  C   C44       1.0  0.65490  0.71224  0.67248  1.0000
  C   C45       1.0  0.51464  0.21781  0.33205  1.0000
  C   C46       1.0  0.48536  0.78219  0.66795  1.0000
  C   C47       1.0  0.47507  0.97032  0.36311  1.0000
  C   C48       1.0  0.52493  0.02967  0.63689  1.0000
  C   C49       1.0  0.29269  0.92607  0.47704  1.0000
  C   C50       1.0  0.70731  0.07392  0.52296  1.0000
  C   C51       1.0  0.16393  0.92531  0.54799  1.0000
  C   C52       1.0  0.83608  0.07467  0.45201  1.0000
  C   C53       1.0  0.14143  0.80268  0.57552  1.0000
  C   C54       1.0  0.85859  0.19731  0.42449  1.0000
  C   C55       1.0  0.24433  0.68584  0.53403  1.0000
  C   C56       1.0  0.75569  0.31415  0.46596  1.0000
  C   C57       1.0  0.37260  0.68704  0.46290  1.0000
  C   C58       1.0  0.62741  0.31295  0.53709  1.0000
  C   C59       1.0  0.39533  0.80903  0.43407  1.0000
  C   C60       1.0  0.60468  0.19096  0.56593  1.0000
  S   S1        1.0  0.80660  0.15449  0.72522  1.0000
  S   S2        1.0  0.19340  0.84552  0.27478  1.0000
  S   S3        1.0  0.58214  0.05231  0.28432  1.0000
  S   S4        1.0  0.41786  0.94769  0.71568  1.0000
  N   N1        1.0  0.57794  0.37367  0.78455  1.0000
  N   N2        1.0  0.42205  0.62634  0.21545  1.0000
  N   N3        1.0  0.79585  0.35690  0.84342  1.0000
  N   N4        1.0  0.20415  0.64311  0.15658  1.0000
  N   N5        1.0  0.50676  0.84001  0.36375  1.0000
  N   N6        1.0  0.49324  0.15999  0.63625  1.0000
  N   N7        1.0  0.34803  0.02630  0.43083  1.0000
  N   N8        1.0  0.65197  0.97369  0.56917  1.0000
  O   O1        1.0  0.90074  0.70972  0.11626  1.0000
  O   O2        1.0  0.09926  0.29028  0.88373  1.0000
  O   O3        1.0  0.64640  0.82934  0.13731  1.0000
  O   O4        1.0  0.35360  0.17065  0.86269  1.0000
  O   O5        1.0  0.86439  0.65351  0.32587  1.0000
  O   O6        1.0  0.13562  0.34648  0.67412  1.0000
  O   O7        1.0  0.80176  0.48683  0.25953  1.0000
  O   O8        1.0  0.19824  0.51317  0.74047  1.0000
