data_image0
_chemical_formula_structural       Ag8H4C12N12O12
_chemical_formula_sum              "Ag8 H4 C12 N12 O12"
_cell_length_a       6.61337
_cell_length_b       9.12219
_cell_length_c       9.12222
_cell_angle_alpha    91.246
_cell_angle_beta     95.0906
_cell_angle_gamma    95.0905

_space_group_name_H-M_alt    "P 1"
_space_group_IT_number       1

loop_
  _space_group_symop_operation_xyz
  'x, y, z'

loop_
  _atom_site_type_symbol
  _atom_site_label
  _atom_site_symmetry_multiplicity
  _atom_site_fract_x
  _atom_site_fract_y
  _atom_site_fract_z
  _atom_site_occupancy
  Ag  Ag1       1.0  0.92172  0.02508  0.85223  1.0000
  Ag  Ag2       1.0  0.57829  0.14777  0.97492  1.0000
  Ag  Ag3       1.0  0.07829  0.97492  0.14777  1.0000
  Ag  Ag4       1.0  0.42171  0.85223  0.02508  1.0000
  Ag  Ag5       1.0  1.00000  0.50000  0.50000  1.0000
  Ag  Ag6       1.0  0.50000  0.50000  0.50000  1.0000
  Ag  Ag7       1.0  0.25000  0.32018  0.67982  1.0000
  Ag  Ag8       1.0  0.75000  0.67983  0.32018  1.0000
  H   H1        1.0  0.77435  0.49877  0.03653  1.0000
  H   H2        1.0  0.72564  0.96347  0.50123  1.0000
  H   H3        1.0  0.22565  0.50124  0.96347  1.0000
  H   H4        1.0  0.27436  0.03653  0.49877  1.0000
  C   C1        1.0  0.84404  0.70834  0.95628  1.0000
  C   C2        1.0  0.65596  0.04372  0.29165  1.0000
  C   C3        1.0  0.15596  0.29166  0.04372  1.0000
  C   C4        1.0  0.34404  0.95628  0.70835  1.0000
  C   C5        1.0  0.65525  0.50385  0.81978  1.0000
  C   C6        1.0  0.84475  0.18022  0.49616  1.0000
  C   C7        1.0  0.34475  0.49616  0.18022  1.0000
  C   C8        1.0  0.15525  0.81978  0.50384  1.0000
  C   C9        1.0  0.72674  0.73203  0.70695  1.0000
  C   C10       1.0  0.77326  0.29304  0.26796  1.0000
  C   C11       1.0  0.27327  0.26796  0.29305  1.0000
  C   C12       1.0  0.22673  0.70695  0.73204  1.0000
  N   N1        1.0  0.82199  0.79360  0.83729  1.0000
  N   N2        1.0  0.67801  0.16271  0.20640  1.0000
  N   N3        1.0  0.17801  0.20640  0.16271  1.0000
  N   N4        1.0  0.32198  0.83729  0.79360  1.0000
  N   N5        1.0  0.76490  0.56379  0.94448  1.0000
  N   N6        1.0  0.73509  0.05552  0.43620  1.0000
  N   N7        1.0  0.23510  0.43621  0.05553  1.0000
  N   N8        1.0  0.26490  0.94448  0.56380  1.0000
  N   N9        1.0  0.64595  0.58789  0.69936  1.0000
  N   N10       1.0  0.85405  0.30064  0.41211  1.0000
  N   N11       1.0  0.35405  0.41212  0.30064  1.0000
  N   N12       1.0  0.14595  0.69936  0.58789  1.0000
  O   O1        1.0  0.56760  0.37550  0.82044  1.0000
  O   O2        1.0  0.93239  0.17956  0.62449  1.0000
  O   O3        1.0  0.43240  0.62450  0.17956  1.0000
  O   O4        1.0  0.06760  0.82044  0.37551  1.0000
  O   O5        1.0  0.93097  0.75401  0.08044  1.0000
  O   O6        1.0  0.56903  0.91956  0.24598  1.0000
  O   O7        1.0  0.06903  0.24599  0.91957  1.0000
  O   O8        1.0  0.43097  0.08043  0.75401  1.0000
  O   O9        1.0  0.71101  0.80710  0.59321  1.0000
  O   O10       1.0  0.78900  0.40679  0.19290  1.0000
  O   O11       1.0  0.28900  0.19291  0.40679  1.0000
  O   O12       1.0  0.21100  0.59321  0.80709  1.0000
