data_image0
_chemical_formula_structural       CuH16C24N2Cl2O4
_chemical_formula_sum              "Cu1 H16 C24 N2 Cl2 O4"
_cell_length_a       5.07147
_cell_length_b       9.25737
_cell_length_c       12.0497
_cell_angle_alpha    105.712
_cell_angle_beta     90.8796
_cell_angle_gamma    98.3448

_space_group_name_H-M_alt    "P 1"
_space_group_IT_number       1

loop_
  _space_group_symop_operation_xyz
  'x, y, z'

loop_
  _atom_site_type_symbol
  _atom_site_label
  _atom_site_symmetry_multiplicity
  _atom_site_fract_x
  _atom_site_fract_y
  _atom_site_fract_z
  _atom_site_occupancy
  Cu  Cu1       1.0  0.50000  0.99999  1.00000  1.0000
  H   H1        1.0  0.00820  0.05176  0.87972  1.0000
  H   H2        1.0  0.99179  0.94823  0.12028  1.0000
  H   H3        1.0  0.79201  0.26382  0.86881  1.0000
  H   H4        1.0  0.20799  0.73617  0.13120  1.0000
  H   H5        1.0  0.36242  0.55141  0.13937  1.0000
  H   H6        1.0  0.63757  0.44858  0.86064  1.0000
  H   H7        1.0  0.56323  0.32167  0.13555  1.0000
  H   H8        1.0  0.43679  0.67832  0.86445  1.0000
  H   H9        1.0  0.09460  0.27846  0.26352  1.0000
  H   H10       1.0  0.90539  0.72153  0.73647  1.0000
  H   H11       1.0  0.36485  0.40414  0.44742  1.0000
  H   H12       1.0  0.63515  0.59586  0.55256  1.0000
  H   H13       1.0  0.78601  0.18093  0.63115  1.0000
  H   H14       1.0  0.21398  0.81910  0.36886  1.0000
  H   H15       1.0  0.51386  0.06171  0.44454  1.0000
  H   H16       1.0  0.48615  0.93830  0.55546  1.0000
  C   C1        1.0  0.08454  0.16429  0.93537  1.0000
  C   C2        1.0  0.91547  0.83571  0.06464  1.0000
  C   C3        1.0  0.96261  0.28740  0.93023  1.0000
  C   C4        1.0  0.03738  0.71259  0.06977  1.0000
  C   C5        1.0  0.05943  0.43257  0.00236  1.0000
  C   C6        1.0  0.94056  0.56743  0.99765  1.0000
  C   C7        1.0  0.27704  0.44353  0.07921  1.0000
  C   C8        1.0  0.72297  0.55645  0.92080  1.0000
  C   C9        1.0  0.39112  0.31600  0.07860  1.0000
  C   C10       1.0  0.60888  0.68399  0.92140  1.0000
  C   C11       1.0  0.62311  0.08031  0.23418  1.0000
  C   C12       1.0  0.37688  0.91967  0.76583  1.0000
  C   C13       1.0  0.78782  0.16123  0.34345  1.0000
  C   C14       1.0  0.21217  0.83878  0.65654  1.0000
  C   C15       1.0  0.02694  0.25862  0.34413  1.0000
  C   C16       1.0  0.97306  0.74137  0.65585  1.0000
  C   C17       1.0  0.17836  0.32916  0.44698  1.0000
  C   C18       1.0  0.82165  0.67085  0.55300  1.0000
  C   C19       1.0  0.08867  0.30095  0.54926  1.0000
  C   C20       1.0  0.91133  0.69907  0.45073  1.0000
  C   C21       1.0  0.85173  0.20386  0.55099  1.0000
  C   C22       1.0  0.14828  0.79617  0.44901  1.0000
  C   C23       1.0  0.70223  0.13574  0.44729  1.0000
  C   C24       1.0  0.29776  0.86428  0.55272  1.0000
  N   N1        1.0  0.29876  0.17765  0.00694  1.0000
  N   N2        1.0  0.70124  0.82233  0.99305  1.0000
  Cl  Cl1       1.0  0.27609  0.39027  0.67789  1.0000
  Cl  Cl2       1.0  0.72391  0.60975  0.32209  1.0000
  O   O1        1.0  0.70690  0.11829  0.14236  1.0000
  O   O2        1.0  0.29309  0.88169  0.85764  1.0000
  O   O3        1.0  0.42417  0.98285  0.23314  1.0000
  O   O4        1.0  0.57583  0.01714  0.76686  1.0000
