data_image0
_chemical_formula_structural       Cd4H40C40N8Cl8O4
_chemical_formula_sum              "Cd4 H40 C40 N8 Cl8 O4"
_cell_length_a       3.83352
_cell_length_b       16.4433
_cell_length_c       18.3305
_cell_angle_alpha    89.9999
_cell_angle_beta     89.9999
_cell_angle_gamma    90

_space_group_name_H-M_alt    "P 1"
_space_group_IT_number       1

loop_
  _space_group_symop_operation_xyz
  'x, y, z'

loop_
  _atom_site_type_symbol
  _atom_site_label
  _atom_site_symmetry_multiplicity
  _atom_site_fract_x
  _atom_site_fract_y
  _atom_site_fract_z
  _atom_site_occupancy
  Cd  Cd1       1.0  0.27010  0.49745  0.40423  1.0000
  Cd  Cd2       1.0  0.77010  0.50255  0.59577  1.0000
  Cd  Cd3       1.0  0.27010  0.99745  0.09577  1.0000
  Cd  Cd4       1.0  0.77010  0.00255  0.90423  1.0000
  H   H1        1.0  0.04980  0.18268  0.20749  1.0000
  H   H2        1.0  0.54980  0.81732  0.79251  1.0000
  H   H3        1.0  0.04980  0.68268  0.29251  1.0000
  H   H4        1.0  0.54980  0.31732  0.70749  1.0000
  H   H5        1.0  0.48102  0.29385  0.39425  1.0000
  H   H6        1.0  0.98102  0.70615  0.60575  1.0000
  H   H7        1.0  0.48102  0.79385  0.10575  1.0000
  H   H8        1.0  0.98102  0.20615  0.89425  1.0000
  H   H9        1.0  0.56699  0.09409  0.28737  1.0000
  H   H10       1.0  0.06700  0.90591  0.71264  1.0000
  H   H11       1.0  0.56699  0.59409  0.21264  1.0000
  H   H12       1.0  0.06699  0.40591  0.78737  1.0000
  H   H13       1.0  0.17530  0.08821  0.33756  1.0000
  H   H14       1.0  0.67531  0.91179  0.66244  1.0000
  H   H15       1.0  0.17530  0.58821  0.16244  1.0000
  H   H16       1.0  0.67531  0.41179  0.83756  1.0000
  H   H17       1.0  0.55782  0.12708  0.38039  1.0000
  H   H18       1.0  0.05783  0.87292  0.61961  1.0000
  H   H19       1.0  0.55783  0.62708  0.11961  1.0000
  H   H20       1.0  0.05782  0.37292  0.88039  1.0000
  H   H21       1.0  0.75469  0.44218  0.21303  1.0000
  H   H22       1.0  0.25470  0.55782  0.78696  1.0000
  H   H23       1.0  0.75469  0.94218  0.28696  1.0000
  H   H24       1.0  0.25469  0.05782  0.71304  1.0000
  H   H25       1.0  0.55491  0.49629  0.09324  1.0000
  H   H26       1.0  0.05492  0.50371  0.90676  1.0000
  H   H27       1.0  0.55492  0.99629  0.40676  1.0000
  H   H28       1.0  0.05492  0.00371  0.59324  1.0000
  H   H29       1.0  0.68097  0.42238  0.97915  1.0000
  H   H30       1.0  0.18097  0.57762  0.02085  1.0000
  H   H31       1.0  0.68097  0.92238  0.52085  1.0000
  H   H32       1.0  0.18097  0.07762  0.47915  1.0000
  H   H33       1.0  0.01730  0.29115  0.98432  1.0000
  H   H34       1.0  0.51729  0.70884  0.01568  1.0000
  H   H35       1.0  0.01730  0.79116  0.51568  1.0000
  H   H36       1.0  0.51730  0.20884  0.48432  1.0000
  H   H37       1.0  0.22616  0.23827  0.10152  1.0000
  H   H38       1.0  0.72617  0.76173  0.89848  1.0000
  H   H39       1.0  0.22616  0.73827  0.39848  1.0000
  H   H40       1.0  0.72616  0.26173  0.60152  1.0000
  C   C1        1.0  0.22959  0.34521  0.29511  1.0000
  C   C2        1.0  0.72959  0.65479  0.70489  1.0000
  C   C3        1.0  0.22959  0.84521  0.20489  1.0000
  C   C4        1.0  0.72958  0.15479  0.79511  1.0000
  C   C5        1.0  0.36173  0.28287  0.34162  1.0000
  C   C6        1.0  0.86174  0.71714  0.65838  1.0000
  C   C7        1.0  0.36174  0.78286  0.15838  1.0000
  C   C8        1.0  0.86174  0.21713  0.84162  1.0000
  C   C9        1.0  0.32441  0.20938  0.30588  1.0000
  C   C10       1.0  0.82441  0.79062  0.69412  1.0000
  C   C11       1.0  0.32440  0.70938  0.19412  1.0000
  C   C12       1.0  0.82441  0.29062  0.80588  1.0000
  C   C13       1.0  0.41092  0.12526  0.32920  1.0000
  C   C14       1.0  0.91093  0.87474  0.67080  1.0000
  C   C15       1.0  0.41093  0.62526  0.17080  1.0000
  C   C16       1.0  0.91093  0.37474  0.82920  1.0000
  C   C17       1.0  0.00149  0.33701  0.16464  1.0000
  C   C18       1.0  0.50150  0.66299  0.83537  1.0000
  C   C19       1.0  0.00149  0.83701  0.33536  1.0000
  C   C20       1.0  0.50150  0.16299  0.66464  1.0000
  C   C21       1.0  0.81664  0.41057  0.16254  1.0000
  C   C22       1.0  0.31664  0.58943  0.83746  1.0000
  C   C23       1.0  0.81664  0.91057  0.33746  1.0000
  C   C24       1.0  0.31664  0.08943  0.66254  1.0000
  C   C25       1.0  0.70792  0.44069  0.09526  1.0000
  C   C26       1.0  0.20792  0.55931  0.90474  1.0000
  C   C27       1.0  0.70793  0.94070  0.40474  1.0000
  C   C28       1.0  0.20792  0.05931  0.59526  1.0000
  C   C29       1.0  0.77670  0.39847  0.03083  1.0000
  C   C30       1.0  0.27670  0.60153  0.96917  1.0000
  C   C31       1.0  0.77670  0.89847  0.46917  1.0000
  C   C32       1.0  0.27670  0.10153  0.53083  1.0000
  C   C33       1.0  0.95946  0.32518  0.03383  1.0000
  C   C34       1.0  0.45946  0.67482  0.96617  1.0000
  C   C35       1.0  0.95947  0.82518  0.46617  1.0000
  C   C36       1.0  0.45947  0.17482  0.53383  1.0000
  C   C37       1.0  0.07424  0.29421  0.10031  1.0000
  C   C38       1.0  0.57424  0.70579  0.89969  1.0000
  C   C39       1.0  0.07424  0.79421  0.39969  1.0000
  C   C40       1.0  0.57424  0.20579  0.60031  1.0000
  N   N1        1.0  0.11168  0.30514  0.23234  1.0000
  N   N2        1.0  0.61168  0.69486  0.76766  1.0000
  N   N3        1.0  0.11168  0.80514  0.26766  1.0000
  N   N4        1.0  0.61168  0.19486  0.73234  1.0000
  N   N5        1.0  0.18735  0.22367  0.23881  1.0000
  N   N6        1.0  0.68735  0.77633  0.76119  1.0000
  N   N7        1.0  0.18735  0.72367  0.26118  1.0000
  N   N8        1.0  0.68735  0.27633  0.73882  1.0000
  Cl  Cl1       1.0  0.77054  0.41135  0.47129  1.0000
  Cl  Cl2       1.0  0.27054  0.58865  0.52871  1.0000
  Cl  Cl3       1.0  0.77055  0.91135  0.02871  1.0000
  Cl  Cl4       1.0  0.27055  0.08865  0.97129  1.0000
  Cl  Cl5       1.0  0.76956  0.59016  0.35252  1.0000
  Cl  Cl6       1.0  0.26956  0.40985  0.64748  1.0000
  Cl  Cl7       1.0  0.76956  0.09015  0.14748  1.0000
  Cl  Cl8       1.0  0.26956  0.90984  0.85252  1.0000
  O   O1        1.0  0.21774  0.42217  0.30117  1.0000
  O   O2        1.0  0.71776  0.57783  0.69883  1.0000
  O   O3        1.0  0.21776  0.92217  0.19883  1.0000
  O   O4        1.0  0.71774  0.07783  0.80117  1.0000
