data_image0
_chemical_formula_structural       Pr2H54C32O18
_chemical_formula_sum              "Pr2 H54 C32 O18"
_cell_length_a       8.43587
_cell_length_b       8.87341
_cell_length_c       13.0251
_cell_angle_alpha    99.6653
_cell_angle_beta     102.916
_cell_angle_gamma    98.417

_space_group_name_H-M_alt    "P 1"
_space_group_IT_number       1

loop_
  _space_group_symop_operation_xyz
  'x, y, z'

loop_
  _atom_site_type_symbol
  _atom_site_label
  _atom_site_symmetry_multiplicity
  _atom_site_fract_x
  _atom_site_fract_y
  _atom_site_fract_z
  _atom_site_occupancy
  Pr  Pr1       1.0  0.24904  0.51544  0.49664  1.0000
  Pr  Pr2       1.0  0.75096  0.48456  0.50336  1.0000
  H   H1        1.0  0.73160  0.29245  0.22457  1.0000
  H   H2        1.0  0.26840  0.70755  0.77544  1.0000
  H   H3        1.0  0.78982  0.11719  0.24946  1.0000
  H   H4        1.0  0.21018  0.88281  0.75054  1.0000
  H   H5        1.0  0.96971  0.12383  0.12034  1.0000
  H   H6        1.0  0.03029  0.87617  0.87966  1.0000
  H   H7        1.0  0.92793  0.30655  0.10058  1.0000
  H   H8        1.0  0.07207  0.69345  0.89942  1.0000
  H   H9        1.0  0.62437  0.18868  0.02631  1.0000
  H   H10       1.0  0.37563  0.81132  0.97369  1.0000
  H   H11       1.0  0.66656  0.00513  0.04426  1.0000
  H   H12       1.0  0.33344  0.99486  0.95574  1.0000
  H   H13       1.0  0.80920  0.19646  0.89884  1.0000
  H   H14       1.0  0.19080  0.80354  0.10116  1.0000
  H   H15       1.0  0.84668  0.01051  0.91519  1.0000
  H   H16       1.0  0.15332  0.98949  0.08481  1.0000
  H   H17       1.0  0.50317  0.08407  0.82828  1.0000
  H   H18       1.0  0.49683  0.91593  0.17172  1.0000
  H   H19       1.0  0.54380  0.89829  0.84291  1.0000
  H   H20       1.0  0.45620  0.10171  0.15709  1.0000
  H   H21       1.0  0.67933  0.09522  0.69789  1.0000
  H   H22       1.0  0.32067  0.90478  0.30211  1.0000
  H   H23       1.0  0.72038  0.90575  0.71081  1.0000
  H   H24       1.0  0.27962  0.09425  0.28919  1.0000
  H   H25       1.0  0.26329  0.94808  0.53654  1.0000
  H   H26       1.0  0.73671  0.05193  0.46346  1.0000
  H   H27       1.0  0.57185  0.34082  0.80848  1.0000
  H   H28       1.0  0.42815  0.65918  0.19152  1.0000
  H   H29       1.0  0.73856  0.44132  0.76862  1.0000
  H   H30       1.0  0.26144  0.55868  0.23138  1.0000
  H   H31       1.0  0.52234  0.59945  0.89824  1.0000
  H   H32       1.0  0.47766  0.40056  0.10176  1.0000
  H   H33       1.0  0.69892  0.69379  0.86558  1.0000
  H   H34       1.0  0.30109  0.30621  0.13442  1.0000
  H   H35       1.0  0.87580  0.54048  0.97290  1.0000
  H   H36       1.0  0.12420  0.45952  0.02710  1.0000
  H   H37       1.0  0.70093  0.45271  0.00935  1.0000
  H   H38       1.0  0.29907  0.54729  0.99065  1.0000
  H   H39       1.0  0.66872  0.71510  0.10013  1.0000
  H   H40       1.0  0.33128  0.28490  0.89987  1.0000
  H   H41       1.0  0.83956  0.80411  0.06002  1.0000
  H   H42       1.0  0.16044  0.19590  0.93998  1.0000
  H   H43       1.0  0.85019  0.57229  0.21078  1.0000
  H   H44       1.0  0.14981  0.42771  0.78922  1.0000
  H   H45       1.0  0.02101  0.64949  0.16591  1.0000
  H   H46       1.0  0.97900  0.35051  0.83409  1.0000
  H   H47       1.0  0.83357  0.83418  0.30392  1.0000
  H   H48       1.0  0.16643  0.16582  0.69608  1.0000
  H   H49       1.0  0.98845  0.92317  0.25126  1.0000
  H   H50       1.0  0.01155  0.07683  0.74874  1.0000
  H   H51       1.0  0.15285  0.13468  0.47374  1.0000
  H   H52       1.0  0.84715  0.86532  0.52626  1.0000
  H   H53       1.0  0.32963  0.20924  0.54577  1.0000
  H   H54       1.0  0.67036  0.79076  0.45423  1.0000
  C   C1        1.0  0.97608  0.31780  0.31836  1.0000
  C   C2        1.0  0.02392  0.68220  0.68164  1.0000
  C   C3        1.0  0.83331  0.22730  0.22676  1.0000
  C   C4        1.0  0.16669  0.77270  0.77324  1.0000
  C   C5        1.0  0.87355  0.19576  0.11757  1.0000
  C   C6        1.0  0.12645  0.80423  0.88243  1.0000
  C   C7        1.0  0.72029  0.11618  0.02716  1.0000
  C   C8        1.0  0.27971  0.88382  0.97284  1.0000
  C   C9        1.0  0.75370  0.08589  0.91584  1.0000
  C   C10       1.0  0.24630  0.91411  0.08416  1.0000
  C   C11       1.0  0.59722  0.01007  0.82699  1.0000
  C   C12       1.0  0.40277  0.98993  0.17301  1.0000
  C   C13       1.0  0.63034  0.98286  0.71468  1.0000
  C   C14       1.0  0.36966  0.01714  0.28532  1.0000
  C   C15       1.0  0.47363  0.90832  0.62935  1.0000
  C   C16       1.0  0.52637  0.09168  0.37065  1.0000
  C   C17       1.0  0.49752  0.46943  0.69017  1.0000
  C   C18       1.0  0.50248  0.53056  0.30983  1.0000
  C   C19       1.0  0.62076  0.45187  0.78891  1.0000
  C   C20       1.0  0.37924  0.54813  0.21109  1.0000
  C   C21       1.0  0.64440  0.58519  0.88535  1.0000
  C   C22       1.0  0.35560  0.41481  0.11465  1.0000
  C   C23       1.0  0.75609  0.56008  0.98808  1.0000
  C   C24       1.0  0.24391  0.43992  0.01192  1.0000
  C   C25       1.0  0.78791  0.69695  0.08317  1.0000
  C   C26       1.0  0.21209  0.30306  0.91683  1.0000
  C   C27       1.0  0.90532  0.67444  0.18464  1.0000
  C   C28       1.0  0.09468  0.32556  0.81536  1.0000
  C   C29       1.0  0.94540  0.81566  0.27698  1.0000
  C   C30       1.0  0.05460  0.18434  0.72302  1.0000
  C   C31       1.0  0.07490  0.80591  0.37606  1.0000
  C   C32       1.0  0.92510  0.19409  0.62394  1.0000
  O   O1        1.0  0.94540  0.37476  0.40905  1.0000
  O   O2        1.0  0.05460  0.62524  0.59095  1.0000
  O   O3        1.0  0.12278  0.33779  0.30873  1.0000
  O   O4        1.0  0.87722  0.66221  0.69127  1.0000
  O   O5        1.0  0.37420  0.00367  0.60137  1.0000
  O   O6        1.0  0.62579  0.99633  0.39863  1.0000
  O   O7        1.0  0.43968  0.76576  0.59120  1.0000
  O   O8        1.0  0.56032  0.23424  0.40880  1.0000
  O   O9        1.0  0.53187  0.44518  0.59741  1.0000
  O   O10       1.0  0.46813  0.55482  0.40259  1.0000
  O   O11       1.0  0.35943  0.50384  0.69657  1.0000
  O   O12       1.0  0.64057  0.49615  0.30343  1.0000
  O   O13       1.0  0.12470  0.92889  0.45117  1.0000
  O   O14       1.0  0.87531  0.07111  0.54883  1.0000
  O   O15       1.0  0.12864  0.68102  0.38075  1.0000
  O   O16       1.0  0.87136  0.31898  0.61925  1.0000
  O   O17       1.0  0.22554  0.23620  0.51117  1.0000
  O   O18       1.0  0.77445  0.76380  0.48883  1.0000
