data_image0
_chemical_formula_structural       Na4H30C16N2O18
_chemical_formula_sum              "Na4 H30 C16 N2 O18"
_cell_length_a       7.95308
_cell_length_b       7.88527
_cell_length_c       11.3453
_cell_angle_alpha    73.0595
_cell_angle_beta     76.1439
_cell_angle_gamma    85.1038

_space_group_name_H-M_alt    "P 1"
_space_group_IT_number       1

loop_
  _space_group_symop_operation_xyz
  'x, y, z'

loop_
  _atom_site_type_symbol
  _atom_site_label
  _atom_site_symmetry_multiplicity
  _atom_site_fract_x
  _atom_site_fract_y
  _atom_site_fract_z
  _atom_site_occupancy
  Na  Na1       1.0  0.37512  0.97242  0.64812  1.0000
  Na  Na2       1.0  0.62489  0.02758  0.35188  1.0000
  Na  Na3       1.0  0.06900  0.26931  0.56852  1.0000
  Na  Na4       1.0  0.93101  0.73068  0.43148  1.0000
  H   H1        1.0  0.41196  0.34237  0.60264  1.0000
  H   H2        1.0  0.58805  0.65763  0.39737  1.0000
  H   H3        1.0  0.44474  0.31380  0.46483  1.0000
  H   H4        1.0  0.55527  0.68620  0.53517  1.0000
  H   H5        1.0  0.97206  0.01427  0.79372  1.0000
  H   H6        1.0  0.02795  0.98573  0.20628  1.0000
  H   H7        1.0  0.99114  0.90372  0.69425  1.0000
  H   H8        1.0  0.00887  0.09628  0.30575  1.0000
  H   H9        1.0  0.71980  0.12202  0.55808  1.0000
  H   H10       1.0  0.28021  0.87798  0.44192  1.0000
  H   H11       1.0  0.75138  0.91356  0.59714  1.0000
  H   H12       1.0  0.24862  0.08644  0.40285  1.0000
  H   H13       1.0  0.33882  0.00523  0.92162  1.0000
  H   H14       1.0  0.66119  0.99477  0.07838  1.0000
  H   H15       1.0  0.43392  0.16246  0.81029  1.0000
  H   H16       1.0  0.56608  0.83754  0.18972  1.0000
  H   H17       1.0  0.67864  0.36681  0.61480  1.0000
  H   H18       1.0  0.32136  0.63319  0.38520  1.0000
  H   H19       1.0  0.80352  0.39997  0.47503  1.0000
  H   H20       1.0  0.19648  0.60003  0.52497  1.0000
  H   H21       1.0  0.31666  0.20321  0.18736  1.0000
  H   H22       1.0  0.68335  0.79680  0.81264  1.0000
  H   H23       1.0  0.47399  0.24594  0.96579  1.0000
  H   H24       1.0  0.52600  0.75406  0.03421  1.0000
  H   H25       1.0  0.19418  0.73691  0.85778  1.0000
  H   H26       1.0  0.80581  0.26308  0.14223  1.0000
  H   H27       1.0  0.96095  0.80029  0.01594  1.0000
  H   H28       1.0  0.03904  0.19971  0.98405  1.0000
  H   H29       1.0  0.94172  0.69430  0.17342  1.0000
  H   H30       1.0  0.05827  0.30571  0.82658  1.0000
  C   C1        1.0  0.06278  0.40246  0.28472  1.0000
  C   C2        1.0  0.93720  0.59754  0.71528  1.0000
  C   C3        1.0  0.42643  0.51640  0.75971  1.0000
  C   C4        1.0  0.57357  0.48359  0.24029  1.0000
  C   C5        1.0  0.16387  0.44453  0.15105  1.0000
  C   C6        1.0  0.83612  0.55547  0.84895  1.0000
  C   C7        1.0  0.28738  0.31932  0.11477  1.0000
  C   C8        1.0  0.71261  0.68068  0.88524  1.0000
  C   C9        1.0  0.37461  0.34142  0.99015  1.0000
  C   C10       1.0  0.62538  0.65859  0.00985  1.0000
  C   C11       1.0  0.33890  0.49231  0.89631  1.0000
  C   C12       1.0  0.66109  0.50770  0.10369  1.0000
  C   C13       1.0  0.22168  0.62016  0.93060  1.0000
  C   C14       1.0  0.77831  0.37984  0.06940  1.0000
  C   C15       1.0  0.13421  0.60148  0.05705  1.0000
  C   C16       1.0  0.86579  0.39853  0.94294  1.0000
  N   N1        1.0  0.02263  0.73657  0.08578  1.0000
  N   N2        1.0  0.97736  0.26344  0.91422  1.0000
  O   O1        1.0  0.36105  0.29284  0.54883  1.0000
  O   O2        1.0  0.63896  0.70715  0.45117  1.0000
  O   O3        1.0  0.04990  0.99084  0.71947  1.0000
  O   O4        1.0  0.95011  0.00916  0.28053  1.0000
  O   O5        1.0  0.67771  0.00761  0.55552  1.0000
  O   O6        1.0  0.32229  0.99239  0.44448  1.0000
  O   O7        1.0  0.40411  0.03447  0.83455  1.0000
  O   O8        1.0  0.59590  0.96553  0.16546  1.0000
  O   O9        1.0  0.77975  0.31979  0.56210  1.0000
  O   O10       1.0  0.22025  0.68021  0.43790  1.0000
  O   O11       1.0  0.08400  0.24785  0.35941  1.0000
  O   O12       1.0  0.91599  0.75215  0.64059  1.0000
  O   O13       1.0  0.95520  0.51630  0.32157  1.0000
  O   O14       1.0  0.04477  0.48369  0.67843  1.0000
  O   O15       1.0  0.49390  0.37671  0.72853  1.0000
  O   O16       1.0  0.50611  0.62328  0.27148  1.0000
  O   O17       1.0  0.42904  0.66856  0.68212  1.0000
  O   O18       1.0  0.57096  0.33144  0.31788  1.0000
