data_image0
_chemical_formula_structural       Na2H54C40N12O22
_chemical_formula_sum              "Na2 H54 C40 N12 O22"
_cell_length_a       8.3676
_cell_length_b       11.3593
_cell_length_c       12.7948
_cell_angle_alpha    87.3173
_cell_angle_beta     88.3554
_cell_angle_gamma    79.4527

_space_group_name_H-M_alt    "P 1"
_space_group_IT_number       1

loop_
  _space_group_symop_operation_xyz
  'x, y, z'

loop_
  _atom_site_type_symbol
  _atom_site_label
  _atom_site_symmetry_multiplicity
  _atom_site_fract_x
  _atom_site_fract_y
  _atom_site_fract_z
  _atom_site_occupancy
  Na  Na1       1.0  0.21021  0.80333  0.74785  1.0000
  Na  Na2       1.0  0.78979  0.19667  0.25215  1.0000
  H   H1        1.0  0.91153  0.94142  0.82445  1.0000
  H   H2        1.0  0.08847  0.05858  0.17555  1.0000
  H   H3        1.0  0.11262  0.64044  0.89166  1.0000
  H   H4        1.0  0.88738  0.35956  0.10834  1.0000
  H   H5        1.0  0.48462  0.13475  0.34258  1.0000
  H   H6        1.0  0.51538  0.86525  0.65743  1.0000
  H   H7        1.0  0.21624  0.80520  0.47018  1.0000
  H   H8        1.0  0.78376  0.19480  0.52982  1.0000
  H   H9        1.0  0.06241  0.88624  0.38675  1.0000
  H   H10       1.0  0.93758  0.11377  0.61325  1.0000
  H   H11       1.0  0.25764  0.82910  0.33291  1.0000
  H   H12       1.0  0.74236  0.17090  0.66709  1.0000
  H   H13       1.0  0.41234  0.19589  0.66632  1.0000
  H   H14       1.0  0.58765  0.80411  0.33368  1.0000
  H   H15       1.0  0.20242  0.19244  0.68481  1.0000
  H   H16       1.0  0.79758  0.80756  0.31519  1.0000
  H   H17       1.0  0.34941  0.05858  0.70841  1.0000
  H   H18       1.0  0.65059  0.94142  0.29159  1.0000
  H   H19       1.0  0.54490  0.53738  0.25008  1.0000
  H   H20       1.0  0.45510  0.46262  0.74992  1.0000
  H   H21       1.0  0.36906  0.65354  0.24696  1.0000
  H   H22       1.0  0.63094  0.34646  0.75304  1.0000
  H   H23       1.0  0.46434  0.60307  0.36871  1.0000
  H   H24       1.0  0.53565  0.39693  0.63129  1.0000
  H   H25       1.0  0.86126  0.41132  0.42888  1.0000
  H   H26       1.0  0.13874  0.58868  0.57112  1.0000
  H   H27       1.0  0.88099  0.56480  0.40138  1.0000
  H   H28       1.0  0.11901  0.43520  0.59862  1.0000
  H   H29       1.0  0.82204  0.47725  0.30114  1.0000
  H   H30       1.0  0.17796  0.52275  0.69886  1.0000
  H   H31       1.0  0.63434  0.11312  0.89798  1.0000
  H   H32       1.0  0.36566  0.88688  0.10202  1.0000
  H   H33       1.0  0.73836  0.15251  0.00953  1.0000
  H   H34       1.0  0.26164  0.84749  0.99047  1.0000
  H   H35       1.0  0.65977  0.01712  0.01340  1.0000
  H   H36       1.0  0.34023  0.98288  0.98660  1.0000
  H   H37       1.0  0.13709  0.32064  0.84427  1.0000
  H   H38       1.0  0.86291  0.67936  0.15573  1.0000
  H   H39       1.0  0.98742  0.29754  0.94224  1.0000
  H   H40       1.0  0.01258  0.70246  0.05776  1.0000
  H   H41       1.0  0.05767  0.43651  0.93164  1.0000
  H   H42       1.0  0.94233  0.56349  0.06836  1.0000
  H   H43       1.0  0.00414  0.08370  0.94564  1.0000
  H   H44       1.0  0.99586  0.91630  0.05436  1.0000
  H   H45       1.0  0.97641  0.12089  0.80893  1.0000
  H   H46       1.0  0.02359  0.87911  0.19107  1.0000
  H   H47       1.0  0.17391  0.05921  0.85635  1.0000
  H   H48       1.0  0.82609  0.94078  0.14365  1.0000
  H   H49       1.0  0.29970  0.57827  0.03317  1.0000
  H   H50       1.0  0.70030  0.42173  0.96683  1.0000
  H   H51       1.0  0.45398  0.59895  0.93839  1.0000
  H   H52       1.0  0.54602  0.40106  0.06161  1.0000
  H   H53       1.0  0.33838  0.48422  0.92361  1.0000
  H   H54       1.0  0.66162  0.51579  0.07640  1.0000
  C   C1        1.0  0.35264  0.16054  0.36142  1.0000
  C   C2        1.0  0.64736  0.83946  0.63857  1.0000
  C   C3        1.0  0.29635  0.27331  0.28823  1.0000
  C   C4        1.0  0.70366  0.72669  0.71176  1.0000
  C   C5        1.0  0.32016  0.25158  0.17159  1.0000
  C   C6        1.0  0.67984  0.74842  0.82841  1.0000
  C   C7        1.0  0.28310  0.05126  0.33867  1.0000
  C   C8        1.0  0.71690  0.94874  0.66134  1.0000
  C   C9        1.0  0.33523  0.19708  0.47355  1.0000
  C   C10       1.0  0.66477  0.80291  0.52645  1.0000
  C   C11       1.0  0.26213  0.00405  0.52843  1.0000
  C   C12       1.0  0.73787  0.99596  0.47157  1.0000
  C   C13       1.0  0.40574  0.36470  0.30731  1.0000
  C   C14       1.0  0.59426  0.63530  0.69269  1.0000
  C   C15       1.0  0.11727  0.31813  0.31798  1.0000
  C   C16       1.0  0.88273  0.68187  0.68202  1.0000
  C   C17       1.0  0.16503  0.52390  0.32351  1.0000
  C   C18       1.0  0.83497  0.47610  0.67649  1.0000
  C   C19       1.0  0.46401  0.17862  0.13307  1.0000
  C   C20       1.0  0.53599  0.82138  0.86692  1.0000
  C   C21       1.0  0.20073  0.30938  0.10189  1.0000
  C   C22       1.0  0.79927  0.69062  0.89811  1.0000
  C   C23       1.0  0.37037  0.22981  0.95214  1.0000
  C   C24       1.0  0.62963  0.77019  0.04786  1.0000
  C   C25       1.0  0.19304  0.86718  0.40230  1.0000
  C   C26       1.0  0.80696  0.13282  0.59770  1.0000
  C   C27       1.0  0.31973  0.14066  0.65948  1.0000
  C   C28       1.0  0.68027  0.85934  0.34052  1.0000
  C   C29       1.0  0.43326  0.57579  0.29172  1.0000
  C   C30       1.0  0.56674  0.42421  0.70828  1.0000
  C   C31       1.0  0.89719  0.47545  0.37037  1.0000
  C   C32       1.0  0.10281  0.52454  0.62963  1.0000
  C   C33       1.0  0.63965  0.11022  0.98320  1.0000
  C   C34       1.0  0.36035  0.88978  0.01680  1.0000
  C   C35       1.0  0.09358  0.33964  0.92407  1.0000
  C   C36       1.0  0.90643  0.66036  0.07593  1.0000
  C   C37       1.0  0.04406  0.05659  0.86611  1.0000
  C   C38       1.0  0.95593  0.94341  0.13389  1.0000
  C   C39       1.0  0.33242  0.57635  0.94889  1.0000
  C   C40       1.0  0.66758  0.42365  0.05112  1.0000
  N   N1        1.0  0.25011  0.97822  0.42398  1.0000
  N   N2        1.0  0.74989  0.02178  0.57602  1.0000
  N   N3        1.0  0.31437  0.10989  0.54950  1.0000
  N   N4        1.0  0.68563  0.89011  0.45050  1.0000
  N   N5        1.0  0.33000  0.48433  0.30204  1.0000
  N   N6        1.0  0.66999  0.51567  0.69796  1.0000
  N   N7        1.0  0.06898  0.43619  0.34226  1.0000
  N   N8        1.0  0.93102  0.56381  0.65774  1.0000
  N   N9        1.0  0.48409  0.17405  0.02358  1.0000
  N   N10       1.0  0.51591  0.82595  0.97642  1.0000
  N   N11       1.0  0.22501  0.28913  0.99496  1.0000
  N   N12       1.0  0.77499  0.71087  0.00504  1.0000
  O   O1        1.0  0.26673  0.01969  0.24954  1.0000
  O   O2        1.0  0.73327  0.98031  0.75046  1.0000
  O   O3        1.0  0.34381  0.29917  0.49855  1.0000
  O   O4        1.0  0.65620  0.70084  0.50145  1.0000
  O   O5        1.0  0.22679  0.93619  0.59979  1.0000
  O   O6        1.0  0.77321  0.06380  0.40022  1.0000
  O   O7        1.0  0.55430  0.33654  0.31473  1.0000
  O   O8        1.0  0.44571  0.66346  0.68527  1.0000
  O   O9        1.0  0.02388  0.24573  0.33190  1.0000
  O   O10       1.0  0.97613  0.75426  0.66810  1.0000
  O   O11       1.0  0.10786  0.63127  0.32922  1.0000
  O   O12       1.0  0.89214  0.36874  0.67077  1.0000
  O   O13       1.0  0.57594  0.11959  0.18787  1.0000
  O   O14       1.0  0.42406  0.88041  0.81213  1.0000
  O   O15       1.0  0.07186  0.37920  0.13020  1.0000
  O   O16       1.0  0.92814  0.62080  0.86980  1.0000
  O   O17       1.0  0.39595  0.22732  0.85633  1.0000
  O   O18       1.0  0.60405  0.77268  0.14366  1.0000
  O   O19       1.0  0.02259  0.93658  0.84951  1.0000
  O   O20       1.0  0.97741  0.06342  0.15049  1.0000
  O   O21       1.0  0.22341  0.66154  0.88854  1.0000
  O   O22       1.0  0.77659  0.33846  0.11146  1.0000
