data_image0
_chemical_formula_structural       Cu2H16C16O12
_chemical_formula_sum              "Cu2 H16 C16 O12"
_cell_length_a       5.65768
_cell_length_b       7.08574
_cell_length_c       10.8607
_cell_angle_alpha    89.9989
_cell_angle_beta     89.9994
_cell_angle_gamma    89.9914

_space_group_name_H-M_alt    "P 1"
_space_group_IT_number       1

loop_
  _space_group_symop_operation_xyz
  'x, y, z'

loop_
  _atom_site_type_symbol
  _atom_site_label
  _atom_site_symmetry_multiplicity
  _atom_site_fract_x
  _atom_site_fract_y
  _atom_site_fract_z
  _atom_site_occupancy
  Cu  Cu1       1.0  0.44779  0.66997  1.00000  1.0000
  Cu  Cu2       1.0  0.94768  0.33001  1.00000  1.0000
  H   H1        1.0  0.61141  0.62573  0.38508  1.0000
  H   H2        1.0  0.11155  0.37431  0.61491  1.0000
  H   H3        1.0  0.61143  0.62573  0.61492  1.0000
  H   H4        1.0  0.11154  0.37430  0.38508  1.0000
  H   H5        1.0  0.91771  0.87229  0.38475  1.0000
  H   H6        1.0  0.41790  0.12777  0.61526  1.0000
  H   H7        1.0  0.91772  0.87229  0.61524  1.0000
  H   H8        1.0  0.41789  0.12777  0.38476  1.0000
  H   H9        1.0  0.44326  0.32862  0.07367  1.0000
  H   H10       1.0  0.94327  0.67132  0.92631  1.0000
  H   H11       1.0  0.44327  0.32863  0.92633  1.0000
  H   H12       1.0  0.94326  0.67132  0.07369  1.0000
  H   H13       1.0  0.54101  0.01206  0.92703  1.0000
  H   H14       1.0  0.04102  0.98790  0.07296  1.0000
  H   H15       1.0  0.54100  0.01205  0.07297  1.0000
  H   H16       1.0  0.04103  0.98791  0.92705  1.0000
  C   C1        1.0  0.25654  0.74071  0.23362  1.0000
  C   C2        1.0  0.75663  0.25928  0.76637  1.0000
  C   C3        1.0  0.25655  0.74071  0.76638  1.0000
  C   C4        1.0  0.75662  0.25927  0.23363  1.0000
  C   C5        1.0  0.26351  0.74758  0.37124  1.0000
  C   C6        1.0  0.76373  0.25247  0.62876  1.0000
  C   C7        1.0  0.26354  0.74757  0.62876  1.0000
  C   C8        1.0  0.76369  0.25245  0.37125  1.0000
  C   C9        1.0  0.46032  0.67956  0.43599  1.0000
  C   C10       1.0  0.96041  0.32046  0.56402  1.0000
  C   C11       1.0  0.46030  0.67956  0.56401  1.0000
  C   C12       1.0  0.96042  0.32046  0.43597  1.0000
  C   C13       1.0  0.06893  0.81899  0.43592  1.0000
  C   C14       1.0  0.56907  0.18104  0.56407  1.0000
  C   C15       1.0  0.06892  0.81899  0.56408  1.0000
  C   C16       1.0  0.56908  0.18105  0.43594  1.0000
  O   O1        1.0  0.07423  0.80269  0.17827  1.0000
  O   O2        1.0  0.57437  0.19727  0.82169  1.0000
  O   O3        1.0  0.07427  0.80269  0.82173  1.0000
  O   O4        1.0  0.57433  0.19725  0.17831  1.0000
  O   O5        1.0  0.43823  0.66923  0.18007  1.0000
  O   O6        1.0  0.93826  0.33078  0.81993  1.0000
  O   O7        1.0  0.43826  0.66924  0.81993  1.0000
  O   O8        1.0  0.93822  0.33077  0.18007  1.0000
  O   O9        1.0  0.37091  0.39418  1.00000  1.0000
  O   O10       1.0  0.87082  0.60579  0.00000  1.0000
  O   O11       1.0  0.47532  0.94580  0.00000  1.0000
  O   O12       1.0  0.97540  0.05420  0.00000  1.0000
