data_image0
_chemical_formula_structural       Ag4H28C44N8O16
_chemical_formula_sum              "Ag4 H28 C44 N8 O16"
_cell_length_a       5.03316
_cell_length_b       14.353
_cell_length_c       14.7731
_cell_angle_alpha    89.9999
_cell_angle_beta     89.9999
_cell_angle_gamma    96.2444

_space_group_name_H-M_alt    "P 1"
_space_group_IT_number       1

loop_
  _space_group_symop_operation_xyz
  'x, y, z'

loop_
  _atom_site_type_symbol
  _atom_site_label
  _atom_site_symmetry_multiplicity
  _atom_site_fract_x
  _atom_site_fract_y
  _atom_site_fract_z
  _atom_site_occupancy
  Ag  Ag1       1.0  0.87797  0.86582  0.33717  1.0000
  Ag  Ag2       1.0  0.62203  0.63418  0.83717  1.0000
  Ag  Ag3       1.0  0.12203  0.13418  0.66283  1.0000
  Ag  Ag4       1.0  0.37797  0.36582  0.16283  1.0000
  H   H1        1.0  0.27397  0.94089  0.49644  1.0000
  H   H2        1.0  0.22602  0.55911  0.99644  1.0000
  H   H3        1.0  0.72602  0.05911  0.50356  1.0000
  H   H4        1.0  0.77397  0.44089  0.00356  1.0000
  H   H5        1.0  0.30367  0.94700  0.66474  1.0000
  H   H6        1.0  0.19633  0.55300  0.16474  1.0000
  H   H7        1.0  0.69633  0.05300  0.33526  1.0000
  H   H8        1.0  0.80367  0.44700  0.83526  1.0000
  H   H9        1.0  0.56689  0.76088  0.67343  1.0000
  H   H10       1.0  0.93311  0.73912  0.17342  1.0000
  H   H11       1.0  0.43311  0.23912  0.32658  1.0000
  H   H12       1.0  0.06689  0.26088  0.82658  1.0000
  H   H13       1.0  0.57703  0.75872  0.50367  1.0000
  H   H14       1.0  0.92297  0.74128  0.00367  1.0000
  H   H15       1.0  0.42296  0.24128  0.49633  1.0000
  H   H16       1.0  0.07703  0.25872  0.99633  1.0000
  H   H17       1.0  0.44121  0.84521  0.09704  1.0000
  H   H18       1.0  0.05880  0.65480  0.59704  1.0000
  H   H19       1.0  0.55880  0.15480  0.90296  1.0000
  H   H20       1.0  0.94120  0.34520  0.40296  1.0000
  H   H21       1.0  0.41460  0.82456  0.92800  1.0000
  H   H22       1.0  0.08540  0.67544  0.42800  1.0000
  H   H23       1.0  0.58540  0.17544  0.07200  1.0000
  H   H24       1.0  0.91459  0.32456  0.57200  1.0000
  H   H25       1.0  0.18393  0.96010  0.17256  1.0000
  H   H26       1.0  0.31609  0.53991  0.67256  1.0000
  H   H27       1.0  0.81609  0.03991  0.82744  1.0000
  H   H28       1.0  0.68390  0.46009  0.32744  1.0000
  C   C1        1.0  0.12214  0.90161  0.53826  1.0000
  C   C2        1.0  0.37786  0.59839  0.03826  1.0000
  C   C3        1.0  0.87786  0.09839  0.46174  1.0000
  C   C4        1.0  0.62213  0.40161  0.96174  1.0000
  C   C5        1.0  0.13601  0.90549  0.63227  1.0000
  C   C6        1.0  0.36399  0.59451  0.13227  1.0000
  C   C7        1.0  0.86399  0.09451  0.36773  1.0000
  C   C8        1.0  0.63600  0.40549  0.86773  1.0000
  C   C9        1.0  0.93305  0.85512  0.68241  1.0000
  C   C10       1.0  0.56695  0.64488  0.18241  1.0000
  C   C11       1.0  0.06695  0.14488  0.31759  1.0000
  C   C12       1.0  0.43305  0.35512  0.81759  1.0000
  C   C13       1.0  0.72738  0.80134  0.63632  1.0000
  C   C14       1.0  0.77262  0.69866  0.13632  1.0000
  C   C15       1.0  0.27262  0.19866  0.36368  1.0000
  C   C16       1.0  0.22738  0.30134  0.86368  1.0000
  C   C17       1.0  0.73135  0.80085  0.54212  1.0000
  C   C18       1.0  0.76865  0.69915  0.04212  1.0000
  C   C19       1.0  0.26865  0.19915  0.45788  1.0000
  C   C20       1.0  0.23135  0.30085  0.95788  1.0000
  C   C21       1.0  0.92666  0.85807  0.78293  1.0000
  C   C22       1.0  0.57334  0.64193  0.28293  1.0000
  C   C23       1.0  0.07334  0.14192  0.21707  1.0000
  C   C24       1.0  0.42666  0.35808  0.71707  1.0000
  C   C25       1.0  0.31533  0.88681  0.05718  1.0000
  C   C26       1.0  0.18468  0.61319  0.55718  1.0000
  C   C27       1.0  0.68468  0.11319  0.94282  1.0000
  C   C28       1.0  0.81532  0.38681  0.44282  1.0000
  C   C29       1.0  0.30042  0.87411  0.96235  1.0000
  C   C30       1.0  0.19958  0.62589  0.46235  1.0000
  C   C31       1.0  0.69959  0.12589  0.03765  1.0000
  C   C32       1.0  0.80041  0.37411  0.53765  1.0000
  C   C33       1.0  0.14047  0.92646  0.91252  1.0000
  C   C34       1.0  0.35953  0.57354  0.41252  1.0000
  C   C35       1.0  0.85955  0.07354  0.08748  1.0000
  C   C36       1.0  0.64046  0.42646  0.58748  1.0000
  C   C37       1.0  0.99073  0.99421  0.95177  1.0000
  C   C38       1.0  0.50927  0.50579  0.45177  1.0000
  C   C39       1.0  0.00929  0.00580  0.04823  1.0000
  C   C40       1.0  0.49072  0.49421  0.54823  1.0000
  C   C41       1.0  0.17212  0.95089  0.09950  1.0000
  C   C42       1.0  0.32789  0.54912  0.59950  1.0000
  C   C43       1.0  0.82789  0.04912  0.90050  1.0000
  C   C44       1.0  0.67211  0.45088  0.40050  1.0000
  N   N1        1.0  0.92352  0.85085  0.49341  1.0000
  N   N2        1.0  0.57648  0.64915  0.99341  1.0000
  N   N3        1.0  0.07647  0.14915  0.50659  1.0000
  N   N4        1.0  0.42352  0.35085  0.00659  1.0000
  N   N5        1.0  0.45480  0.87751  0.30301  1.0000
  N   N6        1.0  0.04519  0.62249  0.80301  1.0000
  N   N7        1.0  0.54519  0.12249  0.69699  1.0000
  N   N8        1.0  0.95481  0.37751  0.19699  1.0000
  O   O1        1.0  0.75263  0.81574  0.82956  1.0000
  O   O2        1.0  0.74737  0.68426  0.32956  1.0000
  O   O3        1.0  0.24737  0.18426  0.17044  1.0000
  O   O4        1.0  0.25263  0.31574  0.67044  1.0000
  O   O5        1.0  0.13403  0.91598  0.81769  1.0000
  O   O6        1.0  0.36597  0.58402  0.31769  1.0000
  O   O7        1.0  0.86598  0.08402  0.18231  1.0000
  O   O8        1.0  0.63403  0.41598  0.68231  1.0000
  O   O9        1.0  0.34585  0.94803  0.33058  1.0000
  O   O10       1.0  0.15415  0.55197  0.83058  1.0000
  O   O11       1.0  0.65415  0.05197  0.66942  1.0000
  O   O12       1.0  0.84585  0.44803  0.16942  1.0000
  O   O13       1.0  0.29851  0.80700  0.28002  1.0000
  O   O14       1.0  0.20149  0.69300  0.78002  1.0000
  O   O15       1.0  0.70149  0.19300  0.71998  1.0000
  O   O16       1.0  0.79851  0.30700  0.21998  1.0000
