data_image0
_chemical_formula_structural       Zn2H20C22N8O14
_chemical_formula_sum              "Zn2 H20 C22 N8 O14"
_cell_length_a       7.4663
_cell_length_b       10.0061
_cell_length_c       11.1082
_cell_angle_alpha    84.3788
_cell_angle_beta     70.3269
_cell_angle_gamma    71.7218

_space_group_name_H-M_alt    "P 1"
_space_group_IT_number       1

loop_
  _space_group_symop_operation_xyz
  'x, y, z'

loop_
  _atom_site_type_symbol
  _atom_site_label
  _atom_site_symmetry_multiplicity
  _atom_site_fract_x
  _atom_site_fract_y
  _atom_site_fract_z
  _atom_site_occupancy
  Zn  Zn1       1.0  0.74378  0.99103  0.84596  1.0000
  Zn  Zn2       1.0  0.25622  0.00897  0.15404  1.0000
  H   H1        1.0  0.24709  0.50132  0.42115  1.0000
  H   H2        1.0  0.75291  0.49868  0.57885  1.0000
  H   H3        1.0  0.92328  0.14957  0.68617  1.0000
  H   H4        1.0  0.07673  0.85043  0.31383  1.0000
  H   H5        1.0  0.09832  0.00623  0.68741  1.0000
  H   H6        1.0  0.90168  0.99377  0.31259  1.0000
  H   H7        1.0  0.95124  0.78110  0.64103  1.0000
  H   H8        1.0  0.04877  0.21890  0.35897  1.0000
  H   H9        1.0  0.90953  0.74521  0.50083  1.0000
  H   H10       1.0  0.09048  0.25479  0.49917  1.0000
  H   H11       1.0  0.51494  0.83599  0.51738  1.0000
  H   H12       1.0  0.48506  0.16401  0.48262  1.0000
  H   H13       1.0  0.29722  0.49160  0.78383  1.0000
  H   H14       1.0  0.70278  0.50840  0.21617  1.0000
  H   H15       1.0  0.99334  0.74277  0.12690  1.0000
  H   H16       1.0  0.00665  0.25723  0.87311  1.0000
  H   H17       1.0  0.40030  0.32745  0.13423  1.0000
  H   H18       1.0  0.59970  0.67256  0.86577  1.0000
  H   H19       1.0  0.28404  0.03957  0.86335  1.0000
  H   H20       1.0  0.71597  0.96043  0.13665  1.0000
  C   C1        1.0  0.50336  0.26282  0.88146  1.0000
  C   C2        1.0  0.49664  0.73718  0.11854  1.0000
  C   C3        1.0  0.36097  0.39512  0.95274  1.0000
  C   C4        1.0  0.63903  0.60488  0.04727  1.0000
  C   C5        1.0  0.26686  0.50463  0.88561  1.0000
  C   C6        1.0  0.73313  0.49538  0.11439  1.0000
  C   C7        1.0  0.13401  0.62987  0.94733  1.0000
  C   C8        1.0  0.86598  0.37013  0.05267  1.0000
  C   C9        1.0  0.02946  0.74271  0.87333  1.0000
  C   C10       1.0  0.97053  0.25729  0.12668  1.0000
  C   C11       1.0  0.09691  0.64612  0.07761  1.0000
  C   C12       1.0  0.90308  0.35388  0.92239  1.0000
  C   C13       1.0  0.19406  0.53844  0.14495  1.0000
  C   C14       1.0  0.80594  0.46156  0.85506  1.0000
  C   C15       1.0  0.15590  0.56416  0.28067  1.0000
  C   C16       1.0  0.84409  0.43584  0.71933  1.0000
  C   C17       1.0  0.32532  0.41229  0.08277  1.0000
  C   C18       1.0  0.67467  0.58772  0.91723  1.0000
  C   C19       1.0  0.66729  0.86157  0.64255  1.0000
  C   C20       1.0  0.33272  0.13843  0.35745  1.0000
  C   C21       1.0  0.38937  0.97981  0.77842  1.0000
  C   C22       1.0  0.61064  0.02019  0.22158  1.0000
  N   N1        1.0  0.58959  0.92873  0.75741  1.0000
  N   N2        1.0  0.41042  0.07127  0.24259  1.0000
  N   N3        1.0  0.85966  0.79871  0.58517  1.0000
  N   N4        1.0  0.14035  0.20128  0.41483  1.0000
  N   N5        1.0  0.51281  0.87356  0.59950  1.0000
  N   N6        1.0  0.48720  0.12644  0.40050  1.0000
  N   N7        1.0  0.33557  0.94983  0.68539  1.0000
  N   N8        1.0  0.66444  0.05017  0.31461  1.0000
  O   O1        1.0  0.55615  0.25997  0.76196  1.0000
  O   O2        1.0  0.44385  0.74003  0.23804  1.0000
  O   O3        1.0  0.56528  0.15808  0.95169  1.0000
  O   O4        1.0  0.43471  0.84192  0.04831  1.0000
  O   O5        1.0  0.07035  0.72454  0.75580  1.0000
  O   O6        1.0  0.92965  0.27546  0.24420  1.0000
  O   O7        1.0  0.89993  0.85226  0.93892  1.0000
  O   O8        1.0  0.10007  0.14774  0.06108  1.0000
  O   O9        1.0  0.02132  0.66465  0.34332  1.0000
  O   O10       1.0  0.97867  0.33534  0.65669  1.0000
  O   O11       1.0  0.28061  0.46935  0.33350  1.0000
  O   O12       1.0  0.71939  0.53065  0.66650  1.0000
  O   O13       1.0  0.95207  0.04771  0.69730  1.0000
  O   O14       1.0  0.04793  0.95229  0.30270  1.0000
