data_image0
_chemical_formula_structural       Cu4H48C52N24Cl4O4F8
_chemical_formula_sum              "Cu4 H48 C52 N24 Cl4 O4 F8"
_cell_length_a       7.50322
_cell_length_b       14.2378
_cell_length_c       14.473
_cell_angle_alpha    104.353
_cell_angle_beta     90
_cell_angle_gamma    89.9999

_space_group_name_H-M_alt    "P 1"
_space_group_IT_number       1

loop_
  _space_group_symop_operation_xyz
  'x, y, z'

loop_
  _atom_site_type_symbol
  _atom_site_label
  _atom_site_symmetry_multiplicity
  _atom_site_fract_x
  _atom_site_fract_y
  _atom_site_fract_z
  _atom_site_occupancy
  Cu  Cu1       1.0  0.16868  0.99749  0.88858  1.0000
  Cu  Cu2       1.0  0.66868  0.50251  0.11142  1.0000
  Cu  Cu3       1.0  0.83132  0.00251  0.11142  1.0000
  Cu  Cu4       1.0  0.33132  0.49749  0.88858  1.0000
  H   H1        1.0  0.12177  0.82779  0.17749  1.0000
  H   H2        1.0  0.62177  0.67221  0.82251  1.0000
  H   H3        1.0  0.87823  0.17221  0.82251  1.0000
  H   H4        1.0  0.37824  0.32779  0.17749  1.0000
  H   H5        1.0  0.27957  0.14446  0.07972  1.0000
  H   H6        1.0  0.77957  0.35554  0.92028  1.0000
  H   H7        1.0  0.72043  0.85554  0.92028  1.0000
  H   H8        1.0  0.22043  0.64446  0.07972  1.0000
  H   H9        1.0  0.33159  0.84031  0.01159  1.0000
  H   H10       1.0  0.83159  0.65969  0.98841  1.0000
  H   H11       1.0  0.66841  0.15969  0.98841  1.0000
  H   H12       1.0  0.16841  0.34031  0.01159  1.0000
  H   H13       1.0  0.92381  0.67530  0.23297  1.0000
  H   H14       1.0  0.42381  0.82470  0.76703  1.0000
  H   H15       1.0  0.07618  0.32470  0.76703  1.0000
  H   H16       1.0  0.57619  0.17530  0.23297  1.0000
  H   H17       1.0  0.36783  0.63309  0.23589  1.0000
  H   H18       1.0  0.86783  0.86691  0.76411  1.0000
  H   H19       1.0  0.63217  0.36691  0.76411  1.0000
  H   H20       1.0  0.13217  0.13309  0.23589  1.0000
  H   H21       1.0  0.56659  0.94814  0.24531  1.0000
  H   H22       1.0  0.06659  0.55186  0.75469  1.0000
  H   H23       1.0  0.43341  0.05186  0.75469  1.0000
  H   H24       1.0  0.93342  0.44814  0.24531  1.0000
  H   H25       1.0  0.52349  0.83539  0.16353  1.0000
  H   H26       1.0  0.02349  0.66462  0.83647  1.0000
  H   H27       1.0  0.47651  0.16462  0.83647  1.0000
  H   H28       1.0  0.97651  0.33538  0.16353  1.0000
  H   H29       1.0  0.49050  0.88198  0.39690  1.0000
  H   H30       1.0  0.99050  0.61802  0.60310  1.0000
  H   H31       1.0  0.50950  0.11802  0.60310  1.0000
  H   H32       1.0  0.00950  0.38198  0.39690  1.0000
  H   H33       1.0  0.31050  0.79733  0.38200  1.0000
  H   H34       1.0  0.81050  0.70267  0.61800  1.0000
  H   H35       1.0  0.68950  0.20267  0.61800  1.0000
  H   H36       1.0  0.18950  0.29732  0.38200  1.0000
  H   H37       1.0  0.27657  0.17931  0.49633  1.0000
  H   H38       1.0  0.77657  0.32069  0.50367  1.0000
  H   H39       1.0  0.72343  0.82069  0.50367  1.0000
  H   H40       1.0  0.22343  0.67931  0.49633  1.0000
  H   H41       1.0  0.78613  0.03022  0.39835  1.0000
  H   H42       1.0  0.28613  0.46978  0.60164  1.0000
  H   H43       1.0  0.21387  0.96978  0.60165  1.0000
  H   H44       1.0  0.71387  0.53022  0.39836  1.0000
  H   H45       1.0  0.95741  0.89591  0.29444  1.0000
  H   H46       1.0  0.45741  0.60409  0.70556  1.0000
  H   H47       1.0  0.04259  0.10409  0.70556  1.0000
  H   H48       1.0  0.54259  0.39591  0.29444  1.0000
  C   C1        1.0  0.30844  0.07128  0.08506  1.0000
  C   C2        1.0  0.80844  0.42872  0.91494  1.0000
  C   C3        1.0  0.69156  0.92872  0.91494  1.0000
  C   C4        1.0  0.19156  0.57128  0.08506  1.0000
  C   C5        1.0  0.33184  0.91699  0.04801  1.0000
  C   C6        1.0  0.83183  0.58301  0.95199  1.0000
  C   C7        1.0  0.66817  0.08301  0.95199  1.0000
  C   C8        1.0  0.16817  0.41699  0.04801  1.0000
  C   C9        1.0  0.78267  0.68779  0.24716  1.0000
  C   C10       1.0  0.28267  0.81221  0.75284  1.0000
  C   C11       1.0  0.21732  0.31221  0.75284  1.0000
  C   C12       1.0  0.71733  0.18779  0.24716  1.0000
  C   C13       1.0  0.50096  0.66334  0.24637  1.0000
  C   C14       1.0  0.00096  0.83666  0.75363  1.0000
  C   C15       1.0  0.49903  0.33666  0.75363  1.0000
  C   C16       1.0  0.99904  0.16334  0.24637  1.0000
  C   C17       1.0  0.46139  0.90213  0.20534  1.0000
  C   C18       1.0  0.96139  0.59787  0.79466  1.0000
  C   C19       1.0  0.53861  0.09787  0.79466  1.0000
  C   C20       1.0  0.03861  0.40213  0.20534  1.0000
  C   C21       1.0  0.31967  0.87493  0.27231  1.0000
  C   C22       1.0  0.81967  0.62507  0.72769  1.0000
  C   C23       1.0  0.68033  0.12507  0.72769  1.0000
  C   C24       1.0  0.18033  0.37493  0.27231  1.0000
  C   C25       1.0  0.41442  0.82795  0.34499  1.0000
  C   C26       1.0  0.91442  0.67205  0.65501  1.0000
  C   C27       1.0  0.58558  0.17205  0.65501  1.0000
  C   C28       1.0  0.08558  0.32795  0.34499  1.0000
  C   C29       1.0  0.21512  0.96107  0.33201  1.0000
  C   C30       1.0  0.71512  0.53893  0.66799  1.0000
  C   C31       1.0  0.78487  0.03893  0.66799  1.0000
  C   C32       1.0  0.28488  0.46107  0.33201  1.0000
  C   C33       1.0  0.29797  0.04223  0.39088  1.0000
  C   C34       1.0  0.79797  0.45777  0.60912  1.0000
  C   C35       1.0  0.70203  0.95777  0.60912  1.0000
  C   C36       1.0  0.20203  0.54223  0.39088  1.0000
  C   C37       1.0  0.20698  0.11813  0.45079  1.0000
  C   C38       1.0  0.70698  0.38187  0.54921  1.0000
  C   C39       1.0  0.79302  0.88187  0.54921  1.0000
  C   C40       1.0  0.29302  0.61813  0.45079  1.0000
  C   C41       1.0  0.02250  0.11123  0.45110  1.0000
  C   C42       1.0  0.52250  0.38877  0.54890  1.0000
  C   C43       1.0  0.97750  0.88877  0.54890  1.0000
  C   C44       1.0  0.47750  0.61123  0.45110  1.0000
  C   C45       1.0  0.93069  0.03303  0.39566  1.0000
  C   C46       1.0  0.43070  0.46697  0.60434  1.0000
  C   C47       1.0  0.06930  0.96697  0.60434  1.0000
  C   C48       1.0  0.56931  0.53303  0.39566  1.0000
  C   C49       1.0  0.02867  0.95845  0.33679  1.0000
  C   C50       1.0  0.52867  0.54155  0.66321  1.0000
  C   C51       1.0  0.97133  0.04155  0.66321  1.0000
  C   C52       1.0  0.47133  0.45845  0.33679  1.0000
  N   N1        1.0  0.38835  0.95268  0.13835  1.0000
  N   N2        1.0  0.88835  0.54732  0.86165  1.0000
  N   N3        1.0  0.61165  0.04732  0.86165  1.0000
  N   N4        1.0  0.11165  0.45268  0.13835  1.0000
  N   N5        1.0  0.37397  0.05135  0.16316  1.0000
  N   N6        1.0  0.87397  0.44865  0.83684  1.0000
  N   N7        1.0  0.62603  0.94865  0.83685  1.0000
  N   N8        1.0  0.12603  0.55135  0.16316  1.0000
  N   N9        1.0  0.27995  0.99092  0.01237  1.0000
  N   N10       1.0  0.77995  0.50908  0.98763  1.0000
  N   N11       1.0  0.72006  0.00908  0.98763  1.0000
  N   N12       1.0  0.22005  0.49092  0.01237  1.0000
  N   N13       1.0  0.53833  0.75219  0.30078  1.0000
  N   N14       1.0  0.03833  0.74781  0.69922  1.0000
  N   N15       1.0  0.46167  0.24781  0.69922  1.0000
  N   N16       1.0  0.96167  0.25219  0.30078  1.0000
  N   N17       1.0  0.71759  0.76906  0.30241  1.0000
  N   N18       1.0  0.21759  0.73094  0.69758  1.0000
  N   N19       1.0  0.28241  0.23094  0.69758  1.0000
  N   N20       1.0  0.78241  0.26906  0.30242  1.0000
  N   N21       1.0  0.65332  0.62024  0.21042  1.0000
  N   N22       1.0  0.15332  0.87976  0.78957  1.0000
  N   N23       1.0  0.34667  0.37976  0.78958  1.0000
  N   N24       1.0  0.84667  0.12024  0.21042  1.0000
  Cl  Cl1       1.0  0.09006  0.15333  0.91094  1.0000
  Cl  Cl2       1.0  0.59006  0.34667  0.08906  1.0000
  Cl  Cl3       1.0  0.90994  0.84667  0.08906  1.0000
  Cl  Cl4       1.0  0.40994  0.65333  0.91094  1.0000
  O   O1        1.0  0.20616  0.80188  0.21853  1.0000
  O   O2        1.0  0.70616  0.69812  0.78147  1.0000
  O   O3        1.0  0.79384  0.19812  0.78147  1.0000
  O   O4        1.0  0.29384  0.30188  0.21853  1.0000
  F   F1        1.0  0.48103  0.04830  0.39294  1.0000
  F   F2        1.0  0.98103  0.45170  0.60706  1.0000
  F   F3        1.0  0.51897  0.95170  0.60706  1.0000
  F   F4        1.0  0.01897  0.54830  0.39294  1.0000
  F   F5        1.0  0.92961  0.18575  0.50909  1.0000
  F   F6        1.0  0.42961  0.31425  0.49091  1.0000
  F   F7        1.0  0.07039  0.81425  0.49091  1.0000
  F   F8        1.0  0.57039  0.68575  0.50909  1.0000
