data_image0
_chemical_formula_structural       Cd2H16C24I4N4
_chemical_formula_sum              "Cd2 H16 C24 I4 N4"
_cell_length_a       7.62603
_cell_length_b       9.90504
_cell_length_c       9.90506
_cell_angle_alpha    68.3395
_cell_angle_beta     77.3749
_cell_angle_gamma    77.3747

_space_group_name_H-M_alt    "P 1"
_space_group_IT_number       1

loop_
  _space_group_symop_operation_xyz
  'x, y, z'

loop_
  _atom_site_type_symbol
  _atom_site_label
  _atom_site_symmetry_multiplicity
  _atom_site_fract_x
  _atom_site_fract_y
  _atom_site_fract_z
  _atom_site_occupancy
  Cd  Cd1       1.0  0.75000  0.57632  0.42367  1.0000
  Cd  Cd2       1.0  0.25000  0.42367  0.57633  1.0000
  H   H1        1.0  0.07900  0.49570  0.17059  1.0000
  H   H2        1.0  0.42099  0.82940  0.50430  1.0000
  H   H3        1.0  0.92099  0.50430  0.82940  1.0000
  H   H4        1.0  0.57901  0.17060  0.49570  1.0000
  H   H5        1.0  0.20471  0.60612  0.90264  1.0000
  H   H6        1.0  0.29528  0.09736  0.39388  1.0000
  H   H7        1.0  0.79528  0.39388  0.09736  1.0000
  H   H8        1.0  0.70472  0.90264  0.60612  1.0000
  H   H9        1.0  0.07602  0.86317  0.76330  1.0000
  H   H10       1.0  0.42398  0.23670  0.13683  1.0000
  H   H11       1.0  0.92398  0.13683  0.23671  1.0000
  H   H12       1.0  0.57602  0.76330  0.86317  1.0000
  H   H13       1.0  0.63157  0.23236  0.90340  1.0000
  H   H14       1.0  0.86843  0.09661  0.76764  1.0000
  H   H15       1.0  0.36844  0.76764  0.09660  1.0000
  H   H16       1.0  0.13157  0.90340  0.23236  1.0000
  C   C1        1.0  0.02617  0.60727  0.10527  1.0000
  C   C2        1.0  0.47383  0.89473  0.39273  1.0000
  C   C3        1.0  0.97383  0.39273  0.89472  1.0000
  C   C4        1.0  0.52617  0.10527  0.60727  1.0000
  C   C5        1.0  0.09552  0.66937  0.95593  1.0000
  C   C6        1.0  0.40448  0.04407  0.33063  1.0000
  C   C7        1.0  0.90449  0.33062  0.04407  1.0000
  C   C8        1.0  0.59552  0.95593  0.66937  1.0000
  C   C9        1.0  0.02502  0.81157  0.87932  1.0000
  C   C10       1.0  0.47497  0.12068  0.18843  1.0000
  C   C11       1.0  0.97498  0.18842  0.12068  1.0000
  C   C12       1.0  0.52503  0.87932  0.81157  1.0000
  C   C13       1.0  0.88741  0.89213  0.95273  1.0000
  C   C14       1.0  0.61258  0.04727  0.10787  1.0000
  C   C15       1.0  0.11259  0.10786  0.04727  1.0000
  C   C16       1.0  0.38742  0.95273  0.89213  1.0000
  C   C17       1.0  0.82195  0.81913  0.10297  1.0000
  C   C18       1.0  0.67805  0.89703  0.18087  1.0000
  C   C19       1.0  0.17806  0.18087  0.89703  1.0000
  C   C20       1.0  0.32195  0.10297  0.81913  1.0000
  C   C21       1.0  0.81545  0.04233  0.88261  1.0000
  C   C22       1.0  0.68454  0.11739  0.95767  1.0000
  C   C23       1.0  0.18455  0.95767  0.11739  1.0000
  C   C24       1.0  0.31546  0.88261  0.04233  1.0000
  I   I1        1.0  0.01504  0.70615  0.52270  1.0000
  I   I2        1.0  0.48496  0.47730  0.29385  1.0000
  I   I3        1.0  0.98496  0.29385  0.47730  1.0000
  I   I4        1.0  0.51504  0.52270  0.70615  1.0000
  N   N1        1.0  0.89206  0.67886  0.17555  1.0000
  N   N2        1.0  0.60794  0.82445  0.32114  1.0000
  N   N3        1.0  0.10794  0.32113  0.82445  1.0000
  N   N4        1.0  0.39206  0.17555  0.67887  1.0000
