data_image0
_chemical_formula_structural       Na4H36C32S4N8O12
_chemical_formula_sum              "Na4 H36 C32 S4 N8 O12"
_cell_length_a       9.55054
_cell_length_b       10.0301
_cell_length_c       10.3164
_cell_angle_alpha    90
_cell_angle_beta     97.9677
_cell_angle_gamma    90

_space_group_name_H-M_alt    "P 1"
_space_group_IT_number       1

loop_
  _space_group_symop_operation_xyz
  'x, y, z'

loop_
  _atom_site_type_symbol
  _atom_site_label
  _atom_site_symmetry_multiplicity
  _atom_site_fract_x
  _atom_site_fract_y
  _atom_site_fract_z
  _atom_site_occupancy
  Na  Na1       1.0  0.23960  0.48221  0.83286  1.0000
  Na  Na2       1.0  0.26040  0.98221  0.16714  1.0000
  Na  Na3       1.0  0.76040  0.51779  0.16714  1.0000
  Na  Na4       1.0  0.73960  0.01779  0.83286  1.0000
  H   H1        1.0  0.39762  0.43873  0.56390  1.0000
  H   H2        1.0  0.10238  0.93873  0.43610  1.0000
  H   H3        1.0  0.60238  0.56127  0.43610  1.0000
  H   H4        1.0  0.89762  0.06127  0.56390  1.0000
  H   H5        1.0  0.37035  0.49935  0.32389  1.0000
  H   H6        1.0  0.12965  0.99935  0.67611  1.0000
  H   H7        1.0  0.62965  0.50065  0.67611  1.0000
  H   H8        1.0  0.87035  0.00065  0.32389  1.0000
  H   H9        1.0  0.16645  0.64459  0.23352  1.0000
  H   H10       1.0  0.33355  0.14458  0.76648  1.0000
  H   H11       1.0  0.83355  0.35542  0.76648  1.0000
  H   H12       1.0  0.66645  0.85541  0.23352  1.0000
  H   H13       1.0  0.00013  0.72388  0.38280  1.0000
  H   H14       1.0  0.49987  0.22387  0.61720  1.0000
  H   H15       1.0  0.99987  0.27613  0.61719  1.0000
  H   H16       1.0  0.50013  0.77613  0.38281  1.0000
  H   H17       1.0  0.93175  0.73757  0.60114  1.0000
  H   H18       1.0  0.56825  0.23757  0.39886  1.0000
  H   H19       1.0  0.06825  0.26243  0.39886  1.0000
  H   H20       1.0  0.43175  0.76243  0.60114  1.0000
  H   H21       1.0  0.89636  0.60895  0.89590  1.0000
  H   H22       1.0  0.60364  0.10895  0.10411  1.0000
  H   H23       1.0  0.10364  0.39105  0.10410  1.0000
  H   H24       1.0  0.39636  0.89105  0.89590  1.0000
  H   H25       1.0  0.85493  0.75178  0.79426  1.0000
  H   H26       1.0  0.64507  0.25179  0.20574  1.0000
  H   H27       1.0  0.14507  0.24821  0.20574  1.0000
  H   H28       1.0  0.35493  0.74822  0.79426  1.0000
  H   H29       1.0  0.06358  0.87291  0.91392  1.0000
  H   H30       1.0  0.43642  0.37291  0.08608  1.0000
  H   H31       1.0  0.93642  0.12709  0.08608  1.0000
  H   H32       1.0  0.56358  0.62709  0.91392  1.0000
  H   H33       1.0  0.12049  0.72407  0.00090  1.0000
  H   H34       1.0  0.37951  0.22407  0.99909  1.0000
  H   H35       1.0  0.87951  0.27593  0.99910  1.0000
  H   H36       1.0  0.62048  0.77594  0.00091  1.0000
  C   C1        1.0  0.31164  0.50287  0.51984  1.0000
  C   C2        1.0  0.18836  0.00288  0.48016  1.0000
  C   C3        1.0  0.68836  0.49713  0.48016  1.0000
  C   C4        1.0  0.81164  0.99712  0.51984  1.0000
  C   C5        1.0  0.29580  0.53570  0.38674  1.0000
  C   C6        1.0  0.20420  0.03570  0.61326  1.0000
  C   C7        1.0  0.70420  0.46430  0.61326  1.0000
  C   C8        1.0  0.79580  0.96430  0.38674  1.0000
  C   C9        1.0  0.18301  0.61707  0.33649  1.0000
  C   C10       1.0  0.31699  0.11706  0.66351  1.0000
  C   C11       1.0  0.81699  0.38294  0.66351  1.0000
  C   C12       1.0  0.68301  0.88294  0.33649  1.0000
  C   C13       1.0  0.09073  0.66233  0.42050  1.0000
  C   C14       1.0  0.40927  0.16233  0.57950  1.0000
  C   C15       1.0  0.90927  0.33767  0.57950  1.0000
  C   C16       1.0  0.59073  0.83767  0.42050  1.0000
  C   C17       1.0  0.11554  0.62597  0.55267  1.0000
  C   C18       1.0  0.38446  0.12598  0.44733  1.0000
  C   C19       1.0  0.88446  0.37403  0.44733  1.0000
  C   C20       1.0  0.61554  0.87403  0.55267  1.0000
  C   C21       1.0  0.02052  0.67374  0.64391  1.0000
  C   C22       1.0  0.47948  0.17374  0.35610  1.0000
  C   C23       1.0  0.97948  0.32626  0.35610  1.0000
  C   C24       1.0  0.52052  0.82626  0.64390  1.0000
  C   C25       1.0  0.94236  0.69436  0.84942  1.0000
  C   C26       1.0  0.55764  0.19436  0.15058  1.0000
  C   C27       1.0  0.05765  0.30564  0.15058  1.0000
  C   C28       1.0  0.44236  0.80564  0.84942  1.0000
  C   C29       1.0  0.02774  0.77991  0.95490  1.0000
  C   C30       1.0  0.47226  0.27992  0.04510  1.0000
  C   C31       1.0  0.97226  0.22008  0.04510  1.0000
  C   C32       1.0  0.52774  0.72009  0.95490  1.0000
  S   S1        1.0  0.93192  0.82710  0.08508  1.0000
  S   S2        1.0  0.56809  0.32710  0.91492  1.0000
  S   S3        1.0  0.06809  0.17290  0.91492  1.0000
  S   S4        1.0  0.43192  0.67290  0.08508  1.0000
  N   N1        1.0  0.22496  0.54685  0.60179  1.0000
  N   N2        1.0  0.27504  0.04685  0.39821  1.0000
  N   N3        1.0  0.77504  0.45315  0.39821  1.0000
  N   N4        1.0  0.72496  0.95315  0.60179  1.0000
  N   N5        1.0  0.03962  0.64229  0.76524  1.0000
  N   N6        1.0  0.46038  0.14229  0.23477  1.0000
  N   N7        1.0  0.96038  0.35771  0.23476  1.0000
  N   N8        1.0  0.53962  0.85771  0.76524  1.0000
  O   O1        1.0  0.81189  0.91104  0.02852  1.0000
  O   O2        1.0  0.68811  0.41104  0.97148  1.0000
  O   O3        1.0  0.18811  0.08896  0.97148  1.0000
  O   O4        1.0  0.31189  0.58896  0.02852  1.0000
  O   O5        1.0  0.88531  0.70224  0.14007  1.0000
  O   O6        1.0  0.61469  0.20224  0.85993  1.0000
  O   O7        1.0  0.11469  0.29776  0.85993  1.0000
  O   O8        1.0  0.38531  0.79776  0.14007  1.0000
  O   O9        1.0  0.03359  0.90105  0.17901  1.0000
  O   O10       1.0  0.46641  0.40105  0.82099  1.0000
  O   O11       1.0  0.96641  0.09895  0.82099  1.0000
  O   O12       1.0  0.53359  0.59895  0.17901  1.0000
