data_image0
_chemical_formula_structural       Sn4H68C56S6N12
_chemical_formula_sum              "Sn4 H68 C56 S6 N12"
_cell_length_a       10.7027
_cell_length_b       11.5211
_cell_length_c       12.9951
_cell_angle_alpha    89.9999
_cell_angle_beta     96.8093
_cell_angle_gamma    90.0005

_space_group_name_H-M_alt    "P 1"
_space_group_IT_number       1

loop_
  _space_group_symop_operation_xyz
  'x, y, z'

loop_
  _atom_site_type_symbol
  _atom_site_label
  _atom_site_symmetry_multiplicity
  _atom_site_fract_x
  _atom_site_fract_y
  _atom_site_fract_z
  _atom_site_occupancy
  Sn  Sn1       1.0  0.38155  0.47530  0.97910  1.0000
  Sn  Sn2       1.0  0.38153  0.52470  0.47910  1.0000
  Sn  Sn3       1.0  0.85302  0.39219  0.74838  1.0000
  Sn  Sn4       1.0  0.85302  0.60782  0.24837  1.0000
  H   H1        1.0  0.25777  0.48104  0.78653  1.0000
  H   H2        1.0  0.25776  0.51896  0.28652  1.0000
  H   H3        1.0  0.32281  0.33873  0.80603  1.0000
  H   H4        1.0  0.32280  0.66127  0.30603  1.0000
  H   H5        1.0  0.42293  0.45732  0.77979  1.0000
  H   H6        1.0  0.42293  0.54268  0.27978  1.0000
  H   H7        1.0  0.54937  0.43657  0.15075  1.0000
  H   H8        1.0  0.54935  0.56342  0.65075  1.0000
  H   H9        1.0  0.62696  0.42655  0.03595  1.0000
  H   H10       1.0  0.62695  0.57345  0.53595  1.0000
  H   H11       1.0  0.53282  0.30862  0.07212  1.0000
  H   H12       1.0  0.53281  0.69138  0.57212  1.0000
  H   H13       1.0  0.26923  0.60057  0.12204  1.0000
  H   H14       1.0  0.26923  0.39943  0.62204  1.0000
  H   H15       1.0  0.15105  0.52219  0.04074  1.0000
  H   H16       1.0  0.15105  0.47780  0.54074  1.0000
  H   H17       1.0  0.21703  0.64988  0.99307  1.0000
  H   H18       1.0  0.21702  0.35012  0.49307  1.0000
  H   H19       1.0  0.95795  0.30669  0.93245  1.0000
  H   H20       1.0  0.95795  0.69331  0.43245  1.0000
  H   H21       1.0  0.02083  0.44886  0.91135  1.0000
  H   H22       1.0  0.02083  0.55114  0.41135  1.0000
  H   H23       1.0  0.07786  0.32426  0.84890  1.0000
  H   H24       1.0  0.07786  0.67574  0.34890  1.0000
  H   H25       1.0  0.66302  0.26275  0.81197  1.0000
  H   H26       1.0  0.66303  0.73725  0.31196  1.0000
  H   H27       1.0  0.67929  0.23164  0.67902  1.0000
  H   H28       1.0  0.67930  0.76836  0.17902  1.0000
  H   H29       1.0  0.60051  0.36074  0.71218  1.0000
  H   H30       1.0  0.60052  0.63926  0.21218  1.0000
  H   H31       1.0  0.80513  0.48179  0.55411  1.0000
  H   H32       1.0  0.80514  0.51821  0.05411  1.0000
  H   H33       1.0  0.97007  0.45480  0.58001  1.0000
  H   H34       1.0  0.97007  0.54519  0.08001  1.0000
  H   H35       1.0  0.90438  0.57811  0.63651  1.0000
  H   H36       1.0  0.90438  0.42189  0.13652  1.0000
  H   H37       1.0  0.20429  0.37488  0.15251  1.0000
  H   H38       1.0  0.20429  0.62512  0.65251  1.0000
  H   H39       1.0  0.08686  0.20730  0.20567  1.0000
  H   H40       1.0  0.08686  0.79270  0.70567  1.0000
  H   H41       1.0  0.21477  0.01806  0.94849  1.0000
  H   H42       1.0  0.21478  0.98194  0.44849  1.0000
  H   H43       1.0  0.32765  0.19119  0.90839  1.0000
  H   H44       1.0  0.32765  0.80882  0.40839  1.0000
  H   H45       1.0  0.91887  0.88033  0.31013  1.0000
  H   H46       1.0  0.91888  0.11967  0.81013  1.0000
  H   H47       1.0  0.02194  0.06076  0.26054  1.0000
  H   H48       1.0  0.02194  0.93924  0.76054  1.0000
  H   H49       1.0  0.09428  0.88548  0.97770  1.0000
  H   H50       1.0  0.09428  0.11452  0.47770  1.0000
  H   H51       1.0  0.98915  0.71619  0.03760  1.0000
  H   H52       1.0  0.98914  0.28381  0.53759  1.0000
  H   H53       1.0  0.88394  0.77245  0.58291  1.0000
  H   H54       1.0  0.88394  0.22756  0.08291  1.0000
  H   H55       1.0  0.72397  0.82168  0.69814  1.0000
  H   H56       1.0  0.72397  0.17832  0.19814  1.0000
  H   H57       1.0  0.54514  0.03926  0.45188  1.0000
  H   H58       1.0  0.54515  0.96073  0.95189  1.0000
  H   H59       1.0  0.71242  0.97956  0.34644  1.0000
  H   H60       1.0  0.71242  0.02044  0.84644  1.0000
  H   H61       1.0  0.32431  0.18908  0.69655  1.0000
  H   H62       1.0  0.32430  0.81092  0.19655  1.0000
  H   H63       1.0  0.48827  0.14115  0.58486  1.0000
  H   H64       1.0  0.48828  0.85885  0.08487  1.0000
  H   H65       1.0  0.51871  0.80354  0.73353  1.0000
  H   H66       1.0  0.51872  0.19646  0.23354  1.0000
  H   H67       1.0  0.35568  0.86679  0.83957  1.0000
  H   H68       1.0  0.35568  0.13321  0.33957  1.0000
  C   C1        1.0  0.62418  0.64686  0.90020  1.0000
  C   C2        1.0  0.62417  0.35315  0.40020  1.0000
  C   C3        1.0  0.84025  0.65040  0.85038  1.0000
  C   C4        1.0  0.84024  0.34960  0.35037  1.0000
  C   C5        1.0  0.34120  0.43152  0.81777  1.0000
  C   C6        1.0  0.34119  0.56848  0.31776  1.0000
  C   C7        1.0  0.54263  0.40312  0.07131  1.0000
  C   C8        1.0  0.54262  0.59688  0.57131  1.0000
  C   C9        1.0  0.23730  0.57352  0.04252  1.0000
  C   C10       1.0  0.23729  0.42648  0.54252  1.0000
  C   C11       1.0  0.99542  0.36441  0.87660  1.0000
  C   C12       1.0  0.99542  0.63559  0.37660  1.0000
  C   C13       1.0  0.67727  0.30048  0.73693  1.0000
  C   C14       1.0  0.67727  0.69953  0.23693  1.0000
  C   C15       1.0  0.88734  0.48777  0.61264  1.0000
  C   C16       1.0  0.88734  0.51223  0.11264  1.0000
  C   C17       1.0  0.20499  0.29376  0.10934  1.0000
  C   C18       1.0  0.20498  0.70624  0.60934  1.0000
  C   C19       1.0  0.13946  0.19803  0.13929  1.0000
  C   C20       1.0  0.13946  0.80198  0.63929  1.0000
  C   C21       1.0  0.13910  0.09408  0.08303  1.0000
  C   C22       1.0  0.13910  0.90592  0.58303  1.0000
  C   C23       1.0  0.20851  0.09355  0.99792  1.0000
  C   C24       1.0  0.20851  0.90645  0.49792  1.0000
  C   C25       1.0  0.27289  0.19290  0.97394  1.0000
  C   C26       1.0  0.27289  0.80711  0.47394  1.0000
  C   C27       1.0  0.95849  0.88588  0.23631  1.0000
  C   C28       1.0  0.95849  0.11412  0.73631  1.0000
  C   C29       1.0  0.01753  0.98660  0.20813  1.0000
  C   C30       1.0  0.01753  0.01340  0.70812  1.0000
  C   C31       1.0  0.07085  0.99061  0.11428  1.0000
  C   C32       1.0  0.07085  0.00939  0.61428  1.0000
  C   C33       1.0  0.05845  0.89062  0.05258  1.0000
  C   C34       1.0  0.05845  0.10938  0.55257  1.0000
  C   C35       1.0  0.99781  0.79352  0.08622  1.0000
  C   C36       1.0  0.99781  0.20648  0.58621  1.0000
  C   C37       1.0  0.80699  0.83121  0.55550  1.0000
  C   C38       1.0  0.80699  0.16880  0.05550  1.0000
  C   C39       1.0  0.71654  0.85859  0.62038  1.0000
  C   C40       1.0  0.71655  0.14141  0.12039  1.0000
  C   C41       1.0  0.61882  0.93505  0.58481  1.0000
  C   C42       1.0  0.61883  0.06495  0.08482  1.0000
  C   C43       1.0  0.61853  0.97975  0.48436  1.0000
  C   C44       1.0  0.61854  0.02025  0.98437  1.0000
  C   C45       1.0  0.71269  0.94623  0.42525  1.0000
  C   C46       1.0  0.71269  0.05377  0.92525  1.0000
  C   C47       1.0  0.37009  0.10413  0.70348  1.0000
  C   C48       1.0  0.37010  0.89587  0.20349  1.0000
  C   C49       1.0  0.46159  0.07667  0.63977  1.0000
  C   C50       1.0  0.46160  0.92333  0.13978  1.0000
  C   C51       1.0  0.51993  0.96741  0.64959  1.0000
  C   C52       1.0  0.51994  0.03259  0.14960  1.0000
  C   C53       1.0  0.47992  0.89078  0.72295  1.0000
  C   C54       1.0  0.47993  0.10922  0.22295  1.0000
  C   C55       1.0  0.38694  0.92663  0.78256  1.0000
  C   C56       1.0  0.38694  0.07337  0.28256  1.0000
  S   S1        1.0  0.74681  0.74868  0.91091  1.0000
  S   S2        1.0  0.74680  0.25132  0.41091  1.0000
  S   S3        1.0  0.48399  0.67892  0.94676  1.0000
  S   S4        1.0  0.48398  0.32108  0.44675  1.0000
  S   S5        1.0  0.98977  0.67841  0.82938  1.0000
  S   S6        1.0  0.98976  0.32158  0.32937  1.0000
  N   N1        1.0  0.65424  0.55014  0.85483  1.0000
  N   N2        1.0  0.65424  0.44986  0.35483  1.0000
  N   N3        1.0  0.77407  0.55265  0.82729  1.0000
  N   N4        1.0  0.77407  0.44736  0.32729  1.0000
  N   N5        1.0  0.27109  0.29253  0.02764  1.0000
  N   N6        1.0  0.27109  0.70747  0.52764  1.0000
  N   N7        1.0  0.94886  0.78975  0.17667  1.0000
  N   N8        1.0  0.94886  0.21024  0.67667  1.0000
  N   N9        1.0  0.80662  0.87338  0.45911  1.0000
  N   N10       1.0  0.80662  0.12663  0.95911  1.0000
  N   N11       1.0  0.33262  0.03180  0.77491  1.0000
  N   N12       1.0  0.33261  0.96820  0.27491  1.0000
