data_image0
_chemical_formula_structural       Cs4H16C56Br4N16O4
_chemical_formula_sum              "Cs4 H16 C56 Br4 N16 O4"
_cell_length_a       5.43577
_cell_length_b       15.6419
_cell_length_c       18.187
_cell_angle_alpha    90.0004
_cell_angle_beta     90.0003
_cell_angle_gamma    94.0592

_space_group_name_H-M_alt    "P 1"
_space_group_IT_number       1

loop_
  _space_group_symop_operation_xyz
  'x, y, z'

loop_
  _atom_site_type_symbol
  _atom_site_label
  _atom_site_symmetry_multiplicity
  _atom_site_fract_x
  _atom_site_fract_y
  _atom_site_fract_z
  _atom_site_occupancy
  Cs  Cs1       1.0  0.83846  0.89674  0.61440  1.0000
  Cs  Cs2       1.0  0.16154  0.60326  0.11440  1.0000
  Cs  Cs3       1.0  0.16155  0.10326  0.38561  1.0000
  Cs  Cs4       1.0  0.83846  0.39674  0.88561  1.0000
  H   H1        1.0  0.24543  0.80817  0.91021  1.0000
  H   H2        1.0  0.75456  0.69183  0.41020  1.0000
  H   H3        1.0  0.75456  0.19183  0.08980  1.0000
  H   H4        1.0  0.24542  0.30817  0.58979  1.0000
  H   H5        1.0  0.08735  0.94211  0.95622  1.0000
  H   H6        1.0  0.91265  0.55789  0.45622  1.0000
  H   H7        1.0  0.91265  0.05789  0.04378  1.0000
  H   H8        1.0  0.08735  0.44211  0.54378  1.0000
  H   H9        1.0  0.69627  0.08913  0.85252  1.0000
  H   H10       1.0  0.30373  0.41087  0.35252  1.0000
  H   H11       1.0  0.30373  0.91087  0.14748  1.0000
  H   H12       1.0  0.69626  0.58913  0.64748  1.0000
  H   H13       1.0  0.85723  0.95437  0.80711  1.0000
  H   H14       1.0  0.14276  0.54562  0.30711  1.0000
  H   H15       1.0  0.14276  0.04562  0.19289  1.0000
  H   H16       1.0  0.85723  0.45437  0.69289  1.0000
  C   C1        1.0  0.65684  0.79462  0.82354  1.0000
  C   C2        1.0  0.34316  0.70539  0.32354  1.0000
  C   C3        1.0  0.34315  0.20539  0.17646  1.0000
  C   C4        1.0  0.65684  0.29462  0.67646  1.0000
  C   C5        1.0  0.56231  0.87242  0.85498  1.0000
  C   C6        1.0  0.43767  0.62758  0.35498  1.0000
  C   C7        1.0  0.43767  0.12758  0.14502  1.0000
  C   C8        1.0  0.56231  0.37242  0.64502  1.0000
  C   C9        1.0  0.34506  0.86926  0.89720  1.0000
  C   C10       1.0  0.65494  0.63074  0.39720  1.0000
  C   C11       1.0  0.65494  0.13074  0.10280  1.0000
  C   C12       1.0  0.34505  0.36926  0.60280  1.0000
  C   C13       1.0  0.25476  0.94454  0.92327  1.0000
  C   C14       1.0  0.74524  0.55546  0.42327  1.0000
  C   C15       1.0  0.74523  0.05546  0.07673  1.0000
  C   C16       1.0  0.25476  0.44454  0.57673  1.0000
  C   C17       1.0  0.38193  0.02287  0.90650  1.0000
  C   C18       1.0  0.61806  0.47713  0.40649  1.0000
  C   C19       1.0  0.61806  0.97713  0.09351  1.0000
  C   C20       1.0  0.38193  0.52287  0.59350  1.0000
  C   C21       1.0  0.59960  0.02751  0.86512  1.0000
  C   C22       1.0  0.40040  0.47249  0.36512  1.0000
  C   C23       1.0  0.40040  0.97249  0.13488  1.0000
  C   C24       1.0  0.59960  0.52751  0.63488  1.0000
  C   C25       1.0  0.68930  0.95201  0.83985  1.0000
  C   C26       1.0  0.31069  0.54799  0.33985  1.0000
  C   C27       1.0  0.31069  0.04799  0.16015  1.0000
  C   C28       1.0  0.68930  0.45201  0.66015  1.0000
  C   C29       1.0  0.50169  0.71052  0.83410  1.0000
  C   C30       1.0  0.49832  0.78948  0.33410  1.0000
  C   C31       1.0  0.49831  0.28948  0.16590  1.0000
  C   C32       1.0  0.50168  0.21053  0.66590  1.0000
  C   C33       1.0  0.32118  0.69399  0.77991  1.0000
  C   C34       1.0  0.67884  0.80601  0.27991  1.0000
  C   C35       1.0  0.67884  0.30601  0.22009  1.0000
  C   C36       1.0  0.32117  0.19400  0.72009  1.0000
  C   C37       1.0  0.14928  0.62195  0.78012  1.0000
  C   C38       1.0  0.85073  0.87804  0.28012  1.0000
  C   C39       1.0  0.85073  0.37804  0.21988  1.0000
  C   C40       1.0  0.14926  0.12195  0.71988  1.0000
  C   C41       1.0  0.30771  0.75408  0.72214  1.0000
  C   C42       1.0  0.69230  0.74592  0.22214  1.0000
  C   C43       1.0  0.69230  0.24592  0.27786  1.0000
  C   C44       1.0  0.30771  0.25408  0.77786  1.0000
  C   C45       1.0  0.55717  0.66049  0.89529  1.0000
  C   C46       1.0  0.44283  0.83951  0.39529  1.0000
  C   C47       1.0  0.44284  0.33951  0.10471  1.0000
  C   C48       1.0  0.55717  0.16049  0.60471  1.0000
  C   C49       1.0  0.76080  0.68580  0.94065  1.0000
  C   C50       1.0  0.23922  0.81420  0.44065  1.0000
  C   C51       1.0  0.23920  0.31420  0.05935  1.0000
  C   C52       1.0  0.76080  0.18580  0.55935  1.0000
  C   C53       1.0  0.42537  0.58284  0.91499  1.0000
  C   C54       1.0  0.57463  0.91715  0.41498  1.0000
  C   C55       1.0  0.57463  0.41715  0.08502  1.0000
  C   C56       1.0  0.42538  0.08285  0.58502  1.0000
  Br  Br1       1.0  0.25665  0.12594  0.94037  1.0000
  Br  Br2       1.0  0.74335  0.37406  0.44037  1.0000
  Br  Br3       1.0  0.74335  0.87406  0.05963  1.0000
  Br  Br4       1.0  0.25665  0.62594  0.55963  1.0000
  N   N1        1.0  0.00560  0.56255  0.78175  1.0000
  N   N2        1.0  0.99440  0.93744  0.28176  1.0000
  N   N3        1.0  0.99440  0.43744  0.21825  1.0000
  N   N4        1.0  0.00562  0.06257  0.71824  1.0000
  N   N5        1.0  0.30905  0.80531  0.67508  1.0000
  N   N6        1.0  0.69095  0.69469  0.17508  1.0000
  N   N7        1.0  0.69095  0.19469  0.32492  1.0000
  N   N8        1.0  0.30906  0.30531  0.82492  1.0000
  N   N9        1.0  0.93153  0.70541  0.97802  1.0000
  N   N10       1.0  0.06848  0.79460  0.47802  1.0000
  N   N11       1.0  0.06848  0.29460  0.02198  1.0000
  N   N12       1.0  0.93153  0.20541  0.52198  1.0000
  N   N13       1.0  0.32041  0.51852  0.93398  1.0000
  N   N14       1.0  0.67959  0.98148  0.43398  1.0000
  N   N15       1.0  0.67960  0.48148  0.06602  1.0000
  N   N16       1.0  0.32041  0.01852  0.56602  1.0000
  O   O1        1.0  0.84674  0.79444  0.78636  1.0000
  O   O2        1.0  0.15326  0.70556  0.28636  1.0000
  O   O3        1.0  0.15326  0.20556  0.21364  1.0000
  O   O4        1.0  0.84674  0.29444  0.71364  1.0000
