data_image0
_chemical_formula_structural       Cs4H28C60N16O4
_chemical_formula_sum              "Cs4 H28 C60 N16 O4"
_cell_length_a       8.88456
_cell_length_b       10.1965
_cell_length_c       16.3664
_cell_angle_alpha    90.0005
_cell_angle_beta     98.7541
_cell_angle_gamma    90.0003

_space_group_name_H-M_alt    "P 1"
_space_group_IT_number       1

loop_
  _space_group_symop_operation_xyz
  'x, y, z'

loop_
  _atom_site_type_symbol
  _atom_site_label
  _atom_site_symmetry_multiplicity
  _atom_site_fract_x
  _atom_site_fract_y
  _atom_site_fract_z
  _atom_site_occupancy
  Cs  Cs1       1.0  0.85365  0.87501  0.08249  1.0000
  Cs  Cs2       1.0  0.64635  0.37502  0.91751  1.0000
  Cs  Cs3       1.0  0.14635  0.12498  0.91751  1.0000
  Cs  Cs4       1.0  0.35365  0.62498  0.08249  1.0000
  H   H1        1.0  0.75251  0.79488  0.27086  1.0000
  H   H2        1.0  0.74749  0.29489  0.72914  1.0000
  H   H3        1.0  0.24749  0.20511  0.72914  1.0000
  H   H4        1.0  0.25251  0.70511  0.27086  1.0000
  H   H5        1.0  0.92410  0.92274  0.37427  1.0000
  H   H6        1.0  0.57591  0.42275  0.62574  1.0000
  H   H7        1.0  0.07591  0.07726  0.62573  1.0000
  H   H8        1.0  0.42410  0.57726  0.37427  1.0000
  H   H9        1.0  0.16131  0.56820  0.46006  1.0000
  H   H10       1.0  0.33869  0.06820  0.53994  1.0000
  H   H11       1.0  0.83869  0.43180  0.53994  1.0000
  H   H12       1.0  0.66131  0.93181  0.46006  1.0000
  H   H13       1.0  0.99781  0.44059  0.35277  1.0000
  H   H14       1.0  0.50219  0.94059  0.64724  1.0000
  H   H15       1.0  0.00219  0.55941  0.64723  1.0000
  H   H16       1.0  0.49780  0.05941  0.35276  1.0000
  H   H17       1.0  0.12656  0.81665  0.54924  1.0000
  H   H18       1.0  0.37344  0.31664  0.45076  1.0000
  H   H19       1.0  0.87344  0.18336  0.45076  1.0000
  H   H20       1.0  0.62655  0.68337  0.54924  1.0000
  H   H21       1.0  0.14537  0.93793  0.47388  1.0000
  H   H22       1.0  0.35463  0.43793  0.52612  1.0000
  H   H23       1.0  0.85462  0.06207  0.52612  1.0000
  H   H24       1.0  0.64537  0.56208  0.47388  1.0000
  H   H25       1.0  0.27670  0.80346  0.48983  1.0000
  H   H26       1.0  0.22331  0.30346  0.51017  1.0000
  H   H27       1.0  0.72331  0.19654  0.51017  1.0000
  H   H28       1.0  0.77669  0.69655  0.48983  1.0000
  C   C1        1.0  0.77010  0.54130  0.23570  1.0000
  C   C2        1.0  0.72990  0.04131  0.76429  1.0000
  C   C3        1.0  0.22989  0.45870  0.76430  1.0000
  C   C4        1.0  0.27010  0.95869  0.23570  1.0000
  C   C5        1.0  0.86438  0.60956  0.30349  1.0000
  C   C6        1.0  0.63563  0.10956  0.69651  1.0000
  C   C7        1.0  0.13562  0.39044  0.69651  1.0000
  C   C8        1.0  0.36437  0.89044  0.30349  1.0000
  C   C9        1.0  0.84315  0.74560  0.31184  1.0000
  C   C10       1.0  0.65686  0.24560  0.68816  1.0000
  C   C11       1.0  0.15685  0.25440  0.68816  1.0000
  C   C12       1.0  0.34314  0.75440  0.31184  1.0000
  C   C13       1.0  0.93838  0.81677  0.37055  1.0000
  C   C14       1.0  0.56163  0.31677  0.62946  1.0000
  C   C15       1.0  0.06162  0.18323  0.62945  1.0000
  C   C16       1.0  0.43837  0.68323  0.37055  1.0000
  C   C17       1.0  0.05497  0.75454  0.42464  1.0000
  C   C18       1.0  0.44504  0.25454  0.57536  1.0000
  C   C19       1.0  0.94503  0.24546  0.57536  1.0000
  C   C20       1.0  0.55497  0.74547  0.42464  1.0000
  C   C21       1.0  0.07216  0.61770  0.41812  1.0000
  C   C22       1.0  0.42785  0.11770  0.58188  1.0000
  C   C23       1.0  0.92785  0.38230  0.58188  1.0000
  C   C24       1.0  0.57215  0.88230  0.41812  1.0000
  C   C25       1.0  0.98006  0.54596  0.35794  1.0000
  C   C26       1.0  0.51995  0.04596  0.64206  1.0000
  C   C27       1.0  0.01994  0.45404  0.64206  1.0000
  C   C28       1.0  0.48005  0.95404  0.35794  1.0000
  C   C29       1.0  0.80568  0.39955  0.21531  1.0000
  C   C30       1.0  0.69431  0.89956  0.78469  1.0000
  C   C31       1.0  0.19431  0.60045  0.78469  1.0000
  C   C32       1.0  0.30568  0.10044  0.21531  1.0000
  C   C33       1.0  0.88853  0.38581  0.14869  1.0000
  C   C34       1.0  0.61147  0.88582  0.85131  1.0000
  C   C35       1.0  0.11147  0.61419  0.85131  1.0000
  C   C36       1.0  0.38852  0.11419  0.14869  1.0000
  C   C37       1.0  0.94530  0.49874  0.11382  1.0000
  C   C38       1.0  0.55469  0.99875  0.88619  1.0000
  C   C39       1.0  0.05470  0.50126  0.88619  1.0000
  C   C40       1.0  0.44530  0.00125  0.11381  1.0000
  C   C41       1.0  0.91775  0.26775  0.10894  1.0000
  C   C42       1.0  0.58225  0.76775  0.89106  1.0000
  C   C43       1.0  0.08225  0.73225  0.89106  1.0000
  C   C44       1.0  0.41775  0.23225  0.10894  1.0000
  C   C45       1.0  0.74531  0.30035  0.25950  1.0000
  C   C46       1.0  0.75468  0.80035  0.74051  1.0000
  C   C47       1.0  0.25469  0.69965  0.74051  1.0000
  C   C48       1.0  0.24532  0.19965  0.25949  1.0000
  C   C49       1.0  0.76032  0.16516  0.24328  1.0000
  C   C50       1.0  0.73967  0.66515  0.75672  1.0000
  C   C51       1.0  0.23967  0.83484  0.75672  1.0000
  C   C52       1.0  0.26033  0.33484  0.24328  1.0000
  C   C53       1.0  0.66152  0.33184  0.32383  1.0000
  C   C54       1.0  0.83848  0.83184  0.67617  1.0000
  C   C55       1.0  0.33848  0.66816  0.67617  1.0000
  C   C56       1.0  0.16152  0.16816  0.32383  1.0000
  C   C57       1.0  0.15732  0.83283  0.48746  1.0000
  C   C58       1.0  0.34269  0.33283  0.51254  1.0000
  C   C59       1.0  0.84268  0.16718  0.51254  1.0000
  C   C60       1.0  0.65732  0.66718  0.48746  1.0000
  N   N1        1.0  0.99224  0.59172  0.08384  1.0000
  N   N2        1.0  0.50776  0.09172  0.91616  1.0000
  N   N3        1.0  0.00778  0.40828  0.91617  1.0000
  N   N4        1.0  0.49223  0.90828  0.08384  1.0000
  N   N5        1.0  0.94416  0.17559  0.07057  1.0000
  N   N6        1.0  0.55585  0.67559  0.92943  1.0000
  N   N7        1.0  0.05584  0.82441  0.92943  1.0000
  N   N8        1.0  0.44416  0.32441  0.07057  1.0000
  N   N9        1.0  0.77083  0.05286  0.23037  1.0000
  N   N10       1.0  0.72917  0.55286  0.76963  1.0000
  N   N11       1.0  0.22916  0.94714  0.76963  1.0000
  N   N12       1.0  0.27084  0.44713  0.23038  1.0000
  N   N13       1.0  0.59209  0.35555  0.37738  1.0000
  N   N14       1.0  0.90791  0.85555  0.62262  1.0000
  N   N15       1.0  0.40791  0.64445  0.62262  1.0000
  N   N16       1.0  0.09209  0.14444  0.37738  1.0000
  O   O1        1.0  0.66447  0.59413  0.18892  1.0000
  O   O2        1.0  0.83553  0.09413  0.81108  1.0000
  O   O3        1.0  0.33552  0.40587  0.81109  1.0000
  O   O4        1.0  0.16448  0.90586  0.18891  1.0000
