data_image0
_chemical_formula_structural       Li4H36C60N16O12
_chemical_formula_sum              "Li4 H36 C60 N16 O12"
_cell_length_a       9.8343
_cell_length_b       10.0045
_cell_length_c       15.2331
_cell_angle_alpha    89.9996
_cell_angle_beta     90.0004
_cell_angle_gamma    105.177

_space_group_name_H-M_alt    "P 1"
_space_group_IT_number       1

loop_
  _space_group_symop_operation_xyz
  'x, y, z'

loop_
  _atom_site_type_symbol
  _atom_site_label
  _atom_site_symmetry_multiplicity
  _atom_site_fract_x
  _atom_site_fract_y
  _atom_site_fract_z
  _atom_site_occupancy
  Li  Li1       1.0  0.72548  0.31429  0.84436  1.0000
  Li  Li2       1.0  0.27452  0.18571  0.34436  1.0000
  Li  Li3       1.0  0.27452  0.68570  0.15564  1.0000
  Li  Li4       1.0  0.72549  0.81429  0.65564  1.0000
  H   H1        1.0  0.60538  0.28475  0.47081  1.0000
  H   H2        1.0  0.39462  0.21525  0.97081  1.0000
  H   H3        1.0  0.39462  0.71525  0.52919  1.0000
  H   H4        1.0  0.60538  0.78474  0.02919  1.0000
  H   H5        1.0  0.76156  0.32427  0.34170  1.0000
  H   H6        1.0  0.23845  0.17574  0.84170  1.0000
  H   H7        1.0  0.23845  0.67574  0.65830  1.0000
  H   H8        1.0  0.76155  0.82426  0.15830  1.0000
  H   H9        1.0  0.12027  0.33932  0.50906  1.0000
  H   H10       1.0  0.87973  0.16068  0.00905  1.0000
  H   H11       1.0  0.87973  0.66068  0.49094  1.0000
  H   H12       1.0  0.12027  0.83932  0.99095  1.0000
  H   H13       1.0  0.96390  0.30501  0.63982  1.0000
  H   H14       1.0  0.03611  0.19499  0.13981  1.0000
  H   H15       1.0  0.03610  0.69499  0.36018  1.0000
  H   H16       1.0  0.96389  0.80501  0.86019  1.0000
  H   H17       1.0  0.92587  0.30195  0.23963  1.0000
  H   H18       1.0  0.07413  0.19805  0.73963  1.0000
  H   H19       1.0  0.07413  0.69806  0.76037  1.0000
  H   H20       1.0  0.92587  0.80194  0.26037  1.0000
  H   H21       1.0  0.09660  0.42012  0.22696  1.0000
  H   H22       1.0  0.90341  0.07988  0.72696  1.0000
  H   H23       1.0  0.90340  0.57988  0.77304  1.0000
  H   H24       1.0  0.09659  0.92012  0.27304  1.0000
  H   H25       1.0  0.95329  0.48090  0.27012  1.0000
  H   H26       1.0  0.04671  0.01910  0.77012  1.0000
  H   H27       1.0  0.04671  0.51910  0.72988  1.0000
  H   H28       1.0  0.95329  0.98090  0.22988  1.0000
  H   H29       1.0  0.98142  0.46061  0.90312  1.0000
  H   H30       1.0  0.01859  0.03939  0.40313  1.0000
  H   H31       1.0  0.01859  0.53939  0.09688  1.0000
  H   H32       1.0  0.98142  0.96061  0.59688  1.0000
  H   H33       1.0  0.85942  0.45116  0.97063  1.0000
  H   H34       1.0  0.14058  0.04884  0.47064  1.0000
  H   H35       1.0  0.14058  0.54884  0.02937  1.0000
  H   H36       1.0  0.85942  0.95116  0.52937  1.0000
  C   C1        1.0  0.68837  0.28154  0.64233  1.0000
  C   C2        1.0  0.31163  0.21846  0.14233  1.0000
  C   C3        1.0  0.31163  0.71847  0.35767  1.0000
  C   C4        1.0  0.68837  0.78153  0.85767  1.0000
  C   C5        1.0  0.52926  0.25721  0.63380  1.0000
  C   C6        1.0  0.47074  0.24279  0.13380  1.0000
  C   C7        1.0  0.47074  0.74280  0.36619  1.0000
  C   C8        1.0  0.52925  0.75721  0.86619  1.0000
  C   C9        1.0  0.47670  0.37437  0.63474  1.0000
  C   C10       1.0  0.52330  0.12564  0.13474  1.0000
  C   C11       1.0  0.52329  0.62564  0.36526  1.0000
  C   C12       1.0  0.47670  0.87436  0.86526  1.0000
  C   C13       1.0  0.44902  0.11797  0.63055  1.0000
  C   C14       1.0  0.55098  0.38202  0.13055  1.0000
  C   C15       1.0  0.55098  0.88203  0.36945  1.0000
  C   C16       1.0  0.44902  0.61797  0.86945  1.0000
  C   C17       1.0  0.56548  0.50846  0.62168  1.0000
  C   C18       1.0  0.43452  0.99154  0.12168  1.0000
  C   C19       1.0  0.43453  0.49154  0.37831  1.0000
  C   C20       1.0  0.56547  0.00846  0.87831  1.0000
  C   C21       1.0  0.33603  0.37225  0.65535  1.0000
  C   C22       1.0  0.66397  0.12774  0.15535  1.0000
  C   C23       1.0  0.66397  0.62775  0.34465  1.0000
  C   C24       1.0  0.33602  0.87225  0.84465  1.0000
  C   C25       1.0  0.30333  0.07642  0.61331  1.0000
  C   C26       1.0  0.69668  0.42358  0.11330  1.0000
  C   C27       1.0  0.69667  0.92358  0.38669  1.0000
  C   C28       1.0  0.30333  0.57642  0.88669  1.0000
  C   C29       1.0  0.51759  0.01062  0.63557  1.0000
  C   C30       1.0  0.48241  0.48938  0.13557  1.0000
  C   C31       1.0  0.48241  0.98938  0.36444  1.0000
  C   C32       1.0  0.51759  0.51062  0.86443  1.0000
  C   C33       1.0  0.77422  0.29333  0.56462  1.0000
  C   C34       1.0  0.22579  0.20667  0.06462  1.0000
  C   C35       1.0  0.22579  0.70667  0.43538  1.0000
  C   C36       1.0  0.77421  0.79333  0.93538  1.0000
  C   C37       1.0  0.71817  0.29708  0.47965  1.0000
  C   C38       1.0  0.28184  0.20293  0.97965  1.0000
  C   C39       1.0  0.28184  0.70293  0.52035  1.0000
  C   C40       1.0  0.71816  0.79707  0.02036  1.0000
  C   C41       1.0  0.80540  0.31891  0.40668  1.0000
  C   C42       1.0  0.19460  0.18109  0.90668  1.0000
  C   C43       1.0  0.19460  0.68109  0.59332  1.0000
  C   C44       1.0  0.80540  0.81891  0.09332  1.0000
  C   C45       1.0  0.95128  0.33604  0.41810  1.0000
  C   C46       1.0  0.04873  0.16396  0.91809  1.0000
  C   C47       1.0  0.04873  0.66396  0.58190  1.0000
  C   C48       1.0  0.95127  0.83604  0.08190  1.0000
  C   C49       1.0  0.00739  0.32653  0.50250  1.0000
  C   C50       1.0  0.99262  0.17347  0.00250  1.0000
  C   C51       1.0  0.99262  0.67347  0.49750  1.0000
  C   C52       1.0  0.00738  0.82653  0.99751  1.0000
  C   C53       1.0  0.92040  0.30728  0.57445  1.0000
  C   C54       1.0  0.07961  0.19273  0.07445  1.0000
  C   C55       1.0  0.07960  0.69273  0.42555  1.0000
  C   C56       1.0  0.92039  0.80727  0.92556  1.0000
  C   C57       1.0  0.00115  0.39337  0.26700  1.0000
  C   C58       1.0  0.99885  0.10662  0.76699  1.0000
  C   C59       1.0  0.99885  0.60663  0.73301  1.0000
  C   C60       1.0  0.00115  0.89337  0.23301  1.0000
  N   N1        1.0  0.57632  0.92318  0.63949  1.0000
  N   N2        1.0  0.42368  0.57682  0.13949  1.0000
  N   N3        1.0  0.42369  0.07682  0.36051  1.0000
  N   N4        1.0  0.57631  0.42318  0.86050  1.0000
  N   N5        1.0  0.18370  0.03802  0.59477  1.0000
  N   N6        1.0  0.81629  0.46198  0.09477  1.0000
  N   N7        1.0  0.81629  0.96198  0.40523  1.0000
  N   N8        1.0  0.18370  0.53802  0.90523  1.0000
  N   N9        1.0  0.22376  0.37851  0.67733  1.0000
  N   N10       1.0  0.77625  0.12149  0.17733  1.0000
  N   N11       1.0  0.77625  0.62150  0.32267  1.0000
  N   N12       1.0  0.22375  0.87851  0.82267  1.0000
  N   N13       1.0  0.63222  0.62224  0.61001  1.0000
  N   N14       1.0  0.36778  0.87775  0.11001  1.0000
  N   N15       1.0  0.36778  0.37776  0.38999  1.0000
  N   N16       1.0  0.63222  0.12224  0.88999  1.0000
  O   O1        1.0  0.73607  0.29016  0.71856  1.0000
  O   O2        1.0  0.26393  0.20985  0.21856  1.0000
  O   O3        1.0  0.26393  0.70985  0.28144  1.0000
  O   O4        1.0  0.73607  0.79015  0.78144  1.0000
  O   O5        1.0  0.04665  0.36376  0.35301  1.0000
  O   O6        1.0  0.95335  0.13624  0.85301  1.0000
  O   O7        1.0  0.95335  0.63624  0.64699  1.0000
  O   O8        1.0  0.04664  0.86375  0.14699  1.0000
  O   O9        1.0  0.87838  0.43192  0.90929  1.0000
  O   O10       1.0  0.12162  0.06808  0.40929  1.0000
  O   O11       1.0  0.12162  0.56808  0.09071  1.0000
  O   O12       1.0  0.87838  0.93192  0.59071  1.0000
