data_image0
_chemical_formula_structural       K4H16C56Br4N16O4
_chemical_formula_sum              "K4 H16 C56 Br4 N16 O4"
_cell_length_a       7.95975
_cell_length_b       9.62628
_cell_length_c       18.5045
_cell_angle_alpha    89.9999
_cell_angle_beta     102.343
_cell_angle_gamma    90.0003

_space_group_name_H-M_alt    "P 1"
_space_group_IT_number       1

loop_
  _space_group_symop_operation_xyz
  'x, y, z'

loop_
  _atom_site_type_symbol
  _atom_site_label
  _atom_site_symmetry_multiplicity
  _atom_site_fract_x
  _atom_site_fract_y
  _atom_site_fract_z
  _atom_site_occupancy
  K   K1        1.0  0.92615  0.13217  0.90169  1.0000
  K   K2        1.0  0.57383  0.63217  0.09831  1.0000
  K   K3        1.0  0.07383  0.86783  0.09831  1.0000
  K   K4        1.0  0.42616  0.36783  0.90169  1.0000
  H   H1        1.0  0.72379  0.18019  0.73100  1.0000
  H   H2        1.0  0.77623  0.68019  0.26900  1.0000
  H   H3        1.0  0.27622  0.81981  0.26899  1.0000
  H   H4        1.0  0.22378  0.31980  0.73100  1.0000
  H   H5        1.0  0.87326  0.59281  0.67557  1.0000
  H   H6        1.0  0.62674  0.09280  0.32443  1.0000
  H   H7        1.0  0.12674  0.40719  0.32443  1.0000
  H   H8        1.0  0.37326  0.90719  0.67556  1.0000
  H   H9        1.0  0.94455  0.50193  0.56206  1.0000
  H   H10       1.0  0.55544  0.00192  0.43794  1.0000
  H   H11       1.0  0.05545  0.49809  0.43794  1.0000
  H   H12       1.0  0.44455  0.99809  0.56206  1.0000
  H   H13       1.0  0.80581  0.08730  0.61874  1.0000
  H   H14       1.0  0.69419  0.58730  0.38126  1.0000
  H   H15       1.0  0.19420  0.91271  0.38126  1.0000
  H   H16       1.0  0.30580  0.41271  0.61875  1.0000
  C   C1        1.0  0.74743  0.44152  0.78008  1.0000
  C   C2        1.0  0.75257  0.94153  0.21992  1.0000
  C   C3        1.0  0.25257  0.55847  0.21992  1.0000
  C   C4        1.0  0.24743  0.05847  0.78008  1.0000
  C   C5        1.0  0.78092  0.59191  0.80447  1.0000
  C   C6        1.0  0.71908  0.09191  0.19553  1.0000
  C   C7        1.0  0.21907  0.40809  0.19553  1.0000
  C   C8        1.0  0.28093  0.90809  0.80447  1.0000
  C   C9        1.0  0.90554  0.61005  0.87061  1.0000
  C   C10       1.0  0.59446  0.11004  0.12939  1.0000
  C   C11       1.0  0.09445  0.38995  0.12939  1.0000
  C   C12       1.0  0.40554  0.88996  0.87062  1.0000
  C   C13       1.0  0.68455  0.69640  0.76165  1.0000
  C   C14       1.0  0.81544  0.19640  0.23835  1.0000
  C   C15       1.0  0.31545  0.30360  0.23835  1.0000
  C   C16       1.0  0.18455  0.80359  0.76165  1.0000
  C   C17       1.0  0.00327  0.49599  0.90431  1.0000
  C   C18       1.0  0.49674  0.99598  0.09569  1.0000
  C   C19       1.0  0.99672  0.50402  0.09569  1.0000
  C   C20       1.0  0.50327  0.00403  0.90432  1.0000
  C   C21       1.0  0.94710  0.73802  0.90713  1.0000
  C   C22       1.0  0.55289  0.23801  0.09287  1.0000
  C   C23       1.0  0.05289  0.26199  0.09287  1.0000
  C   C24       1.0  0.44710  0.76200  0.90713  1.0000
  C   C25       1.0  0.71363  0.83943  0.77617  1.0000
  C   C26       1.0  0.78637  0.33943  0.22384  1.0000
  C   C27       1.0  0.28638  0.16057  0.22384  1.0000
  C   C28       1.0  0.21362  0.66057  0.77616  1.0000
  C   C29       1.0  0.55383  0.66423  0.69909  1.0000
  C   C30       1.0  0.94618  0.16423  0.30092  1.0000
  C   C31       1.0  0.44618  0.33577  0.30092  1.0000
  C   C32       1.0  0.05383  0.83577  0.69908  1.0000
  C   C33       1.0  0.79287  0.39297  0.71184  1.0000
  C   C34       1.0  0.70714  0.89296  0.28816  1.0000
  C   C35       1.0  0.20714  0.60703  0.28816  1.0000
  C   C36       1.0  0.29287  0.10703  0.71184  1.0000
  C   C37       1.0  0.77382  0.25023  0.69441  1.0000
  C   C38       1.0  0.72620  0.75023  0.30559  1.0000
  C   C39       1.0  0.22620  0.74977  0.30559  1.0000
  C   C40       1.0  0.27381  0.24977  0.69441  1.0000
  C   C41       1.0  0.81777  0.19796  0.63118  1.0000
  C   C42       1.0  0.68224  0.69796  0.36883  1.0000
  C   C43       1.0  0.18224  0.80205  0.36882  1.0000
  C   C44       1.0  0.31776  0.30205  0.63118  1.0000
  C   C45       1.0  0.87762  0.28955  0.58342  1.0000
  C   C46       1.0  0.62238  0.78955  0.41658  1.0000
  C   C47       1.0  0.12239  0.71045  0.41658  1.0000
  C   C48       1.0  0.37762  0.21046  0.58342  1.0000
  C   C49       1.0  0.89784  0.43147  0.59941  1.0000
  C   C50       1.0  0.60216  0.93147  0.40059  1.0000
  C   C51       1.0  0.10217  0.56853  0.40059  1.0000
  C   C52       1.0  0.39783  0.06853  0.59941  1.0000
  C   C53       1.0  0.85714  0.48231  0.66372  1.0000
  C   C54       1.0  0.64286  0.98231  0.33628  1.0000
  C   C55       1.0  0.14287  0.51769  0.33628  1.0000
  C   C56       1.0  0.35714  0.01769  0.66371  1.0000
  Br  Br1       1.0  0.93228  0.21993  0.49588  1.0000
  Br  Br2       1.0  0.56772  0.71991  0.50412  1.0000
  Br  Br3       1.0  0.06773  0.78008  0.50412  1.0000
  Br  Br4       1.0  0.43229  0.28011  0.49589  1.0000
  N   N1        1.0  0.08672  0.40206  0.93196  1.0000
  N   N2        1.0  0.41327  0.90205  0.06803  1.0000
  N   N3        1.0  0.91326  0.59794  0.06803  1.0000
  N   N4        1.0  0.58673  0.09795  0.93197  1.0000
  N   N5        1.0  0.98583  0.84182  0.93950  1.0000
  N   N6        1.0  0.51417  0.34181  0.06051  1.0000
  N   N7        1.0  0.01417  0.15818  0.06051  1.0000
  N   N8        1.0  0.48582  0.65818  0.93949  1.0000
  N   N9        1.0  0.73970  0.95798  0.78724  1.0000
  N   N10       1.0  0.76028  0.45797  0.21276  1.0000
  N   N11       1.0  0.26029  0.04202  0.21276  1.0000
  N   N12       1.0  0.23970  0.54202  0.78724  1.0000
  N   N13       1.0  0.44399  0.64129  0.64729  1.0000
  N   N14       1.0  0.05601  0.14130  0.35271  1.0000
  N   N15       1.0  0.55601  0.35871  0.35271  1.0000
  N   N16       1.0  0.94399  0.85871  0.64729  1.0000
  O   O1        1.0  0.68792  0.36378  0.82223  1.0000
  O   O2        1.0  0.81208  0.86378  0.17777  1.0000
  O   O3        1.0  0.31209  0.63621  0.17777  1.0000
  O   O4        1.0  0.18791  0.13621  0.82223  1.0000
