data_image0
_chemical_formula_structural       Li4H36C60N16O8
_chemical_formula_sum              "Li4 H36 C60 N16 O8"
_cell_length_a       10.0197
_cell_length_b       10.0598
_cell_length_c       14.5082
_cell_angle_alpha    90.0001
_cell_angle_beta     90.0001
_cell_angle_gamma    107.59

_space_group_name_H-M_alt    "P 1"
_space_group_IT_number       1

loop_
  _space_group_symop_operation_xyz
  'x, y, z'

loop_
  _atom_site_type_symbol
  _atom_site_label
  _atom_site_symmetry_multiplicity
  _atom_site_fract_x
  _atom_site_fract_y
  _atom_site_fract_z
  _atom_site_occupancy
  Li  Li1       1.0  0.72214  0.33508  0.84267  1.0000
  Li  Li2       1.0  0.27786  0.16492  0.34267  1.0000
  Li  Li3       1.0  0.27786  0.66493  0.15733  1.0000
  Li  Li4       1.0  0.72214  0.83508  0.65734  1.0000
  H   H1        1.0  0.95790  0.31907  0.62031  1.0000
  H   H2        1.0  0.04209  0.18093  0.12031  1.0000
  H   H3        1.0  0.04210  0.68093  0.37969  1.0000
  H   H4        1.0  0.95791  0.81907  0.87969  1.0000
  H   H5        1.0  0.09528  0.33747  0.47736  1.0000
  H   H6        1.0  0.90472  0.16253  0.97736  1.0000
  H   H7        1.0  0.90472  0.66253  0.52264  1.0000
  H   H8        1.0  0.09528  0.83747  0.02264  1.0000
  H   H9        1.0  0.72653  0.30950  0.31590  1.0000
  H   H10       1.0  0.27347  0.19050  0.81589  1.0000
  H   H11       1.0  0.27347  0.69050  0.68411  1.0000
  H   H12       1.0  0.72653  0.80950  0.18411  1.0000
  H   H13       1.0  0.58634  0.28633  0.45844  1.0000
  H   H14       1.0  0.41365  0.21367  0.95844  1.0000
  H   H15       1.0  0.41366  0.71367  0.54156  1.0000
  H   H16       1.0  0.58634  0.78633  0.04156  1.0000
  H   H17       1.0  0.98859  0.23743  0.26819  1.0000
  H   H18       1.0  0.01141  0.26257  0.76819  1.0000
  H   H19       1.0  0.01141  0.76257  0.73181  1.0000
  H   H20       1.0  0.98859  0.73743  0.23181  1.0000
  H   H21       1.0  0.11713  0.38612  0.31346  1.0000
  H   H22       1.0  0.88287  0.11389  0.81346  1.0000
  H   H23       1.0  0.88287  0.61388  0.68654  1.0000
  H   H24       1.0  0.11713  0.88611  0.18654  1.0000
  H   H25       1.0  0.97166  0.40404  0.24894  1.0000
  H   H26       1.0  0.02834  0.09597  0.74893  1.0000
  H   H27       1.0  0.02834  0.59596  0.75107  1.0000
  H   H28       1.0  0.97166  0.90403  0.25107  1.0000
  H   H29       1.0  0.98458  0.46779  0.89814  1.0000
  H   H30       1.0  0.01542  0.03221  0.39814  1.0000
  H   H31       1.0  0.01542  0.53221  0.10186  1.0000
  H   H32       1.0  0.98458  0.96779  0.60186  1.0000
  H   H33       1.0  0.86785  0.46751  0.97039  1.0000
  H   H34       1.0  0.13215  0.03249  0.47039  1.0000
  H   H35       1.0  0.13215  0.53249  0.02961  1.0000
  H   H36       1.0  0.86785  0.96751  0.52961  1.0000
  C   C1        1.0  0.68511  0.29747  0.63416  1.0000
  C   C2        1.0  0.31489  0.20253  0.13416  1.0000
  C   C3        1.0  0.31489  0.70253  0.36584  1.0000
  C   C4        1.0  0.68511  0.79747  0.86584  1.0000
  C   C5        1.0  0.52628  0.26527  0.62932  1.0000
  C   C6        1.0  0.47372  0.23473  0.12932  1.0000
  C   C7        1.0  0.47372  0.73473  0.37068  1.0000
  C   C8        1.0  0.52628  0.76527  0.87069  1.0000
  C   C9        1.0  0.47359  0.37898  0.63033  1.0000
  C   C10       1.0  0.52641  0.12102  0.13032  1.0000
  C   C11       1.0  0.52641  0.62102  0.36967  1.0000
  C   C12       1.0  0.47359  0.87898  0.86968  1.0000
  C   C13       1.0  0.44835  0.12264  0.62704  1.0000
  C   C14       1.0  0.55165  0.37736  0.12704  1.0000
  C   C15       1.0  0.55165  0.87736  0.37296  1.0000
  C   C16       1.0  0.44835  0.62264  0.87296  1.0000
  C   C17       1.0  0.51950  0.02129  0.63063  1.0000
  C   C18       1.0  0.48049  0.47871  0.13063  1.0000
  C   C19       1.0  0.48050  0.97871  0.36937  1.0000
  C   C20       1.0  0.51951  0.52129  0.86937  1.0000
  C   C21       1.0  0.30233  0.07198  0.61458  1.0000
  C   C22       1.0  0.69767  0.42802  0.11458  1.0000
  C   C23       1.0  0.69767  0.92801  0.38542  1.0000
  C   C24       1.0  0.30233  0.57198  0.88542  1.0000
  C   C25       1.0  0.33050  0.36903  0.64140  1.0000
  C   C26       1.0  0.66950  0.13097  0.14140  1.0000
  C   C27       1.0  0.66951  0.63097  0.35860  1.0000
  C   C28       1.0  0.33050  0.86903  0.85860  1.0000
  C   C29       1.0  0.56397  0.51671  0.62374  1.0000
  C   C30       1.0  0.43603  0.98329  0.12373  1.0000
  C   C31       1.0  0.43603  0.48329  0.37626  1.0000
  C   C32       1.0  0.56397  0.01671  0.87627  1.0000
  C   C33       1.0  0.76294  0.30210  0.54931  1.0000
  C   C34       1.0  0.23706  0.19790  0.04931  1.0000
  C   C35       1.0  0.23706  0.69790  0.45069  1.0000
  C   C36       1.0  0.76294  0.80210  0.95068  1.0000
  C   C37       1.0  0.90704  0.31568  0.55370  1.0000
  C   C38       1.0  0.09295  0.18432  0.05370  1.0000
  C   C39       1.0  0.09296  0.68432  0.44630  1.0000
  C   C40       1.0  0.90705  0.81568  0.94630  1.0000
  C   C41       1.0  0.98375  0.32631  0.47327  1.0000
  C   C42       1.0  0.01625  0.17369  0.97327  1.0000
  C   C43       1.0  0.01625  0.67369  0.52673  1.0000
  C   C44       1.0  0.98376  0.82630  0.02673  1.0000
  C   C45       1.0  0.92071  0.32576  0.38651  1.0000
  C   C46       1.0  0.07929  0.17424  0.88651  1.0000
  C   C47       1.0  0.07929  0.67424  0.61349  1.0000
  C   C48       1.0  0.92071  0.82576  0.11349  1.0000
  C   C49       1.0  0.77642  0.31011  0.38273  1.0000
  C   C50       1.0  0.22358  0.18989  0.88273  1.0000
  C   C51       1.0  0.22358  0.68989  0.61727  1.0000
  C   C52       1.0  0.77642  0.81011  0.11727  1.0000
  C   C53       1.0  0.69785  0.29758  0.46266  1.0000
  C   C54       1.0  0.30214  0.20242  0.96266  1.0000
  C   C55       1.0  0.30215  0.70242  0.53734  1.0000
  C   C56       1.0  0.69786  0.79758  0.03734  1.0000
  C   C57       1.0  0.00499  0.34035  0.30010  1.0000
  C   C58       1.0  0.99500  0.15965  0.80010  1.0000
  C   C59       1.0  0.99501  0.65965  0.69990  1.0000
  C   C60       1.0  0.00500  0.84035  0.19990  1.0000
  N   N1        1.0  0.63383  0.63291  0.61797  1.0000
  N   N2        1.0  0.36617  0.86710  0.11797  1.0000
  N   N3        1.0  0.36617  0.36710  0.38203  1.0000
  N   N4        1.0  0.63383  0.13290  0.88203  1.0000
  N   N5        1.0  0.21453  0.36736  0.65336  1.0000
  N   N6        1.0  0.78547  0.13264  0.15336  1.0000
  N   N7        1.0  0.78547  0.63264  0.34664  1.0000
  N   N8        1.0  0.21453  0.86736  0.84664  1.0000
  N   N9        1.0  0.18184  0.02682  0.60086  1.0000
  N   N10       1.0  0.81815  0.47318  0.10086  1.0000
  N   N11       1.0  0.81816  0.97319  0.39914  1.0000
  N   N12       1.0  0.18185  0.52682  0.89914  1.0000
  N   N13       1.0  0.58032  0.93887  0.63393  1.0000
  N   N14       1.0  0.41968  0.56114  0.13393  1.0000
  N   N15       1.0  0.41968  0.06113  0.36607  1.0000
  N   N16       1.0  0.58032  0.43887  0.86607  1.0000
  O   O1        1.0  0.74017  0.31816  0.71166  1.0000
  O   O2        1.0  0.25983  0.18184  0.21166  1.0000
  O   O3        1.0  0.25983  0.68184  0.28834  1.0000
  O   O4        1.0  0.74017  0.81816  0.78834  1.0000
  O   O5        1.0  0.88261  0.44413  0.90633  1.0000
  O   O6        1.0  0.11739  0.05587  0.40634  1.0000
  O   O7        1.0  0.11739  0.55587  0.09366  1.0000
  O   O8        1.0  0.88261  0.94413  0.59366  1.0000
