data_image0
_chemical_formula_structural       K4H28C60N16O8
_chemical_formula_sum              "K4 H28 C60 N16 O8"
_cell_length_a       7.20152
_cell_length_b       12.8472
_cell_length_c       15.8338
_cell_angle_alpha    90
_cell_angle_beta     89.9997
_cell_angle_gamma    92.3345

_space_group_name_H-M_alt    "P 1"
_space_group_IT_number       1

loop_
  _space_group_symop_operation_xyz
  'x, y, z'

loop_
  _atom_site_type_symbol
  _atom_site_label
  _atom_site_symmetry_multiplicity
  _atom_site_fract_x
  _atom_site_fract_y
  _atom_site_fract_z
  _atom_site_occupancy
  K   K1        1.0  0.92572  0.98561  0.27071  1.0000
  K   K2        1.0  0.57428  0.01438  0.77071  1.0000
  K   K3        1.0  0.07427  0.01440  0.72929  1.0000
  K   K4        1.0  0.42572  0.98561  0.22930  1.0000
  H   H1        1.0  0.58948  0.69568  0.21177  1.0000
  H   H2        1.0  0.91053  0.30432  0.71176  1.0000
  H   H3        1.0  0.41053  0.30433  0.78824  1.0000
  H   H4        1.0  0.08947  0.69567  0.28824  1.0000
  H   H5        1.0  0.45782  0.52709  0.16227  1.0000
  H   H6        1.0  0.04219  0.47291  0.66227  1.0000
  H   H7        1.0  0.54221  0.47292  0.83773  1.0000
  H   H8        1.0  0.95780  0.52707  0.33773  1.0000
  H   H9        1.0  0.30220  0.44599  0.41900  1.0000
  H   H10       1.0  0.19778  0.55401  0.91900  1.0000
  H   H11       1.0  0.69780  0.55401  0.58100  1.0000
  H   H12       1.0  0.80220  0.44599  0.08100  1.0000
  H   H13       1.0  0.43374  0.61667  0.46846  1.0000
  H   H14       1.0  0.06625  0.38334  0.96847  1.0000
  H   H15       1.0  0.56626  0.38334  0.53153  1.0000
  H   H16       1.0  0.93374  0.61666  0.03154  1.0000
  H   H17       1.0  0.23384  0.39723  0.14060  1.0000
  H   H18       1.0  0.26619  0.60277  0.64060  1.0000
  H   H19       1.0  0.76618  0.60278  0.85940  1.0000
  H   H20       1.0  0.73382  0.39722  0.35939  1.0000
  H   H21       1.0  0.24599  0.26689  0.18168  1.0000
  H   H22       1.0  0.25406  0.73312  0.68168  1.0000
  H   H23       1.0  0.75404  0.73312  0.81831  1.0000
  H   H24       1.0  0.74595  0.26687  0.31831  1.0000
  H   H25       1.0  0.45587  0.34297  0.16113  1.0000
  H   H26       1.0  0.04417  0.65704  0.66113  1.0000
  H   H27       1.0  0.54417  0.65704  0.83886  1.0000
  H   H28       1.0  0.95583  0.34295  0.33886  1.0000
  C   C1        1.0  0.59527  0.79806  0.46337  1.0000
  C   C2        1.0  0.90474  0.20195  0.96336  1.0000
  C   C3        1.0  0.40472  0.20195  0.53664  1.0000
  C   C4        1.0  0.09526  0.79805  0.03664  1.0000
  C   C5        1.0  0.60629  0.76634  0.37063  1.0000
  C   C6        1.0  0.89372  0.23366  0.87062  1.0000
  C   C7        1.0  0.39370  0.23367  0.62938  1.0000
  C   C8        1.0  0.10628  0.76633  0.12938  1.0000
  C   C9        1.0  0.74735  0.77723  0.51498  1.0000
  C   C10       1.0  0.75266  0.22277  0.01497  1.0000
  C   C11       1.0  0.25265  0.22278  0.48503  1.0000
  C   C12       1.0  0.24735  0.77723  0.98503  1.0000
  C   C13       1.0  0.43652  0.85249  0.48548  1.0000
  C   C14       1.0  0.06349  0.14751  0.98548  1.0000
  C   C15       1.0  0.56347  0.14751  0.51452  1.0000
  C   C16       1.0  0.93651  0.85248  0.01452  1.0000
  C   C17       1.0  0.29927  0.87196  0.42443  1.0000
  C   C18       1.0  0.20074  0.12805  0.92443  1.0000
  C   C19       1.0  0.70071  0.12805  0.57558  1.0000
  C   C20       1.0  0.79924  0.87194  0.07557  1.0000
  C   C21       1.0  0.39797  0.89094  0.56660  1.0000
  C   C22       1.0  0.10204  0.10906  0.06661  1.0000
  C   C23       1.0  0.60204  0.10906  0.43340  1.0000
  C   C24       1.0  0.89796  0.89094  0.93340  1.0000
  C   C25       1.0  0.77738  0.82247  0.59541  1.0000
  C   C26       1.0  0.72264  0.17752  0.09541  1.0000
  C   C27       1.0  0.22263  0.17753  0.40459  1.0000
  C   C28       1.0  0.27736  0.82248  0.90459  1.0000
  C   C29       1.0  0.88716  0.71043  0.48742  1.0000
  C   C30       1.0  0.61285  0.28955  0.98742  1.0000
  C   C31       1.0  0.11284  0.28957  0.51258  1.0000
  C   C32       1.0  0.38715  0.71043  0.01259  1.0000
  C   C33       1.0  0.52522  0.66694  0.34354  1.0000
  C   C34       1.0  0.97477  0.33307  0.84354  1.0000
  C   C35       1.0  0.47477  0.33307  0.65646  1.0000
  C   C36       1.0  0.02521  0.66694  0.15647  1.0000
  C   C37       1.0  0.52827  0.64030  0.25705  1.0000
  C   C38       1.0  0.97174  0.35970  0.75705  1.0000
  C   C39       1.0  0.47175  0.35971  0.74295  1.0000
  C   C40       1.0  0.02824  0.64028  0.24295  1.0000
  C   C41       1.0  0.45468  0.54519  0.22935  1.0000
  C   C42       1.0  0.04534  0.45481  0.72935  1.0000
  C   C43       1.0  0.54535  0.45482  0.77064  1.0000
  C   C44       1.0  0.95464  0.54518  0.27064  1.0000
  C   C45       1.0  0.37688  0.47415  0.28862  1.0000
  C   C46       1.0  0.12313  0.52586  0.78862  1.0000
  C   C47       1.0  0.62315  0.52586  0.71137  1.0000
  C   C48       1.0  0.87685  0.47413  0.21137  1.0000
  C   C49       1.0  0.37000  0.50052  0.37499  1.0000
  C   C50       1.0  0.12999  0.49949  0.87500  1.0000
  C   C51       1.0  0.63000  0.49949  0.62500  1.0000
  C   C52       1.0  0.86999  0.50050  0.12500  1.0000
  C   C53       1.0  0.44268  0.59588  0.40188  1.0000
  C   C54       1.0  0.05731  0.40413  0.90189  1.0000
  C   C55       1.0  0.55731  0.40413  0.59811  1.0000
  C   C56       1.0  0.94268  0.59587  0.09811  1.0000
  C   C57       1.0  0.31074  0.34539  0.18200  1.0000
  C   C58       1.0  0.18929  0.65462  0.68201  1.0000
  C   C59       1.0  0.68929  0.65463  0.81799  1.0000
  C   C60       1.0  0.81071  0.34536  0.31799  1.0000
  N   N1        1.0  0.00268  0.65351  0.46772  1.0000
  N   N2        1.0  0.49732  0.34649  0.96772  1.0000
  N   N3        1.0  0.99730  0.34649  0.53227  1.0000
  N   N4        1.0  0.50270  0.65350  0.03228  1.0000
  N   N5        1.0  0.81004  0.86200  0.66068  1.0000
  N   N6        1.0  0.68996  0.13799  0.16068  1.0000
  N   N7        1.0  0.18997  0.13800  0.33933  1.0000
  N   N8        1.0  0.31002  0.86200  0.83933  1.0000
  N   N9        1.0  0.35635  0.92257  0.63307  1.0000
  N   N10       1.0  0.14366  0.07743  0.13308  1.0000
  N   N11       1.0  0.64366  0.07743  0.36693  1.0000
  N   N12       1.0  0.85633  0.92257  0.86692  1.0000
  N   N13       1.0  0.18547  0.89066  0.37443  1.0000
  N   N14       1.0  0.31455  0.10935  0.87443  1.0000
  N   N15       1.0  0.81450  0.10935  0.62558  1.0000
  N   N16       1.0  0.68546  0.89065  0.12558  1.0000
  O   O1        1.0  0.68291  0.83162  0.32268  1.0000
  O   O2        1.0  0.81712  0.16838  0.82268  1.0000
  O   O3        1.0  0.31708  0.16838  0.67732  1.0000
  O   O4        1.0  0.18288  0.83162  0.17733  1.0000
  O   O5        1.0  0.30241  0.37926  0.26858  1.0000
  O   O6        1.0  0.19761  0.62075  0.76858  1.0000
  O   O7        1.0  0.69762  0.62075  0.73141  1.0000
  O   O8        1.0  0.80238  0.37924  0.23141  1.0000
