data_image0
_chemical_formula_structural       La4H24C40N20O28
_chemical_formula_sum              "La4 H24 C40 N20 O28"
_cell_length_a       7.99154
_cell_length_b       7.99156
_cell_length_c       20.0804
_cell_angle_alpha    90
_cell_angle_beta     90.0001
_cell_angle_gamma    90.0025

_space_group_name_H-M_alt    "P 1"
_space_group_IT_number       1

loop_
  _space_group_symop_operation_xyz
  'x, y, z'

loop_
  _atom_site_type_symbol
  _atom_site_label
  _atom_site_symmetry_multiplicity
  _atom_site_fract_x
  _atom_site_fract_y
  _atom_site_fract_z
  _atom_site_occupancy
  La  La1       1.0  0.77812  0.77811  0.50000  1.0000
  La  La2       1.0  0.72193  0.27807  0.25000  1.0000
  La  La3       1.0  0.22188  0.22189  1.00000  1.0000
  La  La4       1.0  0.27807  0.72193  0.75000  1.0000
  H   H1        1.0  0.69203  0.21655  0.56023  1.0000
  H   H2        1.0  0.28342  0.19220  0.31022  1.0000
  H   H3        1.0  0.30796  0.78344  0.06023  1.0000
  H   H4        1.0  0.71658  0.80780  0.81022  1.0000
  H   H5        1.0  0.19220  0.28342  0.68978  1.0000
  H   H6        1.0  0.21656  0.69204  0.43977  1.0000
  H   H7        1.0  0.80780  0.71659  0.18978  1.0000
  H   H8        1.0  0.78345  0.30797  0.93977  1.0000
  H   H9        1.0  0.56990  0.36565  0.66093  1.0000
  H   H10       1.0  0.13439  0.07002  0.41092  1.0000
  H   H11       1.0  0.43010  0.63436  0.16093  1.0000
  H   H12       1.0  0.86561  0.92998  0.91092  1.0000
  H   H13       1.0  0.07002  0.13439  0.58908  1.0000
  H   H14       1.0  0.36565  0.56990  0.33907  1.0000
  H   H15       1.0  0.92998  0.86561  0.08908  1.0000
  H   H16       1.0  0.63435  0.43010  0.83907  1.0000
  H   H17       1.0  0.44598  0.18465  0.75104  1.0000
  H   H18       1.0  0.31544  0.94596  0.50097  1.0000
  H   H19       1.0  0.55401  0.81535  0.25104  1.0000
  H   H20       1.0  0.68456  0.05404  0.00097  1.0000
  H   H21       1.0  0.94596  0.31544  0.49902  1.0000
  H   H22       1.0  0.18465  0.44599  0.24896  1.0000
  H   H23       1.0  0.05404  0.68456  0.99902  1.0000
  H   H24       1.0  0.81535  0.55401  0.74896  1.0000
  C   C1        1.0  0.60246  0.89648  0.65465  1.0000
  C   C2        1.0  0.60360  0.10239  0.40457  1.0000
  C   C3        1.0  0.39754  0.10352  0.15465  1.0000
  C   C4        1.0  0.39641  0.89761  0.90457  1.0000
  C   C5        1.0  0.10239  0.60360  0.59543  1.0000
  C   C6        1.0  0.89648  0.60246  0.34535  1.0000
  C   C7        1.0  0.89761  0.39641  0.09543  1.0000
  C   C8        1.0  0.10352  0.39753  0.84535  1.0000
  C   C9        1.0  0.64808  0.14806  0.60380  1.0000
  C   C10       1.0  0.35196  0.14818  0.35376  1.0000
  C   C11       1.0  0.35192  0.85193  0.10380  1.0000
  C   C12       1.0  0.64804  0.85182  0.85376  1.0000
  C   C13       1.0  0.14818  0.35196  0.64624  1.0000
  C   C14       1.0  0.14806  0.64808  0.39620  1.0000
  C   C15       1.0  0.85182  0.64804  0.14624  1.0000
  C   C16       1.0  0.85194  0.35192  0.89620  1.0000
  C   C17       1.0  0.57626  0.22958  0.65797  1.0000
  C   C18       1.0  0.27046  0.07634  0.40793  1.0000
  C   C19       1.0  0.42374  0.77042  0.15797  1.0000
  C   C20       1.0  0.72955  0.92366  0.90793  1.0000
  C   C21       1.0  0.07634  0.27046  0.59207  1.0000
  C   C22       1.0  0.22958  0.57627  0.34203  1.0000
  C   C23       1.0  0.92366  0.72955  0.09207  1.0000
  C   C24       1.0  0.77042  0.42373  0.84203  1.0000
  C   C25       1.0  0.50941  0.12971  0.70825  1.0000
  C   C26       1.0  0.37036  0.00940  0.45818  1.0000
  C   C27       1.0  0.49059  0.87029  0.20825  1.0000
  C   C28       1.0  0.62964  0.99059  0.95818  1.0000
  C   C29       1.0  0.00940  0.37036  0.54182  1.0000
  C   C30       1.0  0.12971  0.50942  0.29175  1.0000
  C   C31       1.0  0.99059  0.62964  0.04182  1.0000
  C   C32       1.0  0.87029  0.49058  0.79175  1.0000
  C   C33       1.0  0.62801  0.70908  0.65513  1.0000
  C   C34       1.0  0.79101  0.12790  0.40508  1.0000
  C   C35       1.0  0.37200  0.29093  0.15513  1.0000
  C   C36       1.0  0.20899  0.87210  0.90508  1.0000
  C   C37       1.0  0.12790  0.79101  0.59492  1.0000
  C   C38       1.0  0.70908  0.62801  0.34487  1.0000
  C   C39       1.0  0.87209  0.20899  0.09493  1.0000
  C   C40       1.0  0.29092  0.37199  0.84487  1.0000
  N   N1        1.0  0.51791  0.96217  0.70582  1.0000
  N   N2        1.0  0.53789  0.01782  0.45573  1.0000
  N   N3        1.0  0.48209  0.03782  0.20582  1.0000
  N   N4        1.0  0.46212  0.98217  0.95573  1.0000
  N   N5        1.0  0.01782  0.53788  0.54427  1.0000
  N   N6        1.0  0.96217  0.51792  0.29418  1.0000
  N   N7        1.0  0.98217  0.46212  0.04427  1.0000
  N   N8        1.0  0.03782  0.48208  0.79418  1.0000
  N   N9        1.0  0.66552  0.98066  0.60271  1.0000
  N   N10       1.0  0.51939  0.16553  0.35264  1.0000
  N   N11       1.0  0.33448  0.01933  0.10271  1.0000
  N   N12       1.0  0.48061  0.83448  0.85264  1.0000
  N   N13       1.0  0.16553  0.51939  0.64735  1.0000
  N   N14       1.0  0.98066  0.66552  0.39729  1.0000
  N   N15       1.0  0.83447  0.48061  0.14736  1.0000
  N   N16       1.0  0.01934  0.33448  0.89729  1.0000
  N   N17       1.0  0.50607  0.50607  0.50000  1.0000
  N   N18       1.0  0.99401  0.00599  0.25000  1.0000
  N   N19       1.0  0.49393  0.49393  1.00000  1.0000
  N   N20       1.0  0.00598  0.99401  0.75000  1.0000
  O   O1        1.0  0.73121  0.64896  0.61393  1.0000
  O   O2        1.0  0.85125  0.23104  0.36387  1.0000
  O   O3        1.0  0.26878  0.35103  0.11393  1.0000
  O   O4        1.0  0.14876  0.76894  0.86387  1.0000
  O   O5        1.0  0.23106  0.85124  0.63613  1.0000
  O   O6        1.0  0.64897  0.73121  0.38608  1.0000
  O   O7        1.0  0.76896  0.14875  0.13613  1.0000
  O   O8        1.0  0.35104  0.26877  0.88607  1.0000
  O   O9        1.0  0.54533  0.62556  0.69776  1.0000
  O   O10       1.0  0.87443  0.04534  0.44777  1.0000
  O   O11       1.0  0.45467  0.37444  0.19775  1.0000
  O   O12       1.0  0.12557  0.95468  0.94776  1.0000
  O   O13       1.0  0.04534  0.87443  0.55223  1.0000
  O   O14       1.0  0.62555  0.54534  0.30224  1.0000
  O   O15       1.0  0.95466  0.12557  0.05223  1.0000
  O   O16       1.0  0.37444  0.45468  0.80225  1.0000
  O   O17       1.0  0.47146  0.65965  0.51337  1.0000
  O   O18       1.0  0.84041  0.97134  0.26331  1.0000
  O   O19       1.0  0.52854  0.34034  0.01337  1.0000
  O   O20       1.0  0.15959  0.02866  0.76331  1.0000
  O   O21       1.0  0.97134  0.84041  0.73669  1.0000
  O   O22       1.0  0.65965  0.47146  0.48663  1.0000
  O   O23       1.0  0.02866  0.15959  0.23669  1.0000
  O   O24       1.0  0.34034  0.52853  0.98663  1.0000
  O   O25       1.0  0.39655  0.39655  0.50000  1.0000
  O   O26       1.0  0.10353  0.89647  0.25000  1.0000
  O   O27       1.0  0.60345  0.60345  0.00000  1.0000
  O   O28       1.0  0.89647  0.10353  0.75000  1.0000
