data_image0
_chemical_formula_structural       Zn4H56C40S4N8O28
_chemical_formula_sum              "Zn4 H56 C40 S4 N8 O28"
_cell_length_a       6.73355
_cell_length_b       11.7491
_cell_length_c       19.5447
_cell_angle_alpha    90.0002
_cell_angle_beta     98.1106
_cell_angle_gamma    90.0007

_space_group_name_H-M_alt    "P 1"
_space_group_IT_number       1

loop_
  _space_group_symop_operation_xyz
  'x, y, z'

loop_
  _atom_site_type_symbol
  _atom_site_label
  _atom_site_symmetry_multiplicity
  _atom_site_fract_x
  _atom_site_fract_y
  _atom_site_fract_z
  _atom_site_occupancy
  Zn  Zn1       1.0  0.46549  0.74657  0.24517  1.0000
  Zn  Zn2       1.0  0.03451  0.24658  0.25483  1.0000
  Zn  Zn3       1.0  0.53452  0.25342  0.75482  1.0000
  Zn  Zn4       1.0  0.96548  0.75342  0.74518  1.0000
  H   H1        1.0  0.08084  0.72795  0.24312  1.0000
  H   H2        1.0  0.41915  0.22796  0.25687  1.0000
  H   H3        1.0  0.91916  0.27205  0.75687  1.0000
  H   H4        1.0  0.58083  0.77205  0.74313  1.0000
  H   H5        1.0  0.14785  0.63985  0.18703  1.0000
  H   H6        1.0  0.35215  0.13986  0.31296  1.0000
  H   H7        1.0  0.85215  0.36014  0.81296  1.0000
  H   H8        1.0  0.64785  0.86014  0.68704  1.0000
  H   H9        1.0  0.61143  0.54984  0.20203  1.0000
  H   H10       1.0  0.88854  0.04984  0.29796  1.0000
  H   H11       1.0  0.38858  0.45018  0.79794  1.0000
  H   H12       1.0  0.11141  0.95018  0.70206  1.0000
  H   H13       1.0  0.77099  0.64592  0.23999  1.0000
  H   H14       1.0  0.72899  0.14592  0.26000  1.0000
  H   H15       1.0  0.22902  0.35409  0.75999  1.0000
  H   H16       1.0  0.27097  0.85409  0.74001  1.0000
  H   H17       1.0  0.24729  0.97197  0.33683  1.0000
  H   H18       1.0  0.25271  0.47197  0.16317  1.0000
  H   H19       1.0  0.75270  0.02803  0.66318  1.0000
  H   H20       1.0  0.74730  0.52803  0.83682  1.0000
  H   H21       1.0  0.48394  0.96605  0.33437  1.0000
  H   H22       1.0  0.01606  0.46604  0.16563  1.0000
  H   H23       1.0  0.51605  0.03394  0.66563  1.0000
  H   H24       1.0  0.98395  0.53394  0.83437  1.0000
  H   H25       1.0  0.45293  0.49743  0.29250  1.0000
  H   H26       1.0  0.04707  0.99743  0.20750  1.0000
  H   H27       1.0  0.54714  0.50255  0.70749  1.0000
  H   H28       1.0  0.95282  0.00253  0.79251  1.0000
  H   H29       1.0  0.48496  0.38470  0.39799  1.0000
  H   H30       1.0  0.01505  0.88470  0.10201  1.0000
  H   H31       1.0  0.51510  0.61528  0.60200  1.0000
  H   H32       1.0  0.98487  0.11527  0.89801  1.0000
  H   H33       1.0  0.47752  0.70147  0.51211  1.0000
  H   H34       1.0  0.02251  0.20146  0.98789  1.0000
  H   H35       1.0  0.52248  0.29850  0.48788  1.0000
  H   H36       1.0  0.97758  0.79850  0.01213  1.0000
  H   H37       1.0  0.45212  0.80145  0.40139  1.0000
  H   H38       1.0  0.04790  0.30145  0.09862  1.0000
  H   H39       1.0  0.54788  0.19853  0.59861  1.0000
  H   H40       1.0  0.95218  0.69851  0.90141  1.0000
  H   H41       1.0  0.43607  0.70308  0.09648  1.0000
  H   H42       1.0  0.06393  0.20308  0.40352  1.0000
  H   H43       1.0  0.56388  0.29694  0.90352  1.0000
  H   H44       1.0  0.93609  0.79694  0.59648  1.0000
  H   H45       1.0  0.44617  0.79937  0.98580  1.0000
  H   H46       1.0  0.05382  0.29938  0.51420  1.0000
  H   H47       1.0  0.55379  0.20065  0.01420  1.0000
  H   H48       1.0  0.94621  0.70066  0.48580  1.0000
  H   H49       1.0  0.54688  0.11566  0.10141  1.0000
  H   H50       1.0  0.95314  0.61567  0.39859  1.0000
  H   H51       1.0  0.45310  0.88436  0.89859  1.0000
  H   H52       1.0  0.04690  0.38437  0.60140  1.0000
  H   H53       1.0  0.53348  0.00357  0.20683  1.0000
  H   H54       1.0  0.96654  0.50358  0.29317  1.0000
  H   H55       1.0  0.46651  0.99644  0.79317  1.0000
  H   H56       1.0  0.03347  0.49644  0.70683  1.0000
  C   C1        1.0  0.45909  0.54039  0.34222  1.0000
  C   C2        1.0  0.04092  0.04039  0.15778  1.0000
  C   C3        1.0  0.54096  0.45959  0.65777  1.0000
  C   C4        1.0  0.95902  0.95957  0.84224  1.0000
  C   C5        1.0  0.47860  0.47690  0.40276  1.0000
  C   C6        1.0  0.02140  0.97690  0.09725  1.0000
  C   C7        1.0  0.52144  0.52308  0.59724  1.0000
  C   C8        1.0  0.97855  0.02307  0.90276  1.0000
  C   C9        1.0  0.48784  0.53193  0.46693  1.0000
  C   C10       1.0  0.01216  0.03193  0.03308  1.0000
  C   C11       1.0  0.51216  0.46805  0.53307  1.0000
  C   C12       1.0  0.98784  0.96804  0.96694  1.0000
  C   C13       1.0  0.47305  0.65116  0.46517  1.0000
  C   C14       1.0  0.02697  0.15116  0.03484  1.0000
  C   C15       1.0  0.52695  0.34881  0.53482  1.0000
  C   C16       1.0  0.97308  0.84880  0.96519  1.0000
  C   C17       1.0  0.45672  0.70883  0.40253  1.0000
  C   C18       1.0  0.04329  0.20883  0.09747  1.0000
  C   C19       1.0  0.54330  0.29114  0.59746  1.0000
  C   C20       1.0  0.95674  0.79113  0.90255  1.0000
  C   C21       1.0  0.46038  0.79474  0.09524  1.0000
  C   C22       1.0  0.03963  0.29474  0.40475  1.0000
  C   C23       1.0  0.53958  0.20528  0.90475  1.0000
  C   C24       1.0  0.96039  0.70528  0.59525  1.0000
  C   C25       1.0  0.46686  0.85023  0.03292  1.0000
  C   C26       1.0  0.03313  0.35023  0.46707  1.0000
  C   C27       1.0  0.53311  0.14980  0.96708  1.0000
  C   C28       1.0  0.96688  0.64980  0.53292  1.0000
  C   C29       1.0  0.49784  0.96848  0.03260  1.0000
  C   C30       1.0  0.00217  0.46849  0.46740  1.0000
  C   C31       1.0  0.50213  0.03154  0.96740  1.0000
  C   C32       1.0  0.99787  0.53155  0.53259  1.0000
  C   C33       1.0  0.52300  0.02433  0.09664  1.0000
  C   C34       1.0  0.97701  0.52434  0.40335  1.0000
  C   C35       1.0  0.47697  0.97568  0.90336  1.0000
  C   C36       1.0  0.02301  0.47569  0.59664  1.0000
  C   C37       1.0  0.51485  0.96217  0.15657  1.0000
  C   C38       1.0  0.98516  0.46218  0.34342  1.0000
  C   C39       1.0  0.48513  0.03784  0.84343  1.0000
  C   C40       1.0  0.01486  0.53785  0.65657  1.0000
  S   S1        1.0  0.86784  0.83507  0.33246  1.0000
  S   S2        1.0  0.63215  0.33507  0.16753  1.0000
  S   S3        1.0  0.13214  0.16494  0.66754  1.0000
  S   S4        1.0  0.36786  0.66494  0.83246  1.0000
  N   N1        1.0  0.45103  0.65509  0.34138  1.0000
  N   N2        1.0  0.04898  0.15508  0.15862  1.0000
  N   N3        1.0  0.54900  0.34489  0.65861  1.0000
  N   N4        1.0  0.95101  0.84487  0.84140  1.0000
  N   N5        1.0  0.48386  0.84920  0.15650  1.0000
  N   N6        1.0  0.01616  0.34921  0.34350  1.0000
  N   N7        1.0  0.51611  0.15081  0.84350  1.0000
  N   N8        1.0  0.98387  0.65081  0.65650  1.0000
  O   O1        1.0  0.17163  0.71960  0.20695  1.0000
  O   O2        1.0  0.32837  0.21960  0.29305  1.0000
  O   O3        1.0  0.82837  0.28039  0.79305  1.0000
  O   O4        1.0  0.67162  0.78040  0.70695  1.0000
  O   O5        1.0  0.64941  0.63271  0.20598  1.0000
  O   O6        1.0  0.85057  0.13271  0.29402  1.0000
  O   O7        1.0  0.35060  0.36731  0.79401  1.0000
  O   O8        1.0  0.14939  0.86731  0.70599  1.0000
  O   O9        1.0  0.37426  0.01551  0.34549  1.0000
  O   O10       1.0  0.12573  0.51551  0.15450  1.0000
  O   O11       1.0  0.62573  0.98448  0.65451  1.0000
  O   O12       1.0  0.87427  0.48448  0.84549  1.0000
  O   O13       1.0  0.65160  0.86439  0.30296  1.0000
  O   O14       1.0  0.84839  0.36439  0.19704  1.0000
  O   O15       1.0  0.34838  0.13561  0.69704  1.0000
  O   O16       1.0  0.15162  0.63561  0.80296  1.0000
  O   O17       1.0  0.88854  0.82366  0.40719  1.0000
  O   O18       1.0  0.61148  0.32367  0.09281  1.0000
  O   O19       1.0  0.11143  0.17633  0.59281  1.0000
  O   O20       1.0  0.38856  0.67631  0.90718  1.0000
  O   O21       1.0  0.99660  0.92840  0.31025  1.0000
  O   O22       1.0  0.50340  0.42840  0.18974  1.0000
  O   O23       1.0  0.00337  0.07163  0.68976  1.0000
  O   O24       1.0  0.49663  0.57163  0.81023  1.0000
  O   O25       1.0  0.92322  0.72659  0.29907  1.0000
  O   O26       1.0  0.57676  0.22659  0.20092  1.0000
  O   O27       1.0  0.07679  0.27343  0.70092  1.0000
  O   O28       1.0  0.42320  0.77344  0.79908  1.0000
