data_image0
_chemical_formula_structural       Pr4H24C40N20O28
_chemical_formula_sum              "Pr4 H24 C40 N20 O28"
_cell_length_a       7.98373
_cell_length_b       7.98372
_cell_length_c       19.8284
_cell_angle_alpha    90
_cell_angle_beta     90
_cell_angle_gamma    90.0167

_space_group_name_H-M_alt    "P 1"
_space_group_IT_number       1

loop_
  _space_group_symop_operation_xyz
  'x, y, z'

loop_
  _atom_site_type_symbol
  _atom_site_label
  _atom_site_symmetry_multiplicity
  _atom_site_fract_x
  _atom_site_fract_y
  _atom_site_fract_z
  _atom_site_occupancy
  Pr  Pr1       1.0  0.27868  0.72133  0.25000  1.0000
  Pr  Pr2       1.0  0.77864  0.77864  0.00000  1.0000
  Pr  Pr3       1.0  0.72133  0.27867  0.75000  1.0000
  Pr  Pr4       1.0  0.22136  0.22136  0.50000  1.0000
  H   H1        1.0  0.94741  0.31767  0.99733  1.0000
  H   H2        1.0  0.18297  0.44753  0.74749  1.0000
  H   H3        1.0  0.05259  0.68233  0.49733  1.0000
  H   H4        1.0  0.81703  0.55247  0.24749  1.0000
  H   H5        1.0  0.44753  0.18297  0.25251  1.0000
  H   H6        1.0  0.31767  0.94741  0.00267  1.0000
  H   H7        1.0  0.55246  0.81703  0.75251  1.0000
  H   H8        1.0  0.68233  0.05259  0.50267  1.0000
  H   H9        1.0  0.07582  0.13544  0.08728  1.0000
  H   H10       1.0  0.36483  0.57581  0.83758  1.0000
  H   H11       1.0  0.92418  0.86456  0.58728  1.0000
  H   H12       1.0  0.63518  0.42419  0.33758  1.0000
  H   H13       1.0  0.57581  0.36483  0.16242  1.0000
  H   H14       1.0  0.13544  0.07582  0.91272  1.0000
  H   H15       1.0  0.42419  0.63518  0.66242  1.0000
  H   H16       1.0  0.86456  0.92418  0.41272  1.0000
  H   H17       1.0  0.19953  0.28283  0.18921  1.0000
  H   H18       1.0  0.21705  0.69947  0.93946  1.0000
  H   H19       1.0  0.80047  0.71717  0.68921  1.0000
  H   H20       1.0  0.78295  0.30053  0.43946  1.0000
  H   H21       1.0  0.69947  0.21705  0.06054  1.0000
  H   H22       1.0  0.28283  0.19953  0.81079  1.0000
  H   H23       1.0  0.30053  0.78295  0.56054  1.0000
  H   H24       1.0  0.71717  0.80047  0.31079  1.0000
  C   C1        1.0  0.10267  0.60508  0.09574  1.0000
  C   C2        1.0  0.89519  0.60273  0.84568  1.0000
  C   C3        1.0  0.89733  0.39492  0.59574  1.0000
  C   C4        1.0  0.10481  0.39727  0.34568  1.0000
  C   C5        1.0  0.60273  0.89519  0.15432  1.0000
  C   C6        1.0  0.60508  0.10267  0.90426  1.0000
  C   C7        1.0  0.39727  0.10481  0.65432  1.0000
  C   C8        1.0  0.39492  0.89733  0.40426  1.0000
  C   C9        1.0  0.01127  0.37203  0.04069  1.0000
  C   C10       1.0  0.12842  0.51134  0.79082  1.0000
  C   C11       1.0  0.98873  0.62796  0.54069  1.0000
  C   C12       1.0  0.87158  0.48866  0.29082  1.0000
  C   C13       1.0  0.51134  0.12842  0.20918  1.0000
  C   C14       1.0  0.37204  0.01127  0.95931  1.0000
  C   C15       1.0  0.48866  0.87158  0.70918  1.0000
  C   C16       1.0  0.62797  0.98873  0.45931  1.0000
  C   C17       1.0  0.08110  0.27161  0.09078  1.0000
  C   C18       1.0  0.22866  0.58109  0.84102  1.0000
  C   C19       1.0  0.91890  0.72838  0.59078  1.0000
  C   C20       1.0  0.77135  0.41891  0.34102  1.0000
  C   C21       1.0  0.58109  0.22865  0.15898  1.0000
  C   C22       1.0  0.27162  0.08110  0.90922  1.0000
  C   C23       1.0  0.41890  0.77135  0.65898  1.0000
  C   C24       1.0  0.72838  0.91890  0.40922  1.0000
  C   C25       1.0  0.15351  0.35245  0.14570  1.0000
  C   C26       1.0  0.14762  0.65347  0.89588  1.0000
  C   C27       1.0  0.84649  0.64755  0.64569  1.0000
  C   C28       1.0  0.85238  0.34653  0.39589  1.0000
  C   C29       1.0  0.65347  0.14762  0.10411  1.0000
  C   C30       1.0  0.35245  0.15351  0.85431  1.0000
  C   C31       1.0  0.34653  0.85238  0.60411  1.0000
  C   C32       1.0  0.64755  0.84649  0.35431  1.0000
  C   C33       1.0  0.12698  0.79263  0.09527  1.0000
  C   C34       1.0  0.70767  0.62706  0.84514  1.0000
  C   C35       1.0  0.87302  0.20737  0.59527  1.0000
  C   C36       1.0  0.29233  0.37294  0.34514  1.0000
  C   C37       1.0  0.62706  0.70767  0.15486  1.0000
  C   C38       1.0  0.79263  0.12698  0.90474  1.0000
  C   C39       1.0  0.37294  0.29233  0.65486  1.0000
  C   C40       1.0  0.20737  0.87302  0.40474  1.0000
  N   N1        1.0  0.16868  0.52023  0.14760  1.0000
  N   N2        1.0  0.97984  0.66862  0.89764  1.0000
  N   N3        1.0  0.83133  0.47977  0.64760  1.0000
  N   N4        1.0  0.02016  0.33137  0.39764  1.0000
  N   N5        1.0  0.66863  0.97984  0.10236  1.0000
  N   N6        1.0  0.52023  0.16868  0.85240  1.0000
  N   N7        1.0  0.33137  0.02017  0.60236  1.0000
  N   N8        1.0  0.47976  0.83133  0.35240  1.0000
  N   N9        1.0  0.01730  0.53969  0.04403  1.0000
  N   N10       1.0  0.96075  0.51741  0.79401  1.0000
  N   N11       1.0  0.98270  0.46031  0.54403  1.0000
  N   N12       1.0  0.03925  0.48259  0.29401  1.0000
  N   N13       1.0  0.51741  0.96075  0.20599  1.0000
  N   N14       1.0  0.53969  0.01730  0.95597  1.0000
  N   N15       1.0  0.48259  0.03925  0.70599  1.0000
  N   N16       1.0  0.46031  0.98270  0.45597  1.0000
  N   N17       1.0  0.00989  0.99011  0.25000  1.0000
  N   N18       1.0  0.50974  0.50974  0.00000  1.0000
  N   N19       1.0  0.99011  0.00989  0.75000  1.0000
  N   N20       1.0  0.49026  0.49026  0.50000  1.0000
  O   O1        1.0  0.23219  0.85321  0.13610  1.0000
  O   O2        1.0  0.64705  0.73205  0.88605  1.0000
  O   O3        1.0  0.76781  0.14679  0.63610  1.0000
  O   O4        1.0  0.35295  0.26795  0.38605  1.0000
  O   O5        1.0  0.73205  0.64704  0.11395  1.0000
  O   O6        1.0  0.85320  0.23219  0.86390  1.0000
  O   O7        1.0  0.26795  0.35296  0.61395  1.0000
  O   O8        1.0  0.14679  0.76781  0.36390  1.0000
  O   O9        1.0  0.04241  0.87578  0.05260  1.0000
  O   O10       1.0  0.62453  0.54267  0.80239  1.0000
  O   O11       1.0  0.95759  0.12422  0.55260  1.0000
  O   O12       1.0  0.37547  0.45733  0.30239  1.0000
  O   O13       1.0  0.54267  0.62453  0.19761  1.0000
  O   O14       1.0  0.87578  0.04241  0.94740  1.0000
  O   O15       1.0  0.45733  0.37547  0.69761  1.0000
  O   O16       1.0  0.12422  0.95759  0.44740  1.0000
  O   O17       1.0  0.16375  0.02474  0.26330  1.0000
  O   O18       1.0  0.47514  0.66359  0.01326  1.0000
  O   O19       1.0  0.83625  0.97526  0.76330  1.0000
  O   O20       1.0  0.52486  0.33641  0.51326  1.0000
  O   O21       1.0  0.66359  0.47514  0.98674  1.0000
  O   O22       1.0  0.02474  0.16375  0.73670  1.0000
  O   O23       1.0  0.33641  0.52486  0.48674  1.0000
  O   O24       1.0  0.97526  0.83625  0.23670  1.0000
  O   O25       1.0  0.90033  0.09967  0.25000  1.0000
  O   O26       1.0  0.40015  0.40015  0.00000  1.0000
  O   O27       1.0  0.09967  0.90033  0.75000  1.0000
  O   O28       1.0  0.59985  0.59985  0.50000  1.0000
