data_image0
_chemical_formula_structural       Zn2H32C40N12O8
_chemical_formula_sum              "Zn2 H32 C40 N12 O8"
_cell_length_a       10.2121
_cell_length_b       10.4192
_cell_length_c       11.6613
_cell_angle_alpha    96.8473
_cell_angle_beta     98.3081
_cell_angle_gamma    119.321

_space_group_name_H-M_alt    "P 1"
_space_group_IT_number       1

loop_
  _space_group_symop_operation_xyz
  'x, y, z'

loop_
  _atom_site_type_symbol
  _atom_site_label
  _atom_site_symmetry_multiplicity
  _atom_site_fract_x
  _atom_site_fract_y
  _atom_site_fract_z
  _atom_site_occupancy
  Zn  Zn1       1.0  0.71135  0.76628  0.14023  1.0000
  Zn  Zn2       1.0  0.28865  0.23372  0.85977  1.0000
  H   H1        1.0  0.24964  0.40855  0.17036  1.0000
  H   H2        1.0  0.75035  0.59145  0.82964  1.0000
  H   H3        1.0  0.81103  0.38343  0.13775  1.0000
  H   H4        1.0  0.18897  0.61658  0.86225  1.0000
  H   H5        1.0  0.96523  0.25819  0.15293  1.0000
  H   H6        1.0  0.03476  0.74181  0.84708  1.0000
  H   H7        1.0  0.22443  0.80651  0.15788  1.0000
  H   H8        1.0  0.77557  0.19350  0.84212  1.0000
  H   H9        1.0  0.68523  0.97708  0.35229  1.0000
  H   H10       1.0  0.31477  0.02292  0.64771  1.0000
  H   H11       1.0  0.08290  0.00530  0.26529  1.0000
  H   H12       1.0  0.91710  0.99471  0.73471  1.0000
  H   H13       1.0  0.03359  0.22581  0.61587  1.0000
  H   H14       1.0  0.96641  0.77419  0.38413  1.0000
  H   H15       1.0  0.83146  0.15215  0.57525  1.0000
  H   H16       1.0  0.16854  0.84785  0.42475  1.0000
  H   H17       1.0  0.43357  0.58782  0.90808  1.0000
  H   H18       1.0  0.56643  0.41218  0.09192  1.0000
  H   H19       1.0  0.86202  0.98962  0.94723  1.0000
  H   H20       1.0  0.13798  0.01037  0.05277  1.0000
  H   H21       1.0  0.40186  0.73983  0.64445  1.0000
  H   H22       1.0  0.59814  0.26015  0.35555  1.0000
  H   H23       1.0  0.31364  0.57228  0.70052  1.0000
  H   H24       1.0  0.68636  0.42772  0.29948  1.0000
  H   H25       1.0  0.38612  0.37655  0.65871  1.0000
  H   H26       1.0  0.61388  0.62344  0.34129  1.0000
  H   H27       1.0  0.54929  0.75693  0.49313  1.0000
  H   H28       1.0  0.45072  0.24307  0.50687  1.0000
  H   H29       1.0  0.79184  0.35850  0.60171  1.0000
  H   H30       1.0  0.20816  0.64150  0.39829  1.0000
  H   H31       1.0  0.15608  0.39426  0.43609  1.0000
  H   H32       1.0  0.84392  0.60574  0.56391  1.0000
  C   C1        1.0  0.42565  0.71102  0.17817  1.0000
  C   C2        1.0  0.57435  0.28898  0.82183  1.0000
  C   C3        1.0  0.25447  0.61689  0.16662  1.0000
  C   C4        1.0  0.74552  0.38311  0.83338  1.0000
  C   C5        1.0  0.18087  0.46199  0.16435  1.0000
  C   C6        1.0  0.81912  0.53802  0.83565  1.0000
  C   C7        1.0  0.91777  0.68094  0.13443  1.0000
  C   C8        1.0  0.08223  0.31906  0.86557  1.0000
  C   C9        1.0  0.00735  0.60288  0.14653  1.0000
  C   C10       1.0  0.99264  0.39712  0.85347  1.0000
  C   C11       1.0  0.93546  0.44859  0.14660  1.0000
  C   C12       1.0  0.06454  0.55141  0.85340  1.0000
  C   C13       1.0  0.02198  0.37863  0.15504  1.0000
  C   C14       1.0  0.97801  0.62138  0.84497  1.0000
  C   C15       1.0  0.16704  0.68639  0.15722  1.0000
  C   C16       1.0  0.83296  0.31361  0.84278  1.0000
  C   C17       1.0  0.80461  0.00858  0.35681  1.0000
  C   C18       1.0  0.19539  0.99143  0.64319  1.0000
  C   C19       1.0  0.00828  0.02473  0.31280  1.0000
  C   C20       1.0  0.99172  0.97528  0.68720  1.0000
  C   C21       1.0  0.93944  0.21023  0.54593  1.0000
  C   C22       1.0  0.06056  0.78977  0.45407  1.0000
  C   C23       1.0  0.96997  0.35980  0.52079  1.0000
  C   C24       1.0  0.03003  0.64020  0.47921  1.0000
  C   C25       1.0  0.88249  0.41982  0.55614  1.0000
  C   C26       1.0  0.11751  0.58018  0.44386  1.0000
  C   C27       1.0  0.08763  0.44053  0.46425  1.0000
  C   C28       1.0  0.91237  0.55948  0.53575  1.0000
  C   C29       1.0  0.53140  0.68747  0.89343  1.0000
  C   C30       1.0  0.46860  0.31252  0.10657  1.0000
  C   C31       1.0  0.74816  0.89030  0.91029  1.0000
  C   C32       1.0  0.25184  0.10970  0.08971  1.0000
  C   C33       1.0  0.41968  0.65391  0.67740  1.0000
  C   C34       1.0  0.58032  0.34608  0.32260  1.0000
  C   C35       1.0  0.46242  0.57516  0.58574  1.0000
  C   C36       1.0  0.53759  0.42483  0.41427  1.0000
  C   C37       1.0  0.43543  0.43044  0.58876  1.0000
  C   C38       1.0  0.56457  0.56955  0.41125  1.0000
  C   C39       1.0  0.52710  0.64386  0.49607  1.0000
  C   C40       1.0  0.47291  0.35613  0.50393  1.0000
  N   N1        1.0  0.66398  0.78758  0.97236  1.0000
  N   N2        1.0  0.33602  0.21242  0.02764  1.0000
  N   N3        1.0  0.67469  0.85883  0.79798  1.0000
  N   N4        1.0  0.32531  0.14116  0.20202  1.0000
  N   N5        1.0  0.53767  0.72978  0.78925  1.0000
  N   N6        1.0  0.46233  0.27021  0.21075  1.0000
  N   N7        1.0  0.85065  0.95058  0.27358  1.0000
  N   N8        1.0  0.14935  0.04943  0.72641  1.0000
  N   N9        1.0  0.06041  0.12334  0.41523  1.0000
  N   N10       1.0  0.93959  0.87667  0.58477  1.0000
  N   N11       1.0  0.92940  0.11069  0.44170  1.0000
  N   N12       1.0  0.07060  0.88931  0.55830  1.0000
  O   O1        1.0  0.49365  0.63678  0.15307  1.0000
  O   O2        1.0  0.50635  0.36322  0.84693  1.0000
  O   O3        1.0  0.78391  0.61848  0.16198  1.0000
  O   O4        1.0  0.21609  0.38152  0.83802  1.0000
  O   O5        1.0  0.97288  0.80393  0.10162  1.0000
  O   O6        1.0  0.02712  0.19607  0.89837  1.0000
  O   O7        1.0  0.49299  0.85179  0.20963  1.0000
  O   O8        1.0  0.50701  0.14821  0.79037  1.0000
