data_image0
_chemical_formula_structural       Cd4H52C50N12O20
_chemical_formula_sum              "Cd4 H52 C50 N12 O20"
_cell_length_a       10.1885
_cell_length_b       12.1123
_cell_length_c       12.6418
_cell_angle_alpha    98.958
_cell_angle_beta     90.6396
_cell_angle_gamma    114.045

_space_group_name_H-M_alt    "P 1"
_space_group_IT_number       1

loop_
  _space_group_symop_operation_xyz
  'x, y, z'

loop_
  _atom_site_type_symbol
  _atom_site_label
  _atom_site_symmetry_multiplicity
  _atom_site_fract_x
  _atom_site_fract_y
  _atom_site_fract_z
  _atom_site_occupancy
  Cd  Cd1       1.0  0.71931  0.81591  0.05120  1.0000
  Cd  Cd2       1.0  0.28069  0.18409  0.94880  1.0000
  Cd  Cd3       1.0  0.55485  0.00336  0.23130  1.0000
  Cd  Cd4       1.0  0.44515  0.99664  0.76870  1.0000
  H   H1        1.0  0.75607  0.99283  0.90463  1.0000
  H   H2        1.0  0.24393  0.00717  0.09537  1.0000
  H   H3        1.0  0.89405  0.06938  0.98401  1.0000
  H   H4        1.0  0.10595  0.93062  0.01599  1.0000
  H   H5        1.0  0.59893  0.13355  0.04580  1.0000
  H   H6        1.0  0.40107  0.86645  0.95420  1.0000
  H   H7        1.0  0.70966  0.07706  0.06283  1.0000
  H   H8        1.0  0.29034  0.92294  0.93717  1.0000
  H   H9        1.0  0.20568  0.80698  0.05705  1.0000
  H   H10       1.0  0.79433  0.19302  0.94295  1.0000
  H   H11       1.0  0.85401  0.50365  0.14879  1.0000
  H   H12       1.0  0.14599  0.49635  0.85122  1.0000
  H   H13       1.0  0.27939  0.50883  0.14674  1.0000
  H   H14       1.0  0.72061  0.49117  0.85326  1.0000
  H   H15       1.0  0.00714  0.38622  0.28144  1.0000
  H   H16       1.0  0.99286  0.61378  0.71855  1.0000
  H   H17       1.0  0.07483  0.32207  0.17128  1.0000
  H   H18       1.0  0.92518  0.67793  0.82872  1.0000
  H   H19       1.0  0.89586  0.30996  0.15973  1.0000
  H   H20       1.0  0.10415  0.69004  0.84028  1.0000
  H   H21       1.0  0.03417  0.97870  0.22291  1.0000
  H   H22       1.0  0.96583  0.02130  0.77708  1.0000
  H   H23       1.0  0.77946  0.84257  0.47991  1.0000
  H   H24       1.0  0.22054  0.15744  0.52009  1.0000
  H   H25       1.0  0.18900  0.82101  0.45048  1.0000
  H   H26       1.0  0.81100  0.17898  0.54952  1.0000
  H   H27       1.0  0.85308  0.74412  0.60418  1.0000
  H   H28       1.0  0.14692  0.25587  0.39582  1.0000
  H   H29       1.0  0.04311  0.80530  0.63460  1.0000
  H   H30       1.0  0.95689  0.19470  0.36539  1.0000
  H   H31       1.0  0.95256  0.66238  0.54722  1.0000
  H   H32       1.0  0.04744  0.33762  0.45278  1.0000
  H   H33       1.0  0.49215  0.10223  0.49210  1.0000
  H   H34       1.0  0.50785  0.89777  0.50790  1.0000
  H   H35       1.0  0.75691  0.32951  0.28955  1.0000
  H   H36       1.0  0.24309  0.67049  0.71045  1.0000
  H   H37       1.0  0.68274  0.41389  0.65866  1.0000
  H   H38       1.0  0.31726  0.58611  0.34134  1.0000
  H   H39       1.0  0.54285  0.26520  0.65923  1.0000
  H   H40       1.0  0.45715  0.73480  0.34078  1.0000
  H   H41       1.0  0.38248  0.31934  0.53927  1.0000
  H   H42       1.0  0.61752  0.68066  0.46073  1.0000
  H   H43       1.0  0.52067  0.46774  0.55121  1.0000
  H   H44       1.0  0.47933  0.53226  0.44880  1.0000
  H   H45       1.0  0.31094  0.44407  0.66393  1.0000
  H   H46       1.0  0.68906  0.55593  0.33607  1.0000
  H   H47       1.0  0.37318  0.36658  0.74722  1.0000
  H   H48       1.0  0.62682  0.63342  0.25279  1.0000
  H   H49       1.0  0.45943  0.53272  0.91575  1.0000
  H   H50       1.0  0.54057  0.46728  0.08425  1.0000
  H   H51       1.0  0.74990  0.81860  0.77223  1.0000
  H   H52       1.0  0.25009  0.18140  0.22777  1.0000
  C   C1        1.0  0.25908  0.66549  0.10263  1.0000
  C   C2        1.0  0.74092  0.33451  0.89737  1.0000
  C   C3        1.0  0.16483  0.71893  0.08337  1.0000
  C   C4        1.0  0.83517  0.28107  0.91663  1.0000
  C   C5        1.0  0.01887  0.66011  0.09956  1.0000
  C   C6        1.0  0.98113  0.33989  0.90044  1.0000
  C   C7        1.0  0.96820  0.54762  0.13614  1.0000
  C   C8        1.0  0.03180  0.45238  0.86386  1.0000
  C   C9        1.0  0.06013  0.49117  0.15377  1.0000
  C   C10       1.0  0.93987  0.50883  0.84623  1.0000
  C   C11       1.0  0.20527  0.55102  0.13549  1.0000
  C   C12       1.0  0.79474  0.44898  0.86451  1.0000
  C   C13       1.0  0.41686  0.72993  0.09228  1.0000
  C   C14       1.0  0.58315  0.27007  0.90772  1.0000
  C   C15       1.0  0.91589  0.71558  0.07955  1.0000
  C   C16       1.0  0.08411  0.28442  0.92045  1.0000
  C   C17       1.0  0.00631  0.37086  0.19329  1.0000
  C   C18       1.0  0.99370  0.62915  0.80671  1.0000
  C   C19       1.0  0.12722  0.90475  0.33324  1.0000
  C   C20       1.0  0.87278  0.09525  0.66676  1.0000
  C   C21       1.0  0.01958  0.93513  0.29357  1.0000
  C   C22       1.0  0.98042  0.06487  0.70643  1.0000
  C   C23       1.0  0.89248  0.90894  0.34537  1.0000
  C   C24       1.0  0.10752  0.09106  0.65463  1.0000
  C   C25       1.0  0.87555  0.85502  0.43756  1.0000
  C   C26       1.0  0.12445  0.14498  0.56244  1.0000
  C   C27       1.0  0.97849  0.81907  0.47550  1.0000
  C   C28       1.0  0.02151  0.18093  0.52450  1.0000
  C   C29       1.0  0.10437  0.84492  0.42206  1.0000
  C   C30       1.0  0.89563  0.15508  0.57794  1.0000
  C   C31       1.0  0.26874  0.93767  0.28497  1.0000
  C   C32       1.0  0.73126  0.06233  0.71503  1.0000
  C   C33       1.0  0.77267  0.93652  0.30539  1.0000
  C   C34       1.0  0.22733  0.06348  0.69461  1.0000
  C   C35       1.0  0.95552  0.75482  0.57069  1.0000
  C   C36       1.0  0.04448  0.24518  0.42931  1.0000
  C   C37       1.0  0.56539  0.17958  0.45842  1.0000
  C   C38       1.0  0.43461  0.82042  0.54158  1.0000
  C   C39       1.0  0.70003  0.29848  0.35856  1.0000
  C   C40       1.0  0.29997  0.70152  0.64144  1.0000
  C   C41       1.0  0.58362  0.34200  0.61511  1.0000
  C   C42       1.0  0.41638  0.65801  0.38489  1.0000
  C   C43       1.0  0.47104  0.39062  0.59371  1.0000
  C   C44       1.0  0.52895  0.60938  0.40629  1.0000
  C   C45       1.0  0.40618  0.43179  0.69125  1.0000
  C   C46       1.0  0.59382  0.56821  0.30875  1.0000
  C   C47       1.0  0.52218  0.58839  0.85955  1.0000
  C   C48       1.0  0.47782  0.41161  0.14045  1.0000
  C   C49       1.0  0.66921  0.73038  0.78389  1.0000
  C   C50       1.0  0.33079  0.26962  0.21611  1.0000
  N   N1        1.0  0.61416  0.17821  0.36058  1.0000
  N   N2        1.0  0.38583  0.82179  0.63942  1.0000
  N   N3        1.0  0.62156  0.29578  0.51187  1.0000
  N   N4        1.0  0.37844  0.70421  0.48813  1.0000
  N   N5        1.0  0.70742  0.37367  0.44919  1.0000
  N   N6        1.0  0.29258  0.62633  0.55081  1.0000
  N   N7        1.0  0.50808  0.54936  0.75295  1.0000
  N   N8        1.0  0.49191  0.45064  0.24705  1.0000
  N   N9        1.0  0.60067  0.63909  0.70307  1.0000
  N   N10       1.0  0.39933  0.36091  0.29693  1.0000
  N   N11       1.0  0.62426  0.70374  0.88188  1.0000
  N   N12       1.0  0.37574  0.29626  0.11812  1.0000
  O   O1        1.0  0.46859  0.83919  0.06816  1.0000
  O   O2        1.0  0.53141  0.16081  0.93184  1.0000
  O   O3        1.0  0.49812  0.67728  0.10885  1.0000
  O   O4        1.0  0.50188  0.32272  0.89115  1.0000
  O   O5        1.0  0.95630  0.81215  0.03551  1.0000
  O   O6        1.0  0.04370  0.18785  0.96449  1.0000
  O   O7        1.0  0.78805  0.66550  0.10669  1.0000
  O   O8        1.0  0.21195  0.33450  0.89331  1.0000
  O   O9        1.0  0.30246  0.00900  0.21539  1.0000
  O   O10       1.0  0.69755  0.99100  0.78461  1.0000
  O   O11       1.0  0.35624  0.89704  0.31838  1.0000
  O   O12       1.0  0.64376  0.10296  0.68162  1.0000
  O   O13       1.0  0.77104  0.95992  0.20859  1.0000
  O   O14       1.0  0.22896  0.04008  0.79141  1.0000
  O   O15       1.0  0.67487  0.93705  0.36569  1.0000
  O   O16       1.0  0.32513  0.06295  0.63431  1.0000
  O   O17       1.0  0.79438  0.00225  0.98069  1.0000
  O   O18       1.0  0.20562  0.99775  0.01931  1.0000
  O   O19       1.0  0.65615  0.12080  0.10354  1.0000
  O   O20       1.0  0.34385  0.87920  0.89646  1.0000
