data_image0
_chemical_formula_structural       K4H20C56N16O4
_chemical_formula_sum              "K4 H20 C56 N16 O4"
_cell_length_a       7.02575
_cell_length_b       11.411
_cell_length_c       16.2416
_cell_angle_alpha    90.0005
_cell_angle_beta     90.0006
_cell_angle_gamma    98.7549

_space_group_name_H-M_alt    "P 1"
_space_group_IT_number       1

loop_
  _space_group_symop_operation_xyz
  'x, y, z'

loop_
  _atom_site_type_symbol
  _atom_site_label
  _atom_site_symmetry_multiplicity
  _atom_site_fract_x
  _atom_site_fract_y
  _atom_site_fract_z
  _atom_site_occupancy
  K   K1        1.0  0.07641  0.49624  0.27019  1.0000
  K   K2        1.0  0.42364  0.50375  0.77018  1.0000
  K   K3        1.0  0.92363  0.50375  0.72982  1.0000
  K   K4        1.0  0.57641  0.49624  0.22981  1.0000
  H   H1        1.0  0.82443  0.16751  0.28843  1.0000
  H   H2        1.0  0.67556  0.83250  0.78843  1.0000
  H   H3        1.0  0.17557  0.83249  0.71157  1.0000
  H   H4        1.0  0.32443  0.16751  0.21158  1.0000
  H   H5        1.0  0.86164  0.96547  0.33462  1.0000
  H   H6        1.0  0.63836  0.03453  0.83462  1.0000
  H   H7        1.0  0.13837  0.03452  0.66538  1.0000
  H   H8        1.0  0.36163  0.96547  0.16538  1.0000
  H   H9        1.0  0.89345  0.80803  0.23099  1.0000
  H   H10       1.0  0.60657  0.19198  0.73098  1.0000
  H   H11       1.0  0.10657  0.19197  0.76901  1.0000
  H   H12       1.0  0.39344  0.80803  0.26902  1.0000
  H   H13       1.0  0.89070  0.85468  0.08105  1.0000
  H   H14       1.0  0.60934  0.14534  0.58105  1.0000
  H   H15       1.0  0.10933  0.14532  0.91895  1.0000
  H   H16       1.0  0.39070  0.85468  0.41896  1.0000
  H   H17       1.0  0.85890  0.05614  0.03463  1.0000
  H   H18       1.0  0.64113  0.94388  0.53462  1.0000
  H   H19       1.0  0.14112  0.94386  0.96537  1.0000
  H   H20       1.0  0.35889  0.05614  0.46538  1.0000
  C   C1        1.0  0.83160  0.27640  0.04134  1.0000
  C   C2        1.0  0.66838  0.72360  0.54134  1.0000
  C   C3        1.0  0.16837  0.72360  0.95866  1.0000
  C   C4        1.0  0.33160  0.27640  0.45866  1.0000
  C   C5        1.0  0.81673  0.24450  0.13266  1.0000
  C   C6        1.0  0.68326  0.75551  0.63266  1.0000
  C   C7        1.0  0.18325  0.75550  0.86734  1.0000
  C   C8        1.0  0.31673  0.24449  0.36734  1.0000
  C   C9        1.0  0.84060  0.12535  0.15874  1.0000
  C   C10       1.0  0.65940  0.87466  0.65874  1.0000
  C   C11       1.0  0.15939  0.87465  0.84125  1.0000
  C   C12       1.0  0.34061  0.12534  0.34126  1.0000
  C   C13       1.0  0.84085  0.09869  0.24359  1.0000
  C   C14       1.0  0.65916  0.90132  0.74359  1.0000
  C   C15       1.0  0.15915  0.90131  0.75640  1.0000
  C   C16       1.0  0.34085  0.09869  0.25641  1.0000
  C   C17       1.0  0.86079  0.98518  0.26900  1.0000
  C   C18       1.0  0.63921  0.01483  0.76899  1.0000
  C   C19       1.0  0.13922  0.01482  0.73100  1.0000
  C   C20       1.0  0.36079  0.98517  0.23101  1.0000
  C   C21       1.0  0.87898  0.89725  0.21056  1.0000
  C   C22       1.0  0.62104  0.10277  0.71055  1.0000
  C   C23       1.0  0.12103  0.10275  0.78944  1.0000
  C   C24       1.0  0.37898  0.89724  0.28945  1.0000
  C   C25       1.0  0.87850  0.92320  0.12652  1.0000
  C   C26       1.0  0.62153  0.07681  0.62652  1.0000
  C   C27       1.0  0.12152  0.07680  0.87348  1.0000
  C   C28       1.0  0.37850  0.92320  0.37349  1.0000
  C   C29       1.0  0.86081  0.03697  0.10030  1.0000
  C   C30       1.0  0.63921  0.96304  0.60030  1.0000
  C   C31       1.0  0.13920  0.96303  0.89970  1.0000
  C   C32       1.0  0.36081  0.03697  0.39971  1.0000
  C   C33       1.0  0.66553  0.24732  0.99334  1.0000
  C   C34       1.0  0.83445  0.75268  0.49334  1.0000
  C   C35       1.0  0.33444  0.75268  0.00666  1.0000
  C   C36       1.0  0.16554  0.24733  0.50665  1.0000
  C   C37       1.0  0.01179  0.33810  0.01629  1.0000
  C   C38       1.0  0.48820  0.66190  0.51628  1.0000
  C   C39       1.0  0.98819  0.66189  0.98372  1.0000
  C   C40       1.0  0.51179  0.33810  0.48371  1.0000
  C   C41       1.0  0.16074  0.36759  0.07446  1.0000
  C   C42       1.0  0.33925  0.63241  0.57445  1.0000
  C   C43       1.0  0.83924  0.63241  0.92555  1.0000
  C   C44       1.0  0.66075  0.36759  0.42554  1.0000
  C   C45       1.0  0.05980  0.37184  0.93453  1.0000
  C   C46       1.0  0.44018  0.62815  0.43452  1.0000
  C   C47       1.0  0.94018  0.62816  0.06548  1.0000
  C   C48       1.0  0.55981  0.37184  0.56547  1.0000
  C   C49       1.0  0.50004  0.17520  0.02546  1.0000
  C   C50       1.0  0.99995  0.82480  0.52545  1.0000
  C   C51       1.0  0.49993  0.82480  0.97455  1.0000
  C   C52       1.0  0.00004  0.17521  0.47454  1.0000
  C   C53       1.0  0.64521  0.29019  0.91267  1.0000
  C   C54       1.0  0.85477  0.70982  0.41267  1.0000
  C   C55       1.0  0.35474  0.70982  0.08734  1.0000
  C   C56       1.0  0.14522  0.29019  0.58733  1.0000
  N   N1        1.0  0.10703  0.39864  0.86707  1.0000
  N   N2        1.0  0.39297  0.60135  0.36706  1.0000
  N   N3        1.0  0.89297  0.60136  0.13294  1.0000
  N   N4        1.0  0.60703  0.39864  0.63293  1.0000
  N   N5        1.0  0.28349  0.39357  0.12287  1.0000
  N   N6        1.0  0.21651  0.60643  0.62287  1.0000
  N   N7        1.0  0.71650  0.60643  0.87712  1.0000
  N   N8        1.0  0.78349  0.39357  0.37713  1.0000
  N   N9        1.0  0.36144  0.11550  0.05010  1.0000
  N   N10       1.0  0.13856  0.88449  0.55009  1.0000
  N   N11       1.0  0.63854  0.88448  0.94990  1.0000
  N   N12       1.0  0.86144  0.11551  0.44990  1.0000
  N   N13       1.0  0.62133  0.32775  0.84698  1.0000
  N   N14       1.0  0.87864  0.67225  0.34698  1.0000
  N   N15       1.0  0.37864  0.67225  0.15302  1.0000
  N   N16       1.0  0.12135  0.32775  0.65302  1.0000
  O   O1        1.0  0.78902  0.32489  0.18060  1.0000
  O   O2        1.0  0.71098  0.67512  0.68059  1.0000
  O   O3        1.0  0.21097  0.67510  0.81941  1.0000
  O   O4        1.0  0.28902  0.32488  0.31940  1.0000
