data_image0
_chemical_formula_structural       Rb4H28C60N16O4
_chemical_formula_sum              "Rb4 H28 C60 N16 O4"
_cell_length_a       8.374
_cell_length_b       9.93541
_cell_length_c       17.0498
_cell_angle_alpha    89.9999
_cell_angle_beta     96.556
_cell_angle_gamma    90.0001

_space_group_name_H-M_alt    "P 1"
_space_group_IT_number       1

loop_
  _space_group_symop_operation_xyz
  'x, y, z'

loop_
  _atom_site_type_symbol
  _atom_site_label
  _atom_site_symmetry_multiplicity
  _atom_site_fract_x
  _atom_site_fract_y
  _atom_site_fract_z
  _atom_site_occupancy
  Rb  Rb1       1.0  0.86345  0.12999  0.58343  1.0000
  Rb  Rb2       1.0  0.63655  0.62998  0.41657  1.0000
  Rb  Rb3       1.0  0.13654  0.87002  0.41657  1.0000
  Rb  Rb4       1.0  0.36345  0.37002  0.58343  1.0000
  H   H1        1.0  0.48470  0.92290  0.83713  1.0000
  H   H2        1.0  0.01530  0.42291  0.16287  1.0000
  H   H3        1.0  0.51530  0.07710  0.16287  1.0000
  H   H4        1.0  0.98470  0.57709  0.83713  1.0000
  H   H5        1.0  0.64807  0.03887  0.94626  1.0000
  H   H6        1.0  0.85193  0.53888  0.05374  1.0000
  H   H7        1.0  0.35193  0.96113  0.05374  1.0000
  H   H8        1.0  0.14806  0.46112  0.94626  1.0000
  H   H9        1.0  0.43250  0.41778  0.87057  1.0000
  H   H10       1.0  0.06750  0.91779  0.12944  1.0000
  H   H11       1.0  0.56750  0.58222  0.12943  1.0000
  H   H12       1.0  0.93249  0.08221  0.87056  1.0000
  H   H13       1.0  0.25945  0.30144  0.76459  1.0000
  H   H14       1.0  0.24055  0.80144  0.23541  1.0000
  H   H15       1.0  0.74055  0.69856  0.23541  1.0000
  H   H16       1.0  0.75945  0.19856  0.76459  1.0000
  H   H17       1.0  0.70065  0.40217  0.95874  1.0000
  H   H18       1.0  0.79935  0.90217  0.04126  1.0000
  H   H19       1.0  0.29935  0.59783  0.04126  1.0000
  H   H20       1.0  0.20065  0.09783  0.95874  1.0000
  H   H21       1.0  0.75436  0.24576  0.00684  1.0000
  H   H22       1.0  0.74564  0.74576  0.99316  1.0000
  H   H23       1.0  0.24564  0.75424  0.99316  1.0000
  H   H24       1.0  0.25436  0.25424  0.00684  1.0000
  H   H25       1.0  0.58113  0.33487  0.02879  1.0000
  H   H26       1.0  0.91887  0.83488  0.97121  1.0000
  H   H27       1.0  0.41887  0.66513  0.97121  1.0000
  H   H28       1.0  0.08113  0.16512  0.02879  1.0000
  C   C1        1.0  0.29865  0.89780  0.70219  1.0000
  C   C2        1.0  0.20136  0.39780  0.29781  1.0000
  C   C3        1.0  0.70135  0.10220  0.29781  1.0000
  C   C4        1.0  0.79864  0.60220  0.70219  1.0000
  C   C5        1.0  0.26675  0.04325  0.72450  1.0000
  C   C6        1.0  0.23325  0.54325  0.27550  1.0000
  C   C7        1.0  0.73325  0.95675  0.27550  1.0000
  C   C8        1.0  0.76675  0.45675  0.72450  1.0000
  C   C9        1.0  0.38192  0.88379  0.63506  1.0000
  C   C10       1.0  0.11808  0.38379  0.36495  1.0000
  C   C11       1.0  0.61808  0.11621  0.36495  1.0000
  C   C12       1.0  0.88192  0.61621  0.63506  1.0000
  C   C13       1.0  0.23756  0.79526  0.74637  1.0000
  C   C14       1.0  0.26244  0.29526  0.25364  1.0000
  C   C15       1.0  0.76244  0.20474  0.25363  1.0000
  C   C16       1.0  0.73756  0.70474  0.74636  1.0000
  C   C17       1.0  0.15350  0.82541  0.81170  1.0000
  C   C18       1.0  0.34651  0.32541  0.18831  1.0000
  C   C19       1.0  0.84650  0.17459  0.18830  1.0000
  C   C20       1.0  0.65349  0.67460  0.81170  1.0000
  C   C21       1.0  0.25699  0.65702  0.73017  1.0000
  C   C22       1.0  0.24301  0.15702  0.26984  1.0000
  C   C23       1.0  0.74301  0.34297  0.26983  1.0000
  C   C24       1.0  0.75699  0.84298  0.73017  1.0000
  C   C25       1.0  0.40812  0.76232  0.59557  1.0000
  C   C26       1.0  0.09188  0.26232  0.40443  1.0000
  C   C27       1.0  0.59189  0.23768  0.40443  1.0000
  C   C28       1.0  0.90812  0.73769  0.59557  1.0000
  C   C29       1.0  0.44699  0.99944  0.60265  1.0000
  C   C30       1.0  0.05301  0.49944  0.39735  1.0000
  C   C31       1.0  0.55301  0.00056  0.39735  1.0000
  C   C32       1.0  0.94699  0.50056  0.60265  1.0000
  C   C33       1.0  0.36090  0.10457  0.79258  1.0000
  C   C34       1.0  0.13910  0.60457  0.20742  1.0000
  C   C35       1.0  0.63910  0.89543  0.20742  1.0000
  C   C36       1.0  0.86090  0.39543  0.79258  1.0000
  C   C37       1.0  0.47110  0.03101  0.84469  1.0000
  C   C38       1.0  0.02890  0.53101  0.15531  1.0000
  C   C39       1.0  0.52890  0.96899  0.15531  1.0000
  C   C40       1.0  0.97110  0.46899  0.84469  1.0000
  C   C41       1.0  0.56301  0.09631  0.90619  1.0000
  C   C42       1.0  0.93699  0.59631  0.09381  1.0000
  C   C43       1.0  0.43699  0.90369  0.09381  1.0000
  C   C44       1.0  0.06300  0.40369  0.90619  1.0000
  C   C45       1.0  0.55180  0.23633  0.91643  1.0000
  C   C46       1.0  0.94819  0.73633  0.08357  1.0000
  C   C47       1.0  0.44820  0.76367  0.08357  1.0000
  C   C48       1.0  0.05180  0.26367  0.91643  1.0000
  C   C49       1.0  0.44160  0.30896  0.86401  1.0000
  C   C50       1.0  0.05840  0.80896  0.13599  1.0000
  C   C51       1.0  0.55840  0.69104  0.13599  1.0000
  C   C52       1.0  0.94160  0.19104  0.86400  1.0000
  C   C53       1.0  0.34600  0.24439  0.80395  1.0000
  C   C54       1.0  0.15400  0.74439  0.19605  1.0000
  C   C55       1.0  0.65400  0.75561  0.19605  1.0000
  C   C56       1.0  0.84599  0.25561  0.80395  1.0000
  C   C57       1.0  0.65369  0.30801  0.98110  1.0000
  C   C58       1.0  0.84631  0.80802  0.01890  1.0000
  C   C59       1.0  0.34631  0.69198  0.01890  1.0000
  C   C60       1.0  0.15369  0.19198  0.98110  1.0000
  N   N1        1.0  0.50145  0.09596  0.57646  1.0000
  N   N2        1.0  0.99855  0.59597  0.42354  1.0000
  N   N3        1.0  0.49855  0.90403  0.42354  1.0000
  N   N4        1.0  0.00145  0.40404  0.57646  1.0000
  N   N5        1.0  0.43117  0.66606  0.55863  1.0000
  N   N6        1.0  0.06883  0.16606  0.44137  1.0000
  N   N7        1.0  0.56883  0.33394  0.44138  1.0000
  N   N8        1.0  0.93117  0.83394  0.55863  1.0000
  N   N9        1.0  0.27319  0.54251  0.71711  1.0000
  N   N10       1.0  0.22681  0.04251  0.28289  1.0000
  N   N11       1.0  0.72681  0.45749  0.28289  1.0000
  N   N12       1.0  0.77319  0.95749  0.71711  1.0000
  N   N13       1.0  0.08365  0.84819  0.86594  1.0000
  N   N14       1.0  0.41635  0.34818  0.13407  1.0000
  N   N15       1.0  0.91634  0.15181  0.13406  1.0000
  N   N16       1.0  0.58365  0.65182  0.86594  1.0000
  O   O1        1.0  0.16540  0.10526  0.67948  1.0000
  O   O2        1.0  0.33461  0.60526  0.32052  1.0000
  O   O3        1.0  0.83460  0.89474  0.32052  1.0000
  O   O4        1.0  0.66540  0.39474  0.67948  1.0000
