data_image0
_chemical_formula_structural       Co2H28C44S4N12
_chemical_formula_sum              "Co2 H28 C44 S4 N12"
_cell_length_a       9.3837
_cell_length_b       9.3836
_cell_length_c       12.1491
_cell_angle_alpha    79.4709
_cell_angle_beta     79.4709
_cell_angle_gamma    70.9065

_space_group_name_H-M_alt    "P 1"
_space_group_IT_number       1

loop_
  _space_group_symop_operation_xyz
  'x, y, z'

loop_
  _atom_site_type_symbol
  _atom_site_label
  _atom_site_symmetry_multiplicity
  _atom_site_fract_x
  _atom_site_fract_y
  _atom_site_fract_z
  _atom_site_occupancy
  Co  Co1       1.0  0.24395  0.75604  0.75000  1.0000
  Co  Co2       1.0  0.75604  0.24396  0.25000  1.0000
  H   H1        1.0  0.25678  0.49951  0.99119  1.0000
  H   H2        1.0  0.50049  0.74322  0.50881  1.0000
  H   H3        1.0  0.74324  0.50052  0.00882  1.0000
  H   H4        1.0  0.49949  0.25675  0.49118  1.0000
  H   H5        1.0  0.08796  0.48912  0.17363  1.0000
  H   H6        1.0  0.51087  0.91204  0.32637  1.0000
  H   H7        1.0  0.91207  0.51091  0.82638  1.0000
  H   H8        1.0  0.48911  0.08793  0.67362  1.0000
  H   H9        1.0  0.85674  0.71318  0.20920  1.0000
  H   H10       1.0  0.28681  0.14327  0.29080  1.0000
  H   H11       1.0  0.14325  0.28680  0.79080  1.0000
  H   H12       1.0  0.71321  0.85674  0.70920  1.0000
  H   H13       1.0  0.79553  0.93012  0.05574  1.0000
  H   H14       1.0  0.06987  0.20447  0.44427  1.0000
  H   H15       1.0  0.20442  0.06984  0.94424  1.0000
  H   H16       1.0  0.93017  0.79558  0.55575  1.0000
  H   H17       1.0  0.74392  0.08290  0.91612  1.0000
  H   H18       1.0  0.91710  0.25609  0.58389  1.0000
  H   H19       1.0  0.25605  0.91708  0.08387  1.0000
  H   H20       1.0  0.08293  0.74395  0.41613  1.0000
  H   H21       1.0  0.51723  0.20187  0.83557  1.0000
  H   H22       1.0  0.79813  0.48278  0.66443  1.0000
  H   H23       1.0  0.48275  0.79814  0.16441  1.0000
  H   H24       1.0  0.20186  0.51725  0.33559  1.0000
  H   H25       1.0  0.29478  0.43370  0.82512  1.0000
  H   H26       1.0  0.56629  0.70523  0.67488  1.0000
  H   H27       1.0  0.70521  0.56630  0.17487  1.0000
  H   H28       1.0  0.43369  0.29479  0.32513  1.0000
  C   C1        1.0  0.15130  0.59175  0.00601  1.0000
  C   C2        1.0  0.40824  0.84870  0.49399  1.0000
  C   C3        1.0  0.84872  0.40827  0.99400  1.0000
  C   C4        1.0  0.59174  0.15128  0.50600  1.0000
  C   C5        1.0  0.05811  0.58714  0.10926  1.0000
  C   C6        1.0  0.41285  0.94189  0.39074  1.0000
  C   C7        1.0  0.94190  0.41287  0.89075  1.0000
  C   C8        1.0  0.58714  0.05809  0.60925  1.0000
  C   C9        1.0  0.92829  0.71037  0.12745  1.0000
  C   C10       1.0  0.28962  0.07172  0.37256  1.0000
  C   C11       1.0  0.07171  0.28962  0.87255  1.0000
  C   C12       1.0  0.71039  0.92829  0.62744  1.0000
  C   C13       1.0  0.89428  0.83143  0.04130  1.0000
  C   C14       1.0  0.16856  0.10572  0.45870  1.0000
  C   C15       1.0  0.10569  0.16855  0.95869  1.0000
  C   C16       1.0  0.83146  0.89430  0.54131  1.0000
  C   C17       1.0  0.98999  0.82466  0.93805  1.0000
  C   C18       1.0  0.17534  0.01001  0.56195  1.0000
  C   C19       1.0  0.01000  0.17534  0.06195  1.0000
  C   C20       1.0  0.82467  0.99000  0.43805  1.0000
  C   C21       1.0  0.96097  0.94623  0.84160  1.0000
  C   C22       1.0  0.05376  0.03903  0.65841  1.0000
  C   C23       1.0  0.03902  0.05376  0.15840  1.0000
  C   C24       1.0  0.94624  0.96098  0.34160  1.0000
  C   C25       1.0  0.83061  0.07212  0.84262  1.0000
  C   C26       1.0  0.92788  0.16938  0.65739  1.0000
  C   C27       1.0  0.16937  0.92787  0.15738  1.0000
  C   C28       1.0  0.07213  0.83063  0.34262  1.0000
  C   C29       1.0  0.81341  0.18659  0.75000  1.0000
  C   C30       1.0  0.18658  0.81342  0.25000  1.0000
  C   C31       1.0  0.67845  0.32156  0.75001  1.0000
  C   C32       1.0  0.32155  0.67845  0.25000  1.0000
  C   C33       1.0  0.53386  0.31047  0.79681  1.0000
  C   C34       1.0  0.68953  0.46615  0.70319  1.0000
  C   C35       1.0  0.46613  0.68954  0.20318  1.0000
  C   C36       1.0  0.31046  0.53387  0.29682  1.0000
  C   C37       1.0  0.40886  0.43975  0.79318  1.0000
  C   C38       1.0  0.56025  0.59114  0.70682  1.0000
  C   C39       1.0  0.59112  0.56026  0.20681  1.0000
  C   C40       1.0  0.43974  0.40887  0.29319  1.0000
  C   C41       1.0  0.45726  0.83664  0.86678  1.0000
  C   C42       1.0  0.16337  0.54271  0.63321  1.0000
  C   C43       1.0  0.54275  0.16335  0.13320  1.0000
  C   C44       1.0  0.83666  0.45725  0.36679  1.0000
  S   S1        1.0  0.60350  0.82157  0.92568  1.0000
  S   S2        1.0  0.17845  0.39647  0.57432  1.0000
  S   S3        1.0  0.39653  0.17836  0.07430  1.0000
  S   S4        1.0  0.82164  0.60346  0.42571  1.0000
  N   N1        1.0  0.11765  0.70616  0.92179  1.0000
  N   N2        1.0  0.29383  0.88235  0.57821  1.0000
  N   N3        1.0  0.88235  0.29385  0.07821  1.0000
  N   N4        1.0  0.70616  0.11764  0.42179  1.0000
  N   N5        1.0  0.06937  0.93062  0.75000  1.0000
  N   N6        1.0  0.93062  0.06938  0.25000  1.0000
  N   N7        1.0  0.42054  0.57946  0.75000  1.0000
  N   N8        1.0  0.57945  0.42055  0.25000  1.0000
  N   N9        1.0  0.35102  0.84905  0.82099  1.0000
  N   N10       1.0  0.15096  0.64897  0.67900  1.0000
  N   N11       1.0  0.64898  0.15097  0.17900  1.0000
  N   N12       1.0  0.84903  0.35102  0.32099  1.0000
