data_image0
_chemical_formula_structural       K4H28C60N16O4
_chemical_formula_sum              "K4 H28 C60 N16 O4"
_cell_length_a       8.03456
_cell_length_b       9.69465
_cell_length_c       17.7086
_cell_angle_alpha    90.0003
_cell_angle_beta     91.0184
_cell_angle_gamma    89.9989

_space_group_name_H-M_alt    "P 1"
_space_group_IT_number       1

loop_
  _space_group_symop_operation_xyz
  'x, y, z'

loop_
  _atom_site_type_symbol
  _atom_site_label
  _atom_site_symmetry_multiplicity
  _atom_site_fract_x
  _atom_site_fract_y
  _atom_site_fract_z
  _atom_site_occupancy
  K   K1        1.0  0.96529  0.63293  0.90006  1.0000
  K   K2        1.0  0.53469  0.13293  0.09995  1.0000
  K   K3        1.0  0.03469  0.36707  0.09994  1.0000
  K   K4        1.0  0.46531  0.86708  0.90007  1.0000
  H   H1        1.0  0.21830  0.62398  0.53100  1.0000
  H   H2        1.0  0.28171  0.12399  0.46900  1.0000
  H   H3        1.0  0.78170  0.37602  0.46900  1.0000
  H   H4        1.0  0.71830  0.87602  0.53100  1.0000
  H   H5        1.0  0.23615  0.78886  0.48672  1.0000
  H   H6        1.0  0.26385  0.28887  0.51328  1.0000
  H   H7        1.0  0.76385  0.21114  0.51328  1.0000
  H   H8        1.0  0.73615  0.71113  0.48672  1.0000
  H   H9        1.0  0.05638  0.68593  0.47105  1.0000
  H   H10       1.0  0.44362  0.18594  0.52895  1.0000
  H   H11       1.0  0.94362  0.31407  0.52895  1.0000
  H   H12       1.0  0.55638  0.81407  0.47105  1.0000
  H   H13       1.0  0.82975  0.68621  0.72993  1.0000
  H   H14       1.0  0.67024  0.18621  0.27006  1.0000
  H   H15       1.0  0.17024  0.31379  0.27006  1.0000
  H   H16       1.0  0.32976  0.81380  0.72994  1.0000
  H   H17       1.0  0.02249  0.08820  0.67153  1.0000
  H   H18       1.0  0.47751  0.58820  0.32847  1.0000
  H   H19       1.0  0.97751  0.91180  0.32846  1.0000
  H   H20       1.0  0.52249  0.41180  0.67153  1.0000
  H   H21       1.0  0.15142  0.98851  0.55925  1.0000
  H   H22       1.0  0.34858  0.48852  0.44075  1.0000
  H   H23       1.0  0.84858  0.01149  0.44075  1.0000
  H   H24       1.0  0.65142  0.51149  0.55925  1.0000
  H   H25       1.0  0.96842  0.58593  0.61961  1.0000
  H   H26       1.0  0.53158  0.08593  0.38039  1.0000
  H   H27       1.0  0.03158  0.41407  0.38039  1.0000
  H   H28       1.0  0.46843  0.91407  0.61961  1.0000
  C   C1        1.0  0.84191  0.94530  0.77842  1.0000
  C   C2        1.0  0.65808  0.44529  0.22158  1.0000
  C   C3        1.0  0.15808  0.05470  0.22157  1.0000
  C   C4        1.0  0.34192  0.55470  0.77842  1.0000
  C   C5        1.0  0.91735  0.89385  0.70948  1.0000
  C   C6        1.0  0.58265  0.39385  0.29052  1.0000
  C   C7        1.0  0.08265  0.10616  0.29052  1.0000
  C   C8        1.0  0.41735  0.60616  0.70948  1.0000
  C   C9        1.0  0.90171  0.75204  0.69288  1.0000
  C   C10       1.0  0.59829  0.25204  0.30712  1.0000
  C   C11       1.0  0.09829  0.24796  0.30711  1.0000
  C   C12       1.0  0.40171  0.74796  0.69289  1.0000
  C   C13       1.0  0.97784  0.69649  0.63041  1.0000
  C   C14       1.0  0.52215  0.19649  0.36959  1.0000
  C   C15       1.0  0.02216  0.30351  0.36959  1.0000
  C   C16       1.0  0.47785  0.80351  0.63041  1.0000
  C   C17       1.0  0.06877  0.78024  0.58094  1.0000
  C   C18       1.0  0.43123  0.28024  0.41906  1.0000
  C   C19       1.0  0.93123  0.21976  0.41906  1.0000
  C   C20       1.0  0.56878  0.71976  0.58094  1.0000
  C   C21       1.0  0.08103  0.92205  0.59676  1.0000
  C   C22       1.0  0.41897  0.42205  0.40324  1.0000
  C   C23       1.0  0.91898  0.07795  0.40324  1.0000
  C   C24       1.0  0.58103  0.57795  0.59676  1.0000
  C   C25       1.0  0.00859  0.97838  0.66035  1.0000
  C   C26       1.0  0.49141  0.47838  0.33965  1.0000
  C   C27       1.0  0.99141  0.02162  0.33965  1.0000
  C   C28       1.0  0.50860  0.52163  0.66035  1.0000
  C   C29       1.0  0.86857  0.09471  0.80230  1.0000
  C   C30       1.0  0.63143  0.59470  0.19770  1.0000
  C   C31       1.0  0.13142  0.90529  0.19770  1.0000
  C   C32       1.0  0.36858  0.40529  0.80229  1.0000
  C   C33       1.0  0.79441  0.19858  0.75801  1.0000
  C   C34       1.0  0.70560  0.69857  0.24199  1.0000
  C   C35       1.0  0.20558  0.80142  0.24200  1.0000
  C   C36       1.0  0.29442  0.30142  0.75801  1.0000
  C   C37       1.0  0.69570  0.16716  0.69326  1.0000
  C   C38       1.0  0.80432  0.66715  0.30673  1.0000
  C   C39       1.0  0.30430  0.83284  0.30674  1.0000
  C   C40       1.0  0.19570  0.33284  0.69326  1.0000
  C   C41       1.0  0.81725  0.34060  0.77262  1.0000
  C   C42       1.0  0.68275  0.84059  0.22738  1.0000
  C   C43       1.0  0.18275  0.65940  0.22738  1.0000
  C   C44       1.0  0.31725  0.15939  0.77263  1.0000
  C   C45       1.0  0.96371  0.11248  0.86936  1.0000
  C   C46       1.0  0.53628  0.61248  0.13065  1.0000
  C   C47       1.0  0.03628  0.88751  0.13065  1.0000
  C   C48       1.0  0.46372  0.38752  0.86935  1.0000
  C   C49       1.0  0.99114  0.23975  0.90608  1.0000
  C   C50       1.0  0.50886  0.73975  0.09392  1.0000
  C   C51       1.0  0.00884  0.76024  0.09391  1.0000
  C   C52       1.0  0.49114  0.26026  0.90609  1.0000
  C   C53       1.0  0.04408  0.99817  0.90328  1.0000
  C   C54       1.0  0.45592  0.49817  0.09672  1.0000
  C   C55       1.0  0.95591  0.00183  0.09672  1.0000
  C   C56       1.0  0.54409  0.50184  0.90328  1.0000
  C   C57       1.0  0.14997  0.71753  0.51386  1.0000
  C   C58       1.0  0.35003  0.21753  0.48614  1.0000
  C   C59       1.0  0.85003  0.28248  0.48614  1.0000
  C   C60       1.0  0.64997  0.78247  0.51386  1.0000
  N   N1        1.0  0.61358  0.14538  0.63926  1.0000
  N   N2        1.0  0.88645  0.64538  0.36074  1.0000
  N   N3        1.0  0.38642  0.85462  0.36075  1.0000
  N   N4        1.0  0.11359  0.35463  0.63926  1.0000
  N   N5        1.0  0.83774  0.45838  0.78382  1.0000
  N   N6        1.0  0.66226  0.95837  0.21618  1.0000
  N   N7        1.0  0.16227  0.54161  0.21618  1.0000
  N   N8        1.0  0.33772  0.04162  0.78383  1.0000
  N   N9        1.0  0.01646  0.34325  0.93851  1.0000
  N   N10       1.0  0.48355  0.84325  0.06150  1.0000
  N   N11       1.0  0.98352  0.65675  0.06150  1.0000
  N   N12       1.0  0.51645  0.15676  0.93851  1.0000
  N   N13       1.0  0.11328  0.90328  0.93037  1.0000
  N   N14       1.0  0.38672  0.40328  0.06963  1.0000
  N   N15       1.0  0.88671  0.09671  0.06963  1.0000
  N   N16       1.0  0.61328  0.59672  0.93037  1.0000
  O   O1        1.0  0.76092  0.87115  0.82184  1.0000
  O   O2        1.0  0.73906  0.37114  0.17816  1.0000
  O   O3        1.0  0.23904  0.12885  0.17815  1.0000
  O   O4        1.0  0.26093  0.62885  0.82184  1.0000
