data_image0
_chemical_formula_structural       Cd4H40C12I8N8
_chemical_formula_sum              "Cd4 H40 C12 I8 N8"
_cell_length_a       6.7259
_cell_length_b       9.7547
_cell_length_c       14.0127
_cell_angle_alpha    89.9995
_cell_angle_beta     97.9899
_cell_angle_gamma    90.0006

_space_group_name_H-M_alt    "P 1"
_space_group_IT_number       1

loop_
  _space_group_symop_operation_xyz
  'x, y, z'

loop_
  _atom_site_type_symbol
  _atom_site_label
  _atom_site_symmetry_multiplicity
  _atom_site_fract_x
  _atom_site_fract_y
  _atom_site_fract_z
  _atom_site_occupancy
  Cd  Cd1       1.0  0.70674  0.79002  0.72126  1.0000
  Cd  Cd2       1.0  0.79325  0.29002  0.77874  1.0000
  Cd  Cd3       1.0  0.29326  0.20998  0.27874  1.0000
  Cd  Cd4       1.0  0.20675  0.70998  0.22126  1.0000
  H   H1        1.0  0.73254  0.89185  0.90843  1.0000
  H   H2        1.0  0.76744  0.39186  0.59156  1.0000
  H   H3        1.0  0.26746  0.10815  0.09157  1.0000
  H   H4        1.0  0.23255  0.60814  0.40844  1.0000
  H   H5        1.0  0.75299  0.72371  0.91269  1.0000
  H   H6        1.0  0.74701  0.22371  0.58732  1.0000
  H   H7        1.0  0.24701  0.27629  0.08731  1.0000
  H   H8        1.0  0.25300  0.77629  0.41268  1.0000
  H   H9        1.0  0.59547  0.77220  0.18761  1.0000
  H   H10       1.0  0.90453  0.27220  0.31240  1.0000
  H   H11       1.0  0.40453  0.22780  0.81239  1.0000
  H   H12       1.0  0.09548  0.72780  0.68760  1.0000
  H   H13       1.0  0.57572  0.60565  0.20118  1.0000
  H   H14       1.0  0.92430  0.10565  0.29883  1.0000
  H   H15       1.0  0.42429  0.39435  0.79882  1.0000
  H   H16       1.0  0.07570  0.89435  0.70117  1.0000
  H   H17       1.0  0.37235  0.87601  0.85868  1.0000
  H   H18       1.0  0.12764  0.37602  0.64132  1.0000
  H   H19       1.0  0.62765  0.12398  0.14132  1.0000
  H   H20       1.0  0.87236  0.62399  0.35868  1.0000
  H   H21       1.0  0.39408  0.69590  0.86538  1.0000
  H   H22       1.0  0.10591  0.19591  0.63463  1.0000
  H   H23       1.0  0.60593  0.30409  0.13462  1.0000
  H   H24       1.0  0.89409  0.80410  0.36537  1.0000
  H   H25       1.0  0.26427  0.81060  0.00804  1.0000
  H   H26       1.0  0.23572  0.31061  0.49197  1.0000
  H   H27       1.0  0.73573  0.18939  0.99196  1.0000
  H   H28       1.0  0.76427  0.68940  0.50803  1.0000
  H   H29       1.0  0.50195  0.88908  0.03808  1.0000
  H   H30       1.0  0.99804  0.38909  0.46192  1.0000
  H   H31       1.0  0.49805  0.11091  0.96192  1.0000
  H   H32       1.0  0.00194  0.61093  0.53808  1.0000
  H   H33       1.0  0.65723  0.64452  0.04614  1.0000
  H   H34       1.0  0.84278  0.14450  0.45387  1.0000
  H   H35       1.0  0.34277  0.35547  0.95386  1.0000
  H   H36       1.0  0.15722  0.85550  0.54613  1.0000
  H   H37       1.0  0.40645  0.58255  0.03751  1.0000
  H   H38       1.0  0.09358  0.08256  0.46250  1.0000
  H   H39       1.0  0.59355  0.41745  0.96249  1.0000
  H   H40       1.0  0.90643  0.91745  0.53751  1.0000
  C   C1        1.0  0.45584  0.79199  0.89835  1.0000
  C   C2        1.0  0.04415  0.29201  0.60165  1.0000
  C   C3        1.0  0.54416  0.20801  0.10165  1.0000
  C   C4        1.0  0.95585  0.70800  0.39835  1.0000
  C   C5        1.0  0.42567  0.79761  0.00428  1.0000
  C   C6        1.0  0.07432  0.29761  0.49572  1.0000
  C   C7        1.0  0.57433  0.20238  0.99572  1.0000
  C   C8        1.0  0.92568  0.70240  0.50427  1.0000
  C   C9        1.0  0.50417  0.67033  0.06010  1.0000
  C   C10       1.0  0.99584  0.17033  0.43991  1.0000
  C   C11       1.0  0.49583  0.32966  0.93990  1.0000
  C   C12       1.0  0.00415  0.82968  0.56009  1.0000
  I   I1        1.0  0.45555  0.57768  0.64147  1.0000
  I   I2        1.0  0.04443  0.07768  0.85854  1.0000
  I   I3        1.0  0.54445  0.42232  0.35853  1.0000
  I   I4        1.0  0.95555  0.92232  0.14147  1.0000
  I   I5        1.0  0.49332  0.03115  0.65322  1.0000
  I   I6        1.0  0.00665  0.53116  0.84679  1.0000
  I   I7        1.0  0.50669  0.96885  0.34679  1.0000
  I   I8        1.0  0.99336  0.46884  0.15320  1.0000
  N   N1        1.0  0.66704  0.80262  0.88082  1.0000
  N   N2        1.0  0.83294  0.30261  0.61919  1.0000
  N   N3        1.0  0.33296  0.19737  0.11918  1.0000
  N   N4        1.0  0.16705  0.69739  0.38082  1.0000
  N   N5        1.0  0.50744  0.68880  0.16515  1.0000
  N   N6        1.0  0.99258  0.18879  0.33485  1.0000
  N   N7        1.0  0.49256  0.31120  0.83485  1.0000
  N   N8        1.0  0.00743  0.81122  0.66515  1.0000
