data_image0
_chemical_formula_structural       Ni4H44C36N4O20
_chemical_formula_sum              "Ni4 H44 C36 N4 O20"
_cell_length_a       7.32827
_cell_length_b       9.20968
_cell_length_c       15.187
_cell_angle_alpha    107.911
_cell_angle_beta     90.0001
_cell_angle_gamma    89.9998

_space_group_name_H-M_alt    "P 1"
_space_group_IT_number       1

loop_
  _space_group_symop_operation_xyz
  'x, y, z'

loop_
  _atom_site_type_symbol
  _atom_site_label
  _atom_site_symmetry_multiplicity
  _atom_site_fract_x
  _atom_site_fract_y
  _atom_site_fract_z
  _atom_site_occupancy
  Ni  Ni1       1.0  0.98740  0.35684  0.62651  1.0000
  Ni  Ni2       1.0  0.48740  0.14316  0.37349  1.0000
  Ni  Ni3       1.0  0.01260  0.64317  0.37349  1.0000
  Ni  Ni4       1.0  0.51260  0.85683  0.62651  1.0000
  H   H1        1.0  0.87034  0.20354  0.45813  1.0000
  H   H2        1.0  0.37034  0.29646  0.54188  1.0000
  H   H3        1.0  0.12966  0.79646  0.54188  1.0000
  H   H4        1.0  0.62966  0.70354  0.45812  1.0000
  H   H5        1.0  0.06582  0.13744  0.47088  1.0000
  H   H6        1.0  0.56583  0.36256  0.52912  1.0000
  H   H7        1.0  0.93417  0.86256  0.52912  1.0000
  H   H8        1.0  0.43418  0.63744  0.47088  1.0000
  H   H9        1.0  0.79453  0.47889  0.52653  1.0000
  H   H10       1.0  0.29453  0.02111  0.47348  1.0000
  H   H11       1.0  0.20548  0.52112  0.47347  1.0000
  H   H12       1.0  0.70547  0.97889  0.52653  1.0000
  H   H13       1.0  0.70574  0.55889  0.62730  1.0000
  H   H14       1.0  0.20574  0.94112  0.37270  1.0000
  H   H15       1.0  0.29426  0.44112  0.37270  1.0000
  H   H16       1.0  0.79426  0.05889  0.62730  1.0000
  H   H17       1.0  0.84007  0.98199  0.75391  1.0000
  H   H18       1.0  0.34006  0.51801  0.24609  1.0000
  H   H19       1.0  0.15994  0.01801  0.24609  1.0000
  H   H20       1.0  0.65992  0.48199  0.75391  1.0000
  H   H21       1.0  0.94849  0.96553  0.90379  1.0000
  H   H22       1.0  0.44849  0.53447  0.09621  1.0000
  H   H23       1.0  0.05151  0.03447  0.09621  1.0000
  H   H24       1.0  0.55150  0.46553  0.90379  1.0000
  H   H25       1.0  0.10533  0.18987  0.01670  1.0000
  H   H26       1.0  0.60533  0.31013  0.98330  1.0000
  H   H27       1.0  0.89467  0.81013  0.98329  1.0000
  H   H28       1.0  0.39467  0.68987  0.01670  1.0000
  H   H29       1.0  0.14544  0.42740  0.97491  1.0000
  H   H30       1.0  0.64545  0.07260  0.02509  1.0000
  H   H31       1.0  0.85456  0.57259  0.02508  1.0000
  H   H32       1.0  0.35456  0.92741  0.97492  1.0000
  H   H33       1.0  0.11139  0.57570  0.88254  1.0000
  H   H34       1.0  0.61140  0.92430  0.11746  1.0000
  H   H35       1.0  0.88862  0.42429  0.11746  1.0000
  H   H36       1.0  0.38862  0.07570  0.88254  1.0000
  H   H37       1.0  0.16873  0.72520  0.79397  1.0000
  H   H38       1.0  0.66874  0.77481  0.20603  1.0000
  H   H39       1.0  0.83127  0.27481  0.20603  1.0000
  H   H40       1.0  0.33126  0.22519  0.79397  1.0000
  H   H41       1.0  0.95120  0.72685  0.74149  1.0000
  H   H42       1.0  0.45121  0.77315  0.25850  1.0000
  H   H43       1.0  0.04880  0.27315  0.25851  1.0000
  H   H44       1.0  0.54879  0.22685  0.74150  1.0000
  C   C1        1.0  0.92835  0.21444  0.77614  1.0000
  C   C2        1.0  0.42835  0.28557  0.22386  1.0000
  C   C3        1.0  0.07165  0.78557  0.22386  1.0000
  C   C4        1.0  0.57165  0.71443  0.77614  1.0000
  C   C5        1.0  0.90591  0.08023  0.80264  1.0000
  C   C6        1.0  0.40591  0.41977  0.19736  1.0000
  C   C7        1.0  0.09409  0.91977  0.19736  1.0000
  C   C8        1.0  0.59408  0.58022  0.80264  1.0000
  C   C9        1.0  0.96678  0.07196  0.88737  1.0000
  C   C10       1.0  0.46678  0.42803  0.11262  1.0000
  C   C11       1.0  0.03323  0.92803  0.11262  1.0000
  C   C12       1.0  0.53322  0.57196  0.88737  1.0000
  C   C13       1.0  0.05358  0.19694  0.95090  1.0000
  C   C14       1.0  0.55358  0.30307  0.04910  1.0000
  C   C15       1.0  0.94642  0.80306  0.04910  1.0000
  C   C16       1.0  0.44642  0.69694  0.95090  1.0000
  C   C17       1.0  0.07639  0.32950  0.92722  1.0000
  C   C18       1.0  0.57639  0.17050  0.07278  1.0000
  C   C19       1.0  0.92362  0.67049  0.07278  1.0000
  C   C20       1.0  0.42362  0.82951  0.92722  1.0000
  C   C21       1.0  0.01594  0.34252  0.84152  1.0000
  C   C22       1.0  0.51594  0.15748  0.15848  1.0000
  C   C23       1.0  0.98406  0.65748  0.15847  1.0000
  C   C24       1.0  0.48406  0.84252  0.84153  1.0000
  C   C25       1.0  0.05412  0.48463  0.82405  1.0000
  C   C26       1.0  0.55412  0.01537  0.17595  1.0000
  C   C27       1.0  0.94589  0.51537  0.17595  1.0000
  C   C28       1.0  0.44589  0.98463  0.82405  1.0000
  C   C29       1.0  0.07725  0.65978  0.73866  1.0000
  C   C30       1.0  0.57726  0.84022  0.26134  1.0000
  C   C31       1.0  0.92275  0.34022  0.26134  1.0000
  C   C32       1.0  0.42275  0.15978  0.73866  1.0000
  C   C33       1.0  0.15984  0.64549  0.64461  1.0000
  C   C34       1.0  0.65984  0.85451  0.35539  1.0000
  C   C35       1.0  0.84017  0.35452  0.35539  1.0000
  C   C36       1.0  0.34016  0.14548  0.64461  1.0000
  N   N1        1.0  0.03031  0.51150  0.74616  1.0000
  N   N2        1.0  0.53031  0.98850  0.25384  1.0000
  N   N3        1.0  0.96970  0.48850  0.25383  1.0000
  N   N4        1.0  0.46969  0.01150  0.74617  1.0000
  O   O1        1.0  0.95467  0.18668  0.50530  1.0000
  O   O2        1.0  0.45467  0.31332  0.49470  1.0000
  O   O3        1.0  0.04533  0.81332  0.49470  1.0000
  O   O4        1.0  0.54533  0.68668  0.50530  1.0000
  O   O5        1.0  0.75246  0.45732  0.58435  1.0000
  O   O6        1.0  0.25246  0.04268  0.41565  1.0000
  O   O7        1.0  0.24754  0.54269  0.41565  1.0000
  O   O8        1.0  0.74754  0.95732  0.58436  1.0000
  O   O9        1.0  0.86873  0.21708  0.69470  1.0000
  O   O10       1.0  0.36873  0.28293  0.30530  1.0000
  O   O11       1.0  0.13127  0.78293  0.30530  1.0000
  O   O12       1.0  0.63127  0.71707  0.69470  1.0000
  O   O13       1.0  0.13795  0.51998  0.57995  1.0000
  O   O14       1.0  0.63795  0.98002  0.42005  1.0000
  O   O15       1.0  0.86205  0.48002  0.42005  1.0000
  O   O16       1.0  0.36204  0.01998  0.57995  1.0000
  O   O17       1.0  0.23441  0.76342  0.63420  1.0000
  O   O18       1.0  0.73441  0.73658  0.36580  1.0000
  O   O19       1.0  0.76558  0.23658  0.36580  1.0000
  O   O20       1.0  0.26558  0.26342  0.63420  1.0000
