data_image0
_chemical_formula_structural       Mn4H28C32S8N12O4
_chemical_formula_sum              "Mn4 H28 C32 S8 N12 O4"
_cell_length_a       7.78095
_cell_length_b       7.85721
_cell_length_c       18.4293
_cell_angle_alpha    94.7403
_cell_angle_beta     89.9997
_cell_angle_gamma    90.0001

_space_group_name_H-M_alt    "P 1"
_space_group_IT_number       1

loop_
  _space_group_symop_operation_xyz
  'x, y, z'

loop_
  _atom_site_type_symbol
  _atom_site_label
  _atom_site_symmetry_multiplicity
  _atom_site_fract_x
  _atom_site_fract_y
  _atom_site_fract_z
  _atom_site_occupancy
  Mn  Mn1       1.0  0.66123  0.66178  0.00017  1.0000
  Mn  Mn2       1.0  0.16123  0.33823  0.49982  1.0000
  Mn  Mn3       1.0  0.33876  0.33823  0.99982  1.0000
  Mn  Mn4       1.0  0.83876  0.66177  0.50018  1.0000
  H   H1        1.0  0.78104  0.22190  0.97332  1.0000
  H   H2        1.0  0.28104  0.77810  0.52668  1.0000
  H   H3        1.0  0.21896  0.77809  0.02668  1.0000
  H   H4        1.0  0.71895  0.22190  0.47332  1.0000
  H   H5        1.0  0.36151  0.44691  0.82643  1.0000
  H   H6        1.0  0.86150  0.55309  0.67357  1.0000
  H   H7        1.0  0.63850  0.55309  0.17357  1.0000
  H   H8        1.0  0.13849  0.44691  0.32643  1.0000
  H   H9        1.0  0.46948  0.46716  0.74167  1.0000
  H   H10       1.0  0.96948  0.53284  0.75833  1.0000
  H   H11       1.0  0.53053  0.53284  0.25833  1.0000
  H   H12       1.0  0.03052  0.46716  0.24167  1.0000
  H   H13       1.0  0.52534  0.60004  0.82243  1.0000
  H   H14       1.0  0.02534  0.39996  0.67757  1.0000
  H   H15       1.0  0.47467  0.39996  0.17757  1.0000
  H   H16       1.0  0.97466  0.60004  0.32243  1.0000
  H   H17       1.0  0.95080  0.02483  0.88500  1.0000
  H   H18       1.0  0.45080  0.97517  0.61500  1.0000
  H   H19       1.0  0.04920  0.97517  0.11500  1.0000
  H   H20       1.0  0.54920  0.02483  0.38500  1.0000
  H   H21       1.0  0.89288  0.03505  0.75015  1.0000
  H   H22       1.0  0.39288  0.96495  0.74985  1.0000
  H   H23       1.0  0.10712  0.96495  0.24985  1.0000
  H   H24       1.0  0.60712  0.03505  0.25015  1.0000
  H   H25       1.0  0.67520  0.24230  0.71106  1.0000
  H   H26       1.0  0.17519  0.75770  0.78894  1.0000
  H   H27       1.0  0.32481  0.75770  0.28894  1.0000
  H   H28       1.0  0.82481  0.24230  0.21106  1.0000
  C   C1        1.0  0.42796  0.92964  0.92173  1.0000
  C   C2        1.0  0.92796  0.07037  0.57827  1.0000
  C   C3        1.0  0.57203  0.07037  0.07827  1.0000
  C   C4        1.0  0.07204  0.92963  0.42173  1.0000
  C   C5        1.0  0.05446  0.55593  0.92154  1.0000
  C   C6        1.0  0.55447  0.44407  0.57846  1.0000
  C   C7        1.0  0.94552  0.44407  0.07846  1.0000
  C   C8        1.0  0.44554  0.55593  0.42154  1.0000
  C   C9        1.0  0.76693  0.21864  0.91462  1.0000
  C   C10       1.0  0.26693  0.78137  0.58538  1.0000
  C   C11       1.0  0.23307  0.78136  0.08538  1.0000
  C   C12       1.0  0.73307  0.21864  0.41462  1.0000
  C   C13       1.0  0.48575  0.47132  0.80079  1.0000
  C   C14       1.0  0.98575  0.52868  0.69921  1.0000
  C   C15       1.0  0.51425  0.52868  0.19921  1.0000
  C   C16       1.0  0.01425  0.47132  0.30079  1.0000
  C   C17       1.0  0.61508  0.34288  0.81913  1.0000
  C   C18       1.0  0.11508  0.65712  0.68087  1.0000
  C   C19       1.0  0.38492  0.65712  0.18087  1.0000
  C   C20       1.0  0.88492  0.34288  0.31913  1.0000
  C   C21       1.0  0.85711  0.11229  0.86488  1.0000
  C   C22       1.0  0.35711  0.88771  0.63512  1.0000
  C   C23       1.0  0.14289  0.88771  0.13512  1.0000
  C   C24       1.0  0.64289  0.11229  0.36488  1.0000
  C   C25       1.0  0.82533  0.11909  0.79068  1.0000
  C   C26       1.0  0.32532  0.88091  0.70932  1.0000
  C   C27       1.0  0.17468  0.88091  0.20932  1.0000
  C   C28       1.0  0.67468  0.11909  0.29068  1.0000
  C   C29       1.0  0.70408  0.23470  0.76855  1.0000
  C   C30       1.0  0.20407  0.76531  0.73145  1.0000
  C   C31       1.0  0.29592  0.76530  0.23145  1.0000
  C   C32       1.0  0.79592  0.23469  0.26855  1.0000
  S   S1        1.0  0.29638  0.07485  0.89732  1.0000
  S   S2        1.0  0.79638  0.92516  0.60268  1.0000
  S   S3        1.0  0.70362  0.92516  0.10268  1.0000
  S   S4        1.0  0.20362  0.07485  0.39731  1.0000
  S   S5        1.0  0.90650  0.68654  0.89811  1.0000
  S   S6        1.0  0.40650  0.31346  0.60189  1.0000
  S   S7        1.0  0.09348  0.31347  0.10188  1.0000
  S   S8        1.0  0.59350  0.68654  0.39812  1.0000
  N   N1        1.0  0.52315  0.82322  0.93989  1.0000
  N   N2        1.0  0.02316  0.17679  0.56011  1.0000
  N   N3        1.0  0.47684  0.17679  0.06011  1.0000
  N   N4        1.0  0.97684  0.82321  0.43989  1.0000
  N   N5        1.0  0.16280  0.46132  0.93898  1.0000
  N   N6        1.0  0.66280  0.53868  0.56102  1.0000
  N   N7        1.0  0.83719  0.53869  0.06102  1.0000
  N   N8        1.0  0.33720  0.46132  0.43898  1.0000
  N   N9        1.0  0.64952  0.32954  0.89130  1.0000
  N   N10       1.0  0.14951  0.67046  0.60870  1.0000
  N   N11       1.0  0.35048  0.67046  0.10870  1.0000
  N   N12       1.0  0.85048  0.32954  0.39130  1.0000
  O   O1        1.0  0.56186  0.42895  0.94098  1.0000
  O   O2        1.0  0.06186  0.57105  0.55902  1.0000
  O   O3        1.0  0.43814  0.57104  0.05902  1.0000
  O   O4        1.0  0.93814  0.42895  0.44098  1.0000
