data_image0
_chemical_formula_structural       Mn2H28C28S4N8O4
_chemical_formula_sum              "Mn2 H28 C28 S4 N8 O4"
_cell_length_a       7.87424
_cell_length_b       9.15856
_cell_length_c       11.3831
_cell_angle_alpha    82.7731
_cell_angle_beta     86.5161
_cell_angle_gamma    78.2092

_space_group_name_H-M_alt    "P 1"
_space_group_IT_number       1

loop_
  _space_group_symop_operation_xyz
  'x, y, z'

loop_
  _atom_site_type_symbol
  _atom_site_label
  _atom_site_symmetry_multiplicity
  _atom_site_fract_x
  _atom_site_fract_y
  _atom_site_fract_z
  _atom_site_occupancy
  Mn  Mn1       1.0  0.19024  0.92023  0.08025  1.0000
  Mn  Mn2       1.0  0.82246  0.07443  0.91446  1.0000
  H   H1        1.0  0.82881  0.86480  0.20899  1.0000
  H   H2        1.0  0.17057  0.13915  0.78522  1.0000
  H   H3        1.0  0.57471  0.49413  0.17432  1.0000
  H   H4        1.0  0.41999  0.51241  0.82104  1.0000
  H   H5        1.0  0.70714  0.48882  0.96929  1.0000
  H   H6        1.0  0.27298  0.52614  0.02132  1.0000
  H   H7        1.0  0.89191  0.67887  0.89291  1.0000
  H   H8        1.0  0.08548  0.33608  0.09573  1.0000
  H   H9        1.0  0.71147  0.65383  0.40069  1.0000
  H   H10       1.0  0.29693  0.34557  0.59430  1.0000
  H   H11       1.0  0.51376  0.61963  0.35362  1.0000
  H   H12       1.0  0.49202  0.37973  0.64574  1.0000
  H   H13       1.0  0.54747  0.80671  0.34393  1.0000
  H   H14       1.0  0.45642  0.19287  0.65761  1.0000
  H   H15       1.0  0.05013  0.76970  0.39415  1.0000
  H   H16       1.0  0.95142  0.22746  0.60965  1.0000
  H   H17       1.0  0.34937  0.93697  0.63456  1.0000
  H   H18       1.0  0.65330  0.04956  0.37533  1.0000
  H   H19       1.0  0.35564  0.15913  0.47887  1.0000
  H   H20       1.0  0.64916  0.83146  0.53451  1.0000
  H   H21       1.0  0.20160  0.17541  0.29012  1.0000
  H   H22       1.0  0.80205  0.82245  0.72224  1.0000
  H   H23       1.0  0.11604  0.62652  0.58721  1.0000
  H   H24       1.0  0.88334  0.36562  0.41505  1.0000
  H   H25       1.0  0.15389  0.73219  0.70165  1.0000
  H   H26       1.0  0.84675  0.25611  0.30279  1.0000
  H   H27       1.0  0.33154  0.63138  0.62433  1.0000
  H   H28       1.0  0.66824  0.35828  0.37921  1.0000
  C   C1        1.0  0.51776  0.92909  0.88099  1.0000
  C   C2        1.0  0.50669  0.08699  0.10629  1.0000
  C   C3        1.0  0.23068  0.59859  0.23801  1.0000
  C   C4        1.0  0.76270  0.38364  0.76823  1.0000
  C   C5        1.0  0.79326  0.77860  0.16300  1.0000
  C   C6        1.0  0.20057  0.22853  0.83004  1.0000
  C   C7        1.0  0.68856  0.67903  0.21083  1.0000
  C   C8        1.0  0.30800  0.32660  0.78410  1.0000
  C   C9        1.0  0.65670  0.57346  0.14007  1.0000
  C   C10       1.0  0.33541  0.43461  0.85388  1.0000
  C   C11       1.0  0.72943  0.57032  0.02542  1.0000
  C   C12       1.0  0.25475  0.44217  0.96606  1.0000
  C   C13       1.0  0.83084  0.67289  0.98097  1.0000
  C   C14       1.0  0.15061  0.34122  0.00890  1.0000
  C   C15       1.0  0.61126  0.69015  0.33403  1.0000
  C   C16       1.0  0.39310  0.31045  0.66370  1.0000
  C   C17       1.0  0.12018  0.85067  0.41958  1.0000
  C   C18       1.0  0.88217  0.14493  0.58604  1.0000
  C   C19       1.0  0.20259  0.83359  0.52630  1.0000
  C   C20       1.0  0.79947  0.15854  0.47971  1.0000
  C   C21       1.0  0.28814  0.94656  0.54974  1.0000
  C   C22       1.0  0.71532  0.04335  0.45936  1.0000
  C   C23       1.0  0.29003  0.06964  0.46472  1.0000
  C   C24       1.0  0.71371  0.92239  0.54663  1.0000
  C   C25       1.0  0.20678  0.08200  0.35939  1.0000
  C   C26       1.0  0.79637  0.91437  0.65175  1.0000
  C   C27       1.0  0.19921  0.69800  0.61410  1.0000
  C   C28       1.0  0.80101  0.29247  0.38969  1.0000
  S   S1        1.0  0.35293  0.84499  0.88469  1.0000
  S   S2        1.0  0.67954  0.16220  0.08871  1.0000
  S   S3        1.0  0.23313  0.45432  0.33564  1.0000
  S   S4        1.0  0.75834  0.53904  0.68190  1.0000
  N   N1        1.0  0.63497  0.99285  0.88185  1.0000
  N   N2        1.0  0.38385  0.02987  0.12127  1.0000
  N   N3        1.0  0.23134  0.70472  0.16609  1.0000
  N   N4        1.0  0.76419  0.26886  0.83055  1.0000
  N   N5        1.0  0.85867  0.77467  0.05052  1.0000
  N   N6        1.0  0.12744  0.23626  0.94041  1.0000
  N   N7        1.0  0.12105  0.97374  0.33856  1.0000
  N   N8        1.0  0.88083  0.02452  0.66929  1.0000
  O   O1        1.0  0.94952  0.88107  0.00409  1.0000
  O   O2        1.0  0.03815  0.13121  0.98829  1.0000
  O   O3        1.0  0.03618  0.98965  0.23972  1.0000
  O   O4        1.0  0.96976  0.01350  0.76780  1.0000
