data_image0
_chemical_formula_structural       Cu2H20C36N8O12
_chemical_formula_sum              "Cu2 H20 C36 N8 O12"
_cell_length_a       7.3467
_cell_length_b       7.25779
_cell_length_c       14.6873
_cell_angle_alpha    89.9994
_cell_angle_beta     89.9999
_cell_angle_gamma    96.3387

_space_group_name_H-M_alt    "P 1"
_space_group_IT_number       1

loop_
  _space_group_symop_operation_xyz
  'x, y, z'

loop_
  _atom_site_type_symbol
  _atom_site_label
  _atom_site_symmetry_multiplicity
  _atom_site_fract_x
  _atom_site_fract_y
  _atom_site_fract_z
  _atom_site_occupancy
  Cu  Cu1       1.0  0.00000  0.50001  0.50000  1.0000
  Cu  Cu2       1.0  0.50000  0.50000  1.00000  1.0000
  H   H1        1.0  0.16093  0.12917  0.51254  1.0000
  H   H2        1.0  0.33907  0.87082  0.01254  1.0000
  H   H3        1.0  0.83907  0.87083  0.48746  1.0000
  H   H4        1.0  0.66093  0.12916  0.98747  1.0000
  H   H5        1.0  0.25621  0.91145  0.39507  1.0000
  H   H6        1.0  0.24379  0.08854  0.89507  1.0000
  H   H7        1.0  0.74379  0.08855  0.60493  1.0000
  H   H8        1.0  0.75621  0.91145  0.10494  1.0000
  H   H9        1.0  0.23019  0.99083  0.22961  1.0000
  H   H10       1.0  0.26982  0.00917  0.72961  1.0000
  H   H11       1.0  0.76981  0.00916  0.77039  1.0000
  H   H12       1.0  0.73018  0.99085  0.27040  1.0000
  H   H13       1.0  0.03544  0.54996  0.08357  1.0000
  H   H14       1.0  0.46457  0.45004  0.58357  1.0000
  H   H15       1.0  0.96455  0.45003  0.91643  1.0000
  H   H16       1.0  0.53544  0.54997  0.41643  1.0000
  H   H17       1.0  0.95160  0.74420  0.21146  1.0000
  H   H18       1.0  0.54841  0.25579  0.71146  1.0000
  H   H19       1.0  0.04841  0.25579  0.78854  1.0000
  H   H20       1.0  0.45158  0.74421  0.28853  1.0000
  C   C1        1.0  0.15053  0.15951  0.44026  1.0000
  C   C2        1.0  0.34948  0.84048  0.94026  1.0000
  C   C3        1.0  0.84948  0.84049  0.55974  1.0000
  C   C4        1.0  0.65052  0.15951  0.05974  1.0000
  C   C5        1.0  0.20369  0.03879  0.37317  1.0000
  C   C6        1.0  0.29632  0.96121  0.87317  1.0000
  C   C7        1.0  0.79632  0.96121  0.62683  1.0000
  C   C8        1.0  0.70368  0.03879  0.12684  1.0000
  C   C9        1.0  0.18953  0.08339  0.28207  1.0000
  C   C10       1.0  0.31048  0.91661  0.78206  1.0000
  C   C11       1.0  0.81047  0.91660  0.71793  1.0000
  C   C12       1.0  0.68952  0.08340  0.21794  1.0000
  C   C13       1.0  0.12208  0.25177  0.25621  1.0000
  C   C14       1.0  0.37793  0.74823  0.75621  1.0000
  C   C15       1.0  0.87792  0.74823  0.74379  1.0000
  C   C16       1.0  0.62207  0.25177  0.24379  1.0000
  C   C17       1.0  0.10436  0.32477  0.16611  1.0000
  C   C18       1.0  0.39565  0.67523  0.66611  1.0000
  C   C19       1.0  0.89564  0.67522  0.83389  1.0000
  C   C20       1.0  0.60435  0.32478  0.33389  1.0000
  C   C21       1.0  0.04660  0.50043  0.15303  1.0000
  C   C22       1.0  0.45340  0.49957  0.65303  1.0000
  C   C23       1.0  0.95340  0.49957  0.84697  1.0000
  C   C24       1.0  0.54659  0.50044  0.34697  1.0000
  C   C25       1.0  0.99839  0.60972  0.22466  1.0000
  C   C26       1.0  0.50161  0.39028  0.72466  1.0000
  C   C27       1.0  0.00162  0.39028  0.77534  1.0000
  C   C28       1.0  0.49838  0.60972  0.27534  1.0000
  C   C29       1.0  0.00878  0.54616  0.31494  1.0000
  C   C30       1.0  0.49123  0.45384  0.81494  1.0000
  C   C31       1.0  0.99122  0.45384  0.68506  1.0000
  C   C32       1.0  0.50877  0.54616  0.18506  1.0000
  C   C33       1.0  0.07391  0.36685  0.32857  1.0000
  C   C34       1.0  0.42610  0.63315  0.82857  1.0000
  C   C35       1.0  0.92609  0.63315  0.67143  1.0000
  C   C36       1.0  0.57390  0.36685  0.17143  1.0000
  N   N1        1.0  0.08749  0.31808  0.41752  1.0000
  N   N2        1.0  0.41252  0.68192  0.91751  1.0000
  N   N3        1.0  0.91252  0.68192  0.58248  1.0000
  N   N4        1.0  0.58748  0.31808  0.08249  1.0000
  N   N5        1.0  0.14533  0.22403  0.08690  1.0000
  N   N6        1.0  0.35468  0.77597  0.58690  1.0000
  N   N7        1.0  0.85467  0.77596  0.91309  1.0000
  N   N8        1.0  0.64532  0.22405  0.41310  1.0000
  O   O1        1.0  0.96338  0.63752  0.38578  1.0000
  O   O2        1.0  0.53663  0.36248  0.88578  1.0000
  O   O3        1.0  0.03663  0.36249  0.61422  1.0000
  O   O4        1.0  0.46337  0.63752  0.11422  1.0000
  O   O5        1.0  0.16710  0.30935  0.01202  1.0000
  O   O6        1.0  0.33290  0.69064  0.51202  1.0000
  O   O7        1.0  0.83290  0.69064  0.98797  1.0000
  O   O8        1.0  0.66709  0.30937  0.48798  1.0000
  O   O9        1.0  0.15991  0.05388  0.09300  1.0000
  O   O10       1.0  0.34011  0.94611  0.59299  1.0000
  O   O11       1.0  0.84011  0.94611  0.90700  1.0000
  O   O12       1.0  0.65990  0.05390  0.40701  1.0000
