data_image0
_chemical_formula_structural       Cu2H36C36I2N4
_chemical_formula_sum              "Cu2 H36 C36 I2 N4"
_cell_length_a       8.31252
_cell_length_b       10.1809
_cell_length_c       10.1809
_cell_angle_alpha    80.4351
_cell_angle_beta     86.385
_cell_angle_gamma    86.3849

_space_group_name_H-M_alt    "P 1"
_space_group_IT_number       1

loop_
  _space_group_symop_operation_xyz
  'x, y, z'

loop_
  _atom_site_type_symbol
  _atom_site_label
  _atom_site_symmetry_multiplicity
  _atom_site_fract_x
  _atom_site_fract_y
  _atom_site_fract_z
  _atom_site_occupancy
  Cu  Cu1       1.0  0.88320  0.06379  0.06379  1.0000
  Cu  Cu2       1.0  0.11681  0.93620  0.93620  1.0000
  H   H1        1.0  0.61778  0.89078  0.14872  1.0000
  H   H2        1.0  0.38222  0.85128  0.10922  1.0000
  H   H3        1.0  0.38222  0.10922  0.85128  1.0000
  H   H4        1.0  0.61778  0.14872  0.89078  1.0000
  H   H5        1.0  0.47314  0.78980  0.36131  1.0000
  H   H6        1.0  0.52686  0.63869  0.21020  1.0000
  H   H7        1.0  0.52687  0.21020  0.63869  1.0000
  H   H8        1.0  0.47314  0.36131  0.78980  1.0000
  H   H9        1.0  0.80706  0.97215  0.57327  1.0000
  H   H10       1.0  0.19294  0.42673  0.02785  1.0000
  H   H11       1.0  0.19294  0.02785  0.42673  1.0000
  H   H12       1.0  0.80706  0.57327  0.97215  1.0000
  H   H13       1.0  0.93419  0.07015  0.35117  1.0000
  H   H14       1.0  0.06581  0.64883  0.92985  1.0000
  H   H15       1.0  0.06581  0.92985  0.64883  1.0000
  H   H16       1.0  0.93419  0.35117  0.07015  1.0000
  H   H17       1.0  0.42600  0.79101  0.60237  1.0000
  H   H18       1.0  0.57400  0.39763  0.20899  1.0000
  H   H19       1.0  0.57400  0.20899  0.39763  1.0000
  H   H20       1.0  0.42600  0.60237  0.79101  1.0000
  H   H21       1.0  0.55554  0.87376  0.68972  1.0000
  H   H22       1.0  0.44446  0.31028  0.12624  1.0000
  H   H23       1.0  0.44446  0.12624  0.31028  1.0000
  H   H24       1.0  0.55554  0.68972  0.87376  1.0000
  H   H25       1.0  0.63706  0.60164  0.60164  1.0000
  H   H26       1.0  0.36294  0.39836  0.39836  1.0000
  H   H27       1.0  0.76527  0.68690  0.68690  1.0000
  H   H28       1.0  0.23473  0.31310  0.31310  1.0000
  H   H29       1.0  0.18561  0.71258  0.52377  1.0000
  H   H30       1.0  0.81439  0.47623  0.28742  1.0000
  H   H31       1.0  0.81439  0.28742  0.47623  1.0000
  H   H32       1.0  0.18561  0.52377  0.71258  1.0000
  H   H33       1.0  0.09289  0.81634  0.30028  1.0000
  H   H34       1.0  0.90711  0.69972  0.18366  1.0000
  H   H35       1.0  0.90711  0.18366  0.69972  1.0000
  H   H36       1.0  0.09289  0.30028  0.81634  1.0000
  C   C1        1.0  0.65461  0.90681  0.24553  1.0000
  C   C2        1.0  0.34539  0.75447  0.09318  1.0000
  C   C3        1.0  0.34539  0.09319  0.75447  1.0000
  C   C4        1.0  0.65461  0.24553  0.90682  1.0000
  C   C5        1.0  0.57662  0.84993  0.36396  1.0000
  C   C6        1.0  0.42338  0.63604  0.15007  1.0000
  C   C7        1.0  0.42338  0.15007  0.63604  1.0000
  C   C8        1.0  0.57662  0.36396  0.84993  1.0000
  C   C9        1.0  0.63054  0.87035  0.48600  1.0000
  C   C10       1.0  0.36946  0.51399  0.12965  1.0000
  C   C11       1.0  0.36946  0.12965  0.51400  1.0000
  C   C12       1.0  0.63054  0.48600  0.87035  1.0000
  C   C13       1.0  0.76154  0.95160  0.48092  1.0000
  C   C14       1.0  0.23846  0.51908  0.04840  1.0000
  C   C15       1.0  0.23846  0.04840  0.51908  1.0000
  C   C16       1.0  0.76154  0.48092  0.95160  1.0000
  C   C17       1.0  0.83230  0.00623  0.35844  1.0000
  C   C18       1.0  0.16770  0.64156  0.99378  1.0000
  C   C19       1.0  0.16770  0.99378  0.64156  1.0000
  C   C20       1.0  0.83230  0.35844  0.00623  1.0000
  C   C21       1.0  0.55342  0.80648  0.61577  1.0000
  C   C22       1.0  0.44658  0.38423  0.19352  1.0000
  C   C23       1.0  0.44658  0.19352  0.38423  1.0000
  C   C24       1.0  0.55342  0.61577  0.80648  1.0000
  C   C25       1.0  0.63786  0.67245  0.67245  1.0000
  C   C26       1.0  0.36214  0.32755  0.32755  1.0000
  C   C27       1.0  0.05352  0.53404  0.53404  1.0000
  C   C28       1.0  0.94648  0.46596  0.46596  1.0000
  C   C29       1.0  0.10454  0.66107  0.47150  1.0000
  C   C30       1.0  0.89545  0.52850  0.33893  1.0000
  C   C31       1.0  0.89545  0.33893  0.52849  1.0000
  C   C32       1.0  0.10454  0.47151  0.66107  1.0000
  C   C33       1.0  0.05296  0.71890  0.34790  1.0000
  C   C34       1.0  0.94703  0.65210  0.28110  1.0000
  C   C35       1.0  0.94703  0.28110  0.65210  1.0000
  C   C36       1.0  0.05296  0.34790  0.71890  1.0000
  I   I1        1.0  0.18520  0.10281  0.10281  1.0000
  I   I2        1.0  0.81481  0.89719  0.89719  1.0000
  N   N1        1.0  0.78179  0.98371  0.24101  1.0000
  N   N2        1.0  0.21822  0.75898  0.01629  1.0000
  N   N3        1.0  0.21822  0.01629  0.75898  1.0000
  N   N4        1.0  0.78179  0.24101  0.98371  1.0000
