data_image0
_chemical_formula_structural       Zn3H34C36N12O18
_chemical_formula_sum              "Zn3 H34 C36 N12 O18"
_cell_length_a       10.2447
_cell_length_b       10.5993
_cell_length_c       12.7665
_cell_angle_alpha    105.09
_cell_angle_beta     96.0224
_cell_angle_gamma    99.1466

_space_group_name_H-M_alt    "P 1"
_space_group_IT_number       1

loop_
  _space_group_symop_operation_xyz
  'x, y, z'

loop_
  _atom_site_type_symbol
  _atom_site_label
  _atom_site_symmetry_multiplicity
  _atom_site_fract_x
  _atom_site_fract_y
  _atom_site_fract_z
  _atom_site_occupancy
  Zn  Zn1       1.0  0.39418  0.11728  0.35032  1.0000
  Zn  Zn2       1.0  0.60583  0.88272  0.64968  1.0000
  Zn  Zn3       1.0  0.00000  0.50000  0.50000  1.0000
  H   H1        1.0  0.42353  0.27552  0.00147  1.0000
  H   H2        1.0  0.57646  0.72447  0.99853  1.0000
  H   H3        1.0  0.37862  0.32973  0.51654  1.0000
  H   H4        1.0  0.62138  0.67027  0.48346  1.0000
  H   H5        1.0  0.53373  0.31581  0.49876  1.0000
  H   H6        1.0  0.46627  0.68419  0.50125  1.0000
  H   H7        1.0  0.02180  0.41661  0.29618  1.0000
  H   H8        1.0  0.97820  0.58339  0.70381  1.0000
  H   H9        1.0  0.05451  0.29384  0.33966  1.0000
  H   H10       1.0  0.94549  0.70616  0.66035  1.0000
  H   H11       1.0  0.76085  0.33545  0.45748  1.0000
  H   H12       1.0  0.23915  0.66456  0.54252  1.0000
  H   H13       1.0  0.75423  0.48800  0.46847  1.0000
  H   H14       1.0  0.24577  0.51200  0.53154  1.0000
  H   H15       1.0  0.28992  0.86216  0.16848  1.0000
  H   H16       1.0  0.71008  0.13784  0.83152  1.0000
  H   H17       1.0  0.22443  0.70658  0.97771  1.0000
  H   H18       1.0  0.77557  0.29341  0.02229  1.0000
  H   H19       1.0  0.24094  0.78892  0.81489  1.0000
  H   H20       1.0  0.75907  0.21107  0.18511  1.0000
  H   H21       1.0  0.32427  0.03025  0.83470  1.0000
  H   H22       1.0  0.67573  0.96974  0.16530  1.0000
  H   H23       1.0  0.40225  0.42310  0.28183  1.0000
  H   H24       1.0  0.59774  0.57690  0.71817  1.0000
  H   H25       1.0  0.55991  0.37751  0.30147  1.0000
  H   H26       1.0  0.44009  0.62249  0.69853  1.0000
  H   H27       1.0  0.39016  0.59919  0.16691  1.0000
  H   H28       1.0  0.60984  0.40081  0.83309  1.0000
  H   H29       1.0  0.05966  0.82054  0.36972  1.0000
  H   H30       1.0  0.94033  0.17946  0.63028  1.0000
  H   H31       1.0  0.64152  0.81885  0.38631  1.0000
  H   H32       1.0  0.35848  0.18115  0.61369  1.0000
  H   H33       1.0  0.89324  0.16498  0.35362  1.0000
  H   H34       1.0  0.10676  0.83503  0.64639  1.0000
  C   C1        1.0  0.34530  0.03200  0.10619  1.0000
  C   C2        1.0  0.65469  0.96800  0.89381  1.0000
  C   C3        1.0  0.29802  0.89733  0.09595  1.0000
  C   C4        1.0  0.70198  0.10268  0.90405  1.0000
  C   C5        1.0  0.26108  0.81241  0.98984  1.0000
  C   C6        1.0  0.73892  0.18758  0.01017  1.0000
  C   C7        1.0  0.27068  0.85920  0.89643  1.0000
  C   C8        1.0  0.72932  0.14079  0.10358  1.0000
  C   C9        1.0  0.31717  0.99311  0.90609  1.0000
  C   C10       1.0  0.68283  0.00688  0.09391  1.0000
  C   C11       1.0  0.35389  0.07815  0.01245  1.0000
  C   C12       1.0  0.64610  0.92184  0.98755  1.0000
  C   C13       1.0  0.42589  0.24583  0.16308  1.0000
  C   C14       1.0  0.57411  0.75417  0.83692  1.0000
  C   C15       1.0  0.48061  0.38275  0.23877  1.0000
  C   C16       1.0  0.51939  0.61725  0.76122  1.0000
  C   C17       1.0  0.48583  0.57329  0.15119  1.0000
  C   C18       1.0  0.51417  0.42671  0.84881  1.0000
  C   C19       1.0  0.99136  0.99893  0.35672  1.0000
  C   C20       1.0  0.00865  0.00107  0.64328  1.0000
  C   C21       1.0  0.97434  0.86961  0.36742  1.0000
  C   C22       1.0  0.02565  0.13039  0.63259  1.0000
  C   C23       1.0  0.84914  0.80393  0.37919  1.0000
  C   C24       1.0  0.15086  0.19607  0.62081  1.0000
  C   C25       1.0  0.74000  0.86781  0.37810  1.0000
  C   C26       1.0  0.25999  0.13220  0.62189  1.0000
  C   C27       1.0  0.75702  0.99836  0.37018  1.0000
  C   C28       1.0  0.24298  0.00164  0.62982  1.0000
  C   C29       1.0  0.88245  0.06358  0.35962  1.0000
  C   C30       1.0  0.11755  0.93643  0.64038  1.0000
  C   C31       1.0  0.12719  0.07026  0.35027  1.0000
  C   C32       1.0  0.87281  0.92974  0.64973  1.0000
  C   C33       1.0  0.83829  0.67151  0.40243  1.0000
  C   C34       1.0  0.16170  0.32849  0.59756  1.0000
  C   C35       1.0  0.64211  0.06929  0.37291  1.0000
  C   C36       1.0  0.35789  0.93071  0.62709  1.0000
  N   N1        1.0  0.39145  0.13975  0.19895  1.0000
  N   N2        1.0  0.60854  0.86025  0.80105  1.0000
  N   N3        1.0  0.40439  0.21384  0.05185  1.0000
  N   N4        1.0  0.59561  0.78615  0.94815  1.0000
  N   N5        1.0  0.53615  0.47604  0.18165  1.0000
  N   N6        1.0  0.46385  0.52396  0.81834  1.0000
  N   N7        1.0  0.65707  0.47253  0.14763  1.0000
  N   N8        1.0  0.34293  0.52747  0.85237  1.0000
  N   N9        1.0  0.57238  0.62957  0.09882  1.0000
  N   N10       1.0  0.42762  0.37043  0.90118  1.0000
  N   N11       1.0  0.67739  0.56445  0.09795  1.0000
  N   N12       1.0  0.32261  0.43555  0.90205  1.0000
  O   O1        1.0  0.22345  0.00610  0.35648  1.0000
  O   O2        1.0  0.77655  0.99390  0.64351  1.0000
  O   O3        1.0  0.14668  0.18793  0.34198  1.0000
  O   O4        1.0  0.85332  0.81207  0.65802  1.0000
  O   O5        1.0  0.94629  0.62852  0.41257  1.0000
  O   O6        1.0  0.05371  0.37147  0.58742  1.0000
  O   O7        1.0  0.72378  0.61013  0.41311  1.0000
  O   O8        1.0  0.27622  0.38987  0.58689  1.0000
  O   O9        1.0  0.52469  0.99943  0.36533  1.0000
  O   O10       1.0  0.47531  0.00058  0.63468  1.0000
  O   O11       1.0  0.66159  0.19241  0.37956  1.0000
  O   O12       1.0  0.33841  0.80759  0.62043  1.0000
  O   O13       1.0  0.44152  0.29866  0.46243  1.0000
  O   O14       1.0  0.55848  0.70133  0.53758  1.0000
  O   O15       1.0  0.99350  0.36117  0.34263  1.0000
  O   O16       1.0  0.00650  0.63884  0.65737  1.0000
  O   O17       1.0  0.79256  0.42766  0.50699  1.0000
  O   O18       1.0  0.20745  0.57235  0.49301  1.0000
