data_image0
_chemical_formula_structural       Cr2H18C16N2O8
_chemical_formula_sum              "Cr2 H18 C16 N2 O8"
_cell_length_a       7.19739
_cell_length_b       8.01719
_cell_length_c       8.39463
_cell_angle_alpha    103.925
_cell_angle_beta     99.3566
_cell_angle_gamma    101.377

_space_group_name_H-M_alt    "P 1"
_space_group_IT_number       1

loop_
  _space_group_symop_operation_xyz
  'x, y, z'

loop_
  _atom_site_type_symbol
  _atom_site_label
  _atom_site_symmetry_multiplicity
  _atom_site_fract_x
  _atom_site_fract_y
  _atom_site_fract_z
  _atom_site_occupancy
  Cr  Cr1       1.0  0.40114  0.92071  0.41203  1.0000
  Cr  Cr2       1.0  0.59885  0.07928  0.58797  1.0000
  H   H1        1.0  0.95436  0.87617  0.28953  1.0000
  H   H2        1.0  0.04564  0.12383  0.71045  1.0000
  H   H3        1.0  0.71581  0.48775  0.40581  1.0000
  H   H4        1.0  0.28418  0.51225  0.59420  1.0000
  H   H5        1.0  0.93863  0.65352  0.51000  1.0000
  H   H6        1.0  0.06137  0.34649  0.48998  1.0000
  H   H7        1.0  0.78063  0.56613  0.62828  1.0000
  H   H8        1.0  0.21938  0.43389  0.37172  1.0000
  H   H9        1.0  0.71259  0.08113  0.02504  1.0000
  H   H10       1.0  0.28744  0.91887  0.97497  1.0000
  H   H11       1.0  0.81718  0.29145  0.17755  1.0000
  H   H12       1.0  0.18283  0.70856  0.82247  1.0000
  H   H13       1.0  0.93794  0.12006  0.17446  1.0000
  H   H14       1.0  0.06209  0.87996  0.82557  1.0000
  H   H15       1.0  0.38703  0.54522  0.14816  1.0000
  H   H16       1.0  0.61298  0.45477  0.85183  1.0000
  H   H17       1.0  0.63723  0.73203  0.08450  1.0000
  H   H18       1.0  0.36277  0.26797  0.91548  1.0000
  C   C1        1.0  0.68222  0.74879  0.50843  1.0000
  C   C2        1.0  0.31776  0.25121  0.49156  1.0000
  C   C3        1.0  0.68584  0.09094  0.27864  1.0000
  C   C4        1.0  0.31416  0.90906  0.72137  1.0000
  C   C5        1.0  0.08795  0.54658  0.06142  1.0000
  C   C6        1.0  0.91205  0.45341  0.93858  1.0000
  C   C7        1.0  0.93975  0.75591  0.18914  1.0000
  C   C8        1.0  0.06025  0.24409  0.81085  1.0000
  C   C9        1.0  0.78557  0.60492  0.51189  1.0000
  C   C10       1.0  0.21442  0.39508  0.48811  1.0000
  C   C11       1.0  0.79336  0.14724  0.15451  1.0000
  C   C12       1.0  0.20666  0.85277  0.84552  1.0000
  C   C13       1.0  0.25386  0.47762  0.05313  1.0000
  C   C14       1.0  0.74614  0.52237  0.94687  1.0000
  C   C15       1.0  0.76037  0.67352  0.07276  1.0000
  C   C16       1.0  0.23963  0.32648  0.92723  1.0000
  N   N1        1.0  0.09937  0.69764  0.18467  1.0000
  N   N2        1.0  0.90062  0.30236  0.81532  1.0000
  O   O1        1.0  0.52108  0.71745  0.40154  1.0000
  O   O2        1.0  0.47891  0.28255  0.59846  1.0000
  O   O3        1.0  0.52276  0.97350  0.22815  1.0000
  O   O4        1.0  0.47723  0.02648  0.77185  1.0000
  O   O5        1.0  0.24593  0.09615  0.38786  1.0000
  O   O6        1.0  0.75407  0.90385  0.61213  1.0000
  O   O7        1.0  0.24228  0.83892  0.56326  1.0000
  O   O8        1.0  0.75771  0.16109  0.43676  1.0000
