data_image0
_chemical_formula_structural       Cd4H32C56S8N8O36
_chemical_formula_sum              "Cd4 H32 C56 S8 N8 O36"
_cell_length_a       7.49431
_cell_length_b       10.7275
_cell_length_c       21.8629
_cell_angle_alpha    94.6104
_cell_angle_beta     89.9996
_cell_angle_gamma    90.0001

_space_group_name_H-M_alt    "P 1"
_space_group_IT_number       1

loop_
  _space_group_symop_operation_xyz
  'x, y, z'

loop_
  _atom_site_type_symbol
  _atom_site_label
  _atom_site_symmetry_multiplicity
  _atom_site_fract_x
  _atom_site_fract_y
  _atom_site_fract_z
  _atom_site_occupancy
  Cd  Cd1       1.0  0.70678  0.05355  0.23130  1.0000
  Cd  Cd2       1.0  0.20678  0.94645  0.26870  1.0000
  Cd  Cd3       1.0  0.29322  0.94645  0.76870  1.0000
  Cd  Cd4       1.0  0.79322  0.05355  0.73130  1.0000
  H   H1        1.0  0.08366  0.63179  0.79996  1.0000
  H   H2        1.0  0.58367  0.36820  0.70004  1.0000
  H   H3        1.0  0.91634  0.36820  0.20004  1.0000
  H   H4        1.0  0.41634  0.63180  0.29996  1.0000
  H   H5        1.0  0.08581  0.66901  0.68865  1.0000
  H   H6        1.0  0.58582  0.33099  0.81135  1.0000
  H   H7        1.0  0.91420  0.33100  0.31135  1.0000
  H   H8        1.0  0.41418  0.66901  0.18865  1.0000
  H   H9        1.0  0.16077  0.27163  0.64391  1.0000
  H   H10       1.0  0.66077  0.72836  0.85609  1.0000
  H   H11       1.0  0.83923  0.72837  0.35609  1.0000
  H   H12       1.0  0.33923  0.27164  0.14391  1.0000
  H   H13       1.0  0.17511  0.18670  0.43040  1.0000
  H   H14       1.0  0.67511  0.81330  0.06960  1.0000
  H   H15       1.0  0.82489  0.81331  0.56960  1.0000
  H   H16       1.0  0.32489  0.18670  0.93040  1.0000
  H   H17       1.0  0.83900  0.34697  0.57722  1.0000
  H   H18       1.0  0.33900  0.65303  0.92278  1.0000
  H   H19       1.0  0.16100  0.65303  0.42278  1.0000
  H   H20       1.0  0.66099  0.34697  0.07722  1.0000
  H   H21       1.0  0.58488  0.21986  0.53400  1.0000
  H   H22       1.0  0.08488  0.78014  0.96600  1.0000
  H   H23       1.0  0.41512  0.78014  0.46600  1.0000
  H   H24       1.0  0.91511  0.21987  0.03400  1.0000
  H   H25       1.0  0.93991  0.11444  0.13955  1.0000
  H   H26       1.0  0.43990  0.88556  0.36045  1.0000
  H   H27       1.0  0.06009  0.88556  0.86045  1.0000
  H   H28       1.0  0.56009  0.11444  0.63955  1.0000
  H   H29       1.0  0.00636  0.17325  0.20269  1.0000
  H   H30       1.0  0.50636  0.82675  0.29731  1.0000
  H   H31       1.0  0.99364  0.82675  0.79731  1.0000
  H   H32       1.0  0.49364  0.17325  0.70269  1.0000
  C   C1        1.0  0.16923  0.19925  0.75761  1.0000
  C   C2        1.0  0.66924  0.80075  0.74239  1.0000
  C   C3        1.0  0.83077  0.80075  0.24239  1.0000
  C   C4        1.0  0.33076  0.19925  0.25761  1.0000
  C   C5        1.0  0.14323  0.33064  0.74026  1.0000
  C   C6        1.0  0.64323  0.66936  0.75974  1.0000
  C   C7        1.0  0.85677  0.66936  0.25974  1.0000
  C   C8        1.0  0.35677  0.33064  0.24026  1.0000
  C   C9        1.0  0.11969  0.43380  0.78318  1.0000
  C   C10       1.0  0.61969  0.56620  0.71682  1.0000
  C   C11       1.0  0.88031  0.56620  0.21682  1.0000
  C   C12       1.0  0.38031  0.43380  0.28318  1.0000
  C   C13       1.0  0.09583  0.55433  0.76490  1.0000
  C   C14       1.0  0.59583  0.44567  0.73510  1.0000
  C   C15       1.0  0.90418  0.44567  0.23510  1.0000
  C   C16       1.0  0.40417  0.55433  0.26490  1.0000
  C   C17       1.0  0.09785  0.57426  0.70307  1.0000
  C   C18       1.0  0.59785  0.42574  0.79693  1.0000
  C   C19       1.0  0.90216  0.42574  0.29693  1.0000
  C   C20       1.0  0.40215  0.57426  0.20307  1.0000
  C   C21       1.0  0.12143  0.47177  0.65939  1.0000
  C   C22       1.0  0.62144  0.52823  0.84062  1.0000
  C   C23       1.0  0.87857  0.52823  0.34061  1.0000
  C   C24       1.0  0.37856  0.47177  0.15938  1.0000
  C   C25       1.0  0.14235  0.35062  0.67801  1.0000
  C   C26       1.0  0.64235  0.64938  0.82199  1.0000
  C   C27       1.0  0.85766  0.64938  0.32199  1.0000
  C   C28       1.0  0.35765  0.35063  0.17801  1.0000
  C   C29       1.0  0.92697  0.06487  0.36307  1.0000
  C   C30       1.0  0.42696  0.93512  0.13693  1.0000
  C   C31       1.0  0.07303  0.93513  0.63693  1.0000
  C   C32       1.0  0.57303  0.06488  0.86307  1.0000
  C   C33       1.0  0.90283  0.12555  0.42750  1.0000
  C   C34       1.0  0.40283  0.87445  0.07250  1.0000
  C   C35       1.0  0.09717  0.87445  0.57250  1.0000
  C   C36       1.0  0.59717  0.12556  0.92750  1.0000
  C   C37       1.0  0.04687  0.19180  0.45367  1.0000
  C   C38       1.0  0.54687  0.80820  0.04633  1.0000
  C   C39       1.0  0.95313  0.80820  0.54633  1.0000
  C   C40       1.0  0.45313  0.19180  0.95367  1.0000
  C   C41       1.0  0.02514  0.27131  0.50750  1.0000
  C   C42       1.0  0.52514  0.72869  0.99250  1.0000
  C   C43       1.0  0.97486  0.72869  0.49250  1.0000
  C   C44       1.0  0.47485  0.27132  0.00750  1.0000
  C   C45       1.0  0.85817  0.28369  0.53627  1.0000
  C   C46       1.0  0.35817  0.71631  0.96373  1.0000
  C   C47       1.0  0.14183  0.71631  0.46373  1.0000
  C   C48       1.0  0.64182  0.28370  0.03627  1.0000
  C   C49       1.0  0.71485  0.21477  0.51171  1.0000
  C   C50       1.0  0.21485  0.78523  0.98829  1.0000
  C   C51       1.0  0.28515  0.78523  0.48829  1.0000
  C   C52       1.0  0.78515  0.21478  0.01171  1.0000
  C   C53       1.0  0.73777  0.13574  0.45825  1.0000
  C   C54       1.0  0.23777  0.86426  0.04175  1.0000
  C   C55       1.0  0.26223  0.86426  0.54175  1.0000
  C   C56       1.0  0.76223  0.13574  0.95825  1.0000
  S   S1        1.0  0.12495  0.50862  0.58236  1.0000
  S   S2        1.0  0.62496  0.49138  0.91764  1.0000
  S   S3        1.0  0.87505  0.49138  0.41764  1.0000
  S   S4        1.0  0.37504  0.50862  0.08236  1.0000
  S   S5        1.0  0.21882  0.35431  0.53282  1.0000
  S   S6        1.0  0.71882  0.64568  0.96718  1.0000
  S   S7        1.0  0.78118  0.64569  0.46718  1.0000
  S   S8        1.0  0.28117  0.35432  0.03281  1.0000
  N   N1        1.0  0.13333  0.41914  0.84859  1.0000
  N   N2        1.0  0.63332  0.58086  0.65141  1.0000
  N   N3        1.0  0.86668  0.58086  0.15141  1.0000
  N   N4        1.0  0.36668  0.41914  0.34859  1.0000
  N   N5        1.0  0.58892  0.05969  0.43642  1.0000
  N   N6        1.0  0.08892  0.94031  0.06357  1.0000
  N   N7        1.0  0.41108  0.94030  0.56358  1.0000
  N   N8        1.0  0.91108  0.05970  0.93643  1.0000
  O   O1        1.0  0.04195  0.13894  0.77908  1.0000
  O   O2        1.0  0.54195  0.86107  0.72092  1.0000
  O   O3        1.0  0.95805  0.86107  0.22092  1.0000
  O   O4        1.0  0.45805  0.13893  0.27908  1.0000
  O   O5        1.0  0.32260  0.15062  0.74643  1.0000
  O   O6        1.0  0.82261  0.84938  0.75357  1.0000
  O   O7        1.0  0.67740  0.84938  0.25357  1.0000
  O   O8        1.0  0.17739  0.15063  0.24643  1.0000
  O   O9        1.0  0.20614  0.32226  0.86424  1.0000
  O   O10       1.0  0.70613  0.67774  0.63576  1.0000
  O   O11       1.0  0.79387  0.67774  0.13576  1.0000
  O   O12       1.0  0.29388  0.32226  0.36424  1.0000
  O   O13       1.0  0.07571  0.50434  0.88523  1.0000
  O   O14       1.0  0.57570  0.49566  0.61477  1.0000
  O   O15       1.0  0.92429  0.49566  0.11477  1.0000
  O   O16       1.0  0.42430  0.50434  0.38523  1.0000
  O   O17       1.0  0.83741  0.11552  0.32241  1.0000
  O   O18       1.0  0.33740  0.88448  0.17759  1.0000
  O   O19       1.0  0.16259  0.88448  0.67759  1.0000
  O   O20       1.0  0.66259  0.11553  0.82241  1.0000
  O   O21       1.0  0.04216  0.97846  0.35556  1.0000
  O   O22       1.0  0.54217  0.02153  0.14444  1.0000
  O   O23       1.0  0.95783  0.02153  0.64444  1.0000
  O   O24       1.0  0.45783  0.97847  0.85556  1.0000
  O   O25       1.0  0.62257  0.96287  0.40207  1.0000
  O   O26       1.0  0.12258  0.03713  0.09793  1.0000
  O   O27       1.0  0.37743  0.03713  0.59793  1.0000
  O   O28       1.0  0.87742  0.96287  0.90207  1.0000
  O   O29       1.0  0.43561  0.08937  0.45328  1.0000
  O   O30       1.0  0.93561  0.91063  0.04672  1.0000
  O   O31       1.0  0.56439  0.91063  0.54672  1.0000
  O   O32       1.0  0.06439  0.08937  0.95328  1.0000
  O   O33       1.0  0.89642  0.16505  0.17652  1.0000
  O   O34       1.0  0.39642  0.83495  0.32348  1.0000
  O   O35       1.0  0.10358  0.83495  0.82348  1.0000
  O   O36       1.0  0.60358  0.16505  0.67652  1.0000
