data_image0
_chemical_formula_structural       Zn4H24C24N16
_chemical_formula_sum              "Zn4 H24 C24 N16"
_cell_length_a       9.34919
_cell_length_b       10.4137
_cell_length_c       12.8101
_cell_angle_alpha    80.5668
_cell_angle_beta     68.5974
_cell_angle_gamma    63.3324

_space_group_name_H-M_alt    "P 1"
_space_group_IT_number       1

loop_
  _space_group_symop_operation_xyz
  'x, y, z'

loop_
  _atom_site_type_symbol
  _atom_site_label
  _atom_site_symmetry_multiplicity
  _atom_site_fract_x
  _atom_site_fract_y
  _atom_site_fract_z
  _atom_site_occupancy
  Zn  Zn1       1.0  0.56189  0.09214  0.37034  1.0000
  Zn  Zn2       1.0  0.02434  0.90786  0.62965  1.0000
  Zn  Zn3       1.0  0.40401  0.40789  0.87035  1.0000
  Zn  Zn4       1.0  0.68226  0.59211  0.12965  1.0000
  H   H1        1.0  0.69899  0.99689  0.57305  1.0000
  H   H2        1.0  0.26890  0.00313  0.42691  1.0000
  H   H3        1.0  0.44584  0.50323  0.07301  1.0000
  H   H4        1.0  0.02208  0.49689  0.92697  1.0000
  H   H5        1.0  0.19651  0.87700  0.34706  1.0000
  H   H6        1.0  0.42057  0.12298  0.65292  1.0000
  H   H7        1.0  0.82368  0.62292  0.84700  1.0000
  H   H8        1.0  0.29356  0.37702  0.15300  1.0000
  H   H9        1.0  0.97482  0.96084  0.22748  1.0000
  H   H10       1.0  0.16313  0.03912  0.77249  1.0000
  H   H11       1.0  0.68575  0.53915  0.72743  1.0000
  H   H12       1.0  0.95229  0.46081  0.27255  1.0000
  H   H13       1.0  0.74477  0.77500  0.27083  1.0000
  H   H14       1.0  0.79060  0.22499  0.72917  1.0000
  H   H15       1.0  0.26967  0.72498  0.77076  1.0000
  H   H16       1.0  0.76533  0.27510  0.22918  1.0000
  H   H17       1.0  0.40023  0.90915  0.09367  1.0000
  H   H18       1.0  0.40309  0.09079  0.90643  1.0000
  H   H19       1.0  0.05933  0.59076  0.59363  1.0000
  H   H20       1.0  0.24369  0.40920  0.40643  1.0000
  H   H21       1.0  0.35195  0.14465  0.19903  1.0000
  H   H22       1.0  0.69560  0.85533  0.80098  1.0000
  H   H23       1.0  0.24652  0.35527  0.69905  1.0000
  H   H24       1.0  0.30076  0.64473  0.30098  1.0000
  C   C1        1.0  0.80418  0.97548  0.49496  1.0000
  C   C2        1.0  0.27460  0.02453  0.50500  1.0000
  C   C3        1.0  0.52965  0.52461  0.99493  1.0000
  C   C4        1.0  0.04918  0.47547  0.00506  1.0000
  C   C5        1.0  0.05995  0.91368  0.37714  1.0000
  C   C6        1.0  0.35076  0.08631  0.62283  1.0000
  C   C7        1.0  0.72375  0.58629  0.87709  1.0000
  C   C8        1.0  0.18710  0.41368  0.12290  1.0000
  C   C9        1.0  0.94966  0.95617  0.31731  1.0000
  C   C10       1.0  0.22312  0.04382  0.68265  1.0000
  C   C11       1.0  0.65590  0.54385  0.81727  1.0000
  C   C12       1.0  0.01699  0.45613  0.18272  1.0000
  C   C13       1.0  0.64372  0.84376  0.23724  1.0000
  C   C14       1.0  0.72472  0.15622  0.76280  1.0000
  C   C15       1.0  0.23737  0.65620  0.73720  1.0000
  C   C16       1.0  0.63069  0.34385  0.26278  1.0000
  C   C17       1.0  0.46364  0.91586  0.14719  1.0000
  C   C18       1.0  0.52672  0.08408  0.85289  1.0000
  C   C19       1.0  0.12943  0.58405  0.64717  1.0000
  C   C20       1.0  0.36060  0.41595  0.35286  1.0000
  C   C21       1.0  0.44088  0.03296  0.19887  1.0000
  C   C22       1.0  0.67272  0.96700  0.80116  1.0000
  C   C23       1.0  0.22375  0.46698  0.69887  1.0000
  C   C24       1.0  0.38953  0.53304  0.30114  1.0000
  N   N1        1.0  0.78727  0.99515  0.39291  1.0000
  N   N2        1.0  0.17532  0.00485  0.60705  1.0000
  N   N3        1.0  0.53240  0.50495  0.89288  1.0000
  N   N4        1.0  0.93021  0.49511  0.10710  1.0000
  N   N5        1.0  0.96648  0.92617  0.49004  1.0000
  N   N6        1.0  0.38268  0.07384  0.50993  1.0000
  N   N7        1.0  0.64274  0.57385  0.99000  1.0000
  N   N8        1.0  0.20655  0.42618  0.00999  1.0000
  N   N9        1.0  0.55589  0.98631  0.25580  1.0000
  N   N10       1.0  0.79799  0.01368  0.74420  1.0000
  N   N11       1.0  0.29207  0.51364  0.75582  1.0000
  N   N12       1.0  0.56145  0.48640  0.24416  1.0000
  N   N13       1.0  0.59252  0.79619  0.17198  1.0000
  N   N14       1.0  0.56072  0.20378  0.82811  1.0000
  N   N15       1.0  0.13862  0.70375  0.67193  1.0000
  N   N16       1.0  0.51426  0.29627  0.32807  1.0000
