data_image0
_chemical_formula_structural       H32Pb8C32O48
_chemical_formula_sum              "H32 Pb8 C32 O48"
_cell_length_a       10.1262
_cell_length_b       12.2857
_cell_length_c       12.3076
_cell_angle_alpha    80.2178
_cell_angle_beta     65.6847
_cell_angle_gamma    65.5794

_space_group_name_H-M_alt    "P 1"
_space_group_IT_number       1

loop_
  _space_group_symop_operation_xyz
  'x, y, z'

loop_
  _atom_site_type_symbol
  _atom_site_label
  _atom_site_symmetry_multiplicity
  _atom_site_fract_x
  _atom_site_fract_y
  _atom_site_fract_z
  _atom_site_occupancy
  H   H1        1.0  0.27395  0.12615  0.91634  1.0000
  H   H2        1.0  0.31649  0.37375  0.58353  1.0000
  H   H3        1.0  0.40015  0.91632  0.37377  1.0000
  H   H4        1.0  0.69022  0.58362  0.12628  1.0000
  H   H5        1.0  0.22606  0.58373  0.37376  1.0000
  H   H6        1.0  0.18350  0.91641  0.12633  1.0000
  H   H7        1.0  0.10000  0.12618  0.58353  1.0000
  H   H8        1.0  0.80967  0.37386  0.91636  1.0000
  H   H9        1.0  0.72605  0.87385  0.08366  1.0000
  H   H10       1.0  0.68351  0.62625  0.41647  1.0000
  H   H11       1.0  0.59985  0.08367  0.62622  1.0000
  H   H12       1.0  0.30978  0.41638  0.87372  1.0000
  H   H13       1.0  0.77394  0.41627  0.62624  1.0000
  H   H14       1.0  0.81650  0.08358  0.87367  1.0000
  H   H15       1.0  0.90001  0.87382  0.41647  1.0000
  H   H16       1.0  0.19034  0.62614  0.08364  1.0000
  H   H17       1.0  0.04592  0.14872  0.07848  1.0000
  H   H18       1.0  0.27320  0.35119  0.42151  1.0000
  H   H19       1.0  0.19441  0.07881  0.35101  1.0000
  H   H20       1.0  0.62456  0.42116  0.14894  1.0000
  H   H21       1.0  0.45458  0.42124  0.35095  1.0000
  H   H22       1.0  0.22647  0.07879  0.14909  1.0000
  H   H23       1.0  0.30541  0.14871  0.42146  1.0000
  H   H24       1.0  0.87541  0.35143  0.07850  1.0000
  H   H25       1.0  0.95408  0.85128  0.92151  1.0000
  H   H26       1.0  0.72680  0.64881  0.57849  1.0000
  H   H27       1.0  0.80559  0.92120  0.64899  1.0000
  H   H28       1.0  0.37544  0.57884  0.85106  1.0000
  H   H29       1.0  0.54541  0.57876  0.64905  1.0000
  H   H30       1.0  0.77353  0.92120  0.85091  1.0000
  H   H31       1.0  0.69458  0.85128  0.57854  1.0000
  H   H32       1.0  0.12459  0.64857  0.92149  1.0000
  Pb  Pb1       1.0  0.25871  0.98262  0.74999  1.0000
  Pb  Pb2       1.0  0.99124  0.51734  0.75006  1.0000
  Pb  Pb3       1.0  0.24136  0.75005  0.51731  1.0000
  Pb  Pb4       1.0  0.50865  0.74997  0.98275  1.0000
  Pb  Pb5       1.0  0.74125  0.01736  0.25002  1.0000
  Pb  Pb6       1.0  0.00878  0.48266  0.24995  1.0000
  Pb  Pb7       1.0  0.75858  0.25000  0.48274  1.0000
  Pb  Pb8       1.0  0.49136  0.25004  0.01728  1.0000
  C   C1        1.0  0.91585  0.14274  0.98151  1.0000
  C   C2        1.0  0.04001  0.35737  0.51856  1.0000
  C   C3        1.0  0.05857  0.98152  0.35717  1.0000
  C   C4        1.0  0.39736  0.51860  0.14284  1.0000
  C   C5        1.0  0.58428  0.51847  0.35711  1.0000
  C   C6        1.0  0.45982  0.98144  0.14283  1.0000
  C   C7        1.0  0.44154  0.14257  0.51852  1.0000
  C   C8        1.0  0.10261  0.35728  0.98143  1.0000
  C   C9        1.0  0.08416  0.85725  0.01849  1.0000
  C   C10       1.0  0.96000  0.64263  0.48144  1.0000
  C   C11       1.0  0.94142  0.01848  0.64283  1.0000
  C   C12       1.0  0.60264  0.48140  0.85716  1.0000
  C   C13       1.0  0.41571  0.48153  0.64290  1.0000
  C   C14       1.0  0.54018  0.01856  0.85717  1.0000
  C   C15       1.0  0.55846  0.85743  0.48149  1.0000
  C   C16       1.0  0.89737  0.64273  0.01858  1.0000
  C   C17       1.0  0.03563  0.18124  0.99195  1.0000
  C   C18       1.0  0.20885  0.31876  0.50805  1.0000
  C   C19       1.0  0.21690  0.99198  0.31866  1.0000
  C   C20       1.0  0.52766  0.50801  0.18136  1.0000
  C   C21       1.0  0.46450  0.50804  0.31860  1.0000
  C   C22       1.0  0.29101  0.99197  0.18142  1.0000
  C   C23       1.0  0.28317  0.18115  0.50801  1.0000
  C   C24       1.0  0.97227  0.31884  0.99195  1.0000
  C   C25       1.0  0.96438  0.81876  0.00804  1.0000
  C   C26       1.0  0.79115  0.68124  0.49195  1.0000
  C   C27       1.0  0.78309  0.00802  0.68134  1.0000
  C   C28       1.0  0.47234  0.49199  0.81864  1.0000
  C   C29       1.0  0.53549  0.49197  0.68140  1.0000
  C   C30       1.0  0.70898  0.00802  0.81859  1.0000
  C   C31       1.0  0.71684  0.81885  0.49199  1.0000
  C   C32       1.0  0.02773  0.68116  0.00804  1.0000
  O   O1        1.0  0.18218  0.13412  0.89586  1.0000
  O   O2        1.0  0.21227  0.36572  0.60409  1.0000
  O   O3        1.0  0.31661  0.89572  0.36558  1.0000
  O   O4        1.0  0.57786  0.60424  0.13441  1.0000
  O   O5        1.0  0.31780  0.60434  0.36557  1.0000
  O   O6        1.0  0.28771  0.89576  0.13447  1.0000
  O   O7        1.0  0.18370  0.13418  0.60403  1.0000
  O   O8        1.0  0.92191  0.36591  0.89588  1.0000
  O   O9        1.0  0.81782  0.86588  0.10413  1.0000
  O   O10       1.0  0.78773  0.63427  0.39591  1.0000
  O   O11       1.0  0.68339  0.10428  0.63442  1.0000
  O   O12       1.0  0.42214  0.39576  0.86558  1.0000
  O   O13       1.0  0.68219  0.39567  0.63442  1.0000
  O   O14       1.0  0.71228  0.10424  0.86553  1.0000
  O   O15       1.0  0.81631  0.86581  0.39596  1.0000
  O   O16       1.0  0.07809  0.63408  0.10411  1.0000
  O   O17       1.0  0.96113  0.07747  0.89242  1.0000
  O   O18       1.0  0.93068  0.42270  0.60766  1.0000
  O   O19       1.0  0.03853  0.89245  0.42257  1.0000
  O   O20       1.0  0.35353  0.60765  0.07736  1.0000
  O   O21       1.0  0.53885  0.60756  0.42255  1.0000
  O   O22       1.0  0.56919  0.89232  0.07735  1.0000
  O   O23       1.0  0.46166  0.07732  0.60759  1.0000
  O   O24       1.0  0.14646  0.42258  0.89240  1.0000
  O   O25       1.0  0.03887  0.92252  0.10758  1.0000
  O   O26       1.0  0.06932  0.57729  0.39235  1.0000
  O   O27       1.0  0.96147  0.10755  0.57743  1.0000
  O   O28       1.0  0.64646  0.39235  0.92264  1.0000
  O   O29       1.0  0.46115  0.39244  0.57746  1.0000
  O   O30       1.0  0.43081  0.10767  0.92265  1.0000
  O   O31       1.0  0.53834  0.92268  0.39240  1.0000
  O   O32       1.0  0.85354  0.57743  0.10760  1.0000
  O   O33       1.0  0.77847  0.17987  0.06088  1.0000
  O   O34       1.0  0.01928  0.32020  0.43925  1.0000
  O   O35       1.0  0.95831  0.06089  0.31991  1.0000
  O   O36       1.0  0.33940  0.43924  0.18007  1.0000
  O   O37       1.0  0.72185  0.43904  0.31988  1.0000
  O   O38       1.0  0.48049  0.06084  0.18005  1.0000
  O   O39       1.0  0.54162  0.17977  0.43927  1.0000
  O   O40       1.0  0.16061  0.32008  0.06074  1.0000
  O   O41       1.0  0.22153  0.82013  0.93912  1.0000
  O   O42       1.0  0.98073  0.67981  0.56075  1.0000
  O   O43       1.0  0.04169  0.93911  0.68010  1.0000
  O   O44       1.0  0.66060  0.56076  0.81993  1.0000
  O   O45       1.0  0.27815  0.56095  0.68013  1.0000
  O   O46       1.0  0.51951  0.93916  0.81994  1.0000
  O   O47       1.0  0.45837  0.82023  0.56074  1.0000
  O   O48       1.0  0.83941  0.67992  0.93926  1.0000
