data_image0
_chemical_formula_structural       Cu4H60C32S8I4N4O4
_chemical_formula_sum              "Cu4 H60 C32 S8 I4 N4 O4"
_cell_length_a       8.09389
_cell_length_b       10.4699
_cell_length_c       14.4359
_cell_angle_alpha    90
_cell_angle_beta     90.4876
_cell_angle_gamma    90

_space_group_name_H-M_alt    "P 1"
_space_group_IT_number       1

loop_
  _space_group_symop_operation_xyz
  'x, y, z'

loop_
  _atom_site_type_symbol
  _atom_site_label
  _atom_site_symmetry_multiplicity
  _atom_site_fract_x
  _atom_site_fract_y
  _atom_site_fract_z
  _atom_site_occupancy
  Cu  Cu1       1.0  0.03263  0.62991  0.00958  1.0000
  Cu  Cu2       1.0  0.96736  0.12991  0.49042  1.0000
  Cu  Cu3       1.0  0.96737  0.37009  0.99042  1.0000
  Cu  Cu4       1.0  0.03263  0.87009  0.50958  1.0000
  H   H1        1.0  0.41830  0.71374  0.01951  1.0000
  H   H2        1.0  0.58170  0.21374  0.48049  1.0000
  H   H3        1.0  0.58170  0.28626  0.98049  1.0000
  H   H4        1.0  0.41830  0.78626  0.51951  1.0000
  H   H5        1.0  0.31505  0.85972  0.04829  1.0000
  H   H6        1.0  0.68495  0.35972  0.45171  1.0000
  H   H7        1.0  0.68495  0.14028  0.95171  1.0000
  H   H8        1.0  0.31505  0.64028  0.54829  1.0000
  H   H9        1.0  0.45340  0.85681  0.95289  1.0000
  H   H10       1.0  0.54660  0.35681  0.54711  1.0000
  H   H11       1.0  0.54660  0.14319  0.04711  1.0000
  H   H12       1.0  0.45340  0.64319  0.45289  1.0000
  H   H13       1.0  0.35690  0.58218  0.87358  1.0000
  H   H14       1.0  0.64310  0.08218  0.62642  1.0000
  H   H15       1.0  0.64310  0.41782  0.12642  1.0000
  H   H16       1.0  0.35690  0.91782  0.37358  1.0000
  H   H17       1.0  0.19786  0.61799  0.79117  1.0000
  H   H18       1.0  0.80214  0.11799  0.70883  1.0000
  H   H19       1.0  0.80214  0.38201  0.20883  1.0000
  H   H20       1.0  0.19786  0.88201  0.29117  1.0000
  H   H21       1.0  0.35493  0.81364  0.74119  1.0000
  H   H22       1.0  0.64507  0.31364  0.75881  1.0000
  H   H23       1.0  0.64507  0.18636  0.25881  1.0000
  H   H24       1.0  0.35493  0.68636  0.24119  1.0000
  H   H25       1.0  0.51300  0.77732  0.82143  1.0000
  H   H26       1.0  0.48700  0.27732  0.67857  1.0000
  H   H27       1.0  0.48699  0.22269  0.17857  1.0000
  H   H28       1.0  0.51300  0.72269  0.32143  1.0000
  H   H29       1.0  0.72778  0.67307  0.52706  1.0000
  H   H30       1.0  0.27222  0.17307  0.97294  1.0000
  H   H31       1.0  0.27222  0.32693  0.47294  1.0000
  H   H32       1.0  0.72778  0.82693  0.02706  1.0000
  H   H33       1.0  0.66354  0.53241  0.58811  1.0000
  H   H34       1.0  0.33646  0.03241  0.91189  1.0000
  H   H35       1.0  0.33645  0.46759  0.41189  1.0000
  H   H36       1.0  0.66355  0.96759  0.08811  1.0000
  H   H37       1.0  0.97416  0.54760  0.58021  1.0000
  H   H38       1.0  0.02584  0.04760  0.91979  1.0000
  H   H39       1.0  0.02584  0.45240  0.41979  1.0000
  H   H40       1.0  0.97416  0.95240  0.08021  1.0000
  H   H41       1.0  0.90206  0.55450  0.69660  1.0000
  H   H42       1.0  0.09794  0.05450  0.80339  1.0000
  H   H43       1.0  0.09794  0.44550  0.30339  1.0000
  H   H44       1.0  0.90206  0.94550  0.19661  1.0000
  H   H45       1.0  0.86403  0.78497  0.78594  1.0000
  H   H46       1.0  0.13597  0.28496  0.71406  1.0000
  H   H47       1.0  0.13597  0.21503  0.21406  1.0000
  H   H48       1.0  0.86403  0.71503  0.28594  1.0000
  H   H49       1.0  0.90845  0.93096  0.72645  1.0000
  H   H50       1.0  0.09156  0.43096  0.77355  1.0000
  H   H51       1.0  0.09156  0.06904  0.27355  1.0000
  H   H52       1.0  0.90844  0.56904  0.22645  1.0000
  H   H53       1.0  0.60795  0.88649  0.71671  1.0000
  H   H54       1.0  0.39206  0.38649  0.78329  1.0000
  H   H55       1.0  0.39205  0.11351  0.28329  1.0000
  H   H56       1.0  0.60795  0.61351  0.21671  1.0000
  H   H57       1.0  0.69812  0.87748  0.60527  1.0000
  H   H58       1.0  0.30189  0.37748  0.89473  1.0000
  H   H59       1.0  0.30189  0.12252  0.39473  1.0000
  H   H60       1.0  0.69811  0.62252  0.10527  1.0000
  C   C1        1.0  0.36212  0.80109  0.99144  1.0000
  C   C2        1.0  0.63788  0.30109  0.50856  1.0000
  C   C3        1.0  0.63788  0.19891  0.00856  1.0000
  C   C4        1.0  0.36213  0.69891  0.49144  1.0000
  C   C5        1.0  0.29575  0.65916  0.83472  1.0000
  C   C6        1.0  0.70425  0.15916  0.66528  1.0000
  C   C7        1.0  0.70425  0.34084  0.16528  1.0000
  C   C8        1.0  0.29575  0.84084  0.33472  1.0000
  C   C9        1.0  0.41794  0.73396  0.77678  1.0000
  C   C10       1.0  0.58206  0.23396  0.72322  1.0000
  C   C11       1.0  0.58206  0.26604  0.22322  1.0000
  C   C12       1.0  0.41794  0.76604  0.27678  1.0000
  C   C13       1.0  0.50090  0.64974  0.70503  1.0000
  C   C14       1.0  0.49911  0.14974  0.79498  1.0000
  C   C15       1.0  0.49910  0.35026  0.29497  1.0000
  C   C16       1.0  0.50090  0.85026  0.20503  1.0000
  C   C17       1.0  0.72649  0.62453  0.59484  1.0000
  C   C18       1.0  0.27350  0.12453  0.90516  1.0000
  C   C19       1.0  0.27350  0.37547  0.40516  1.0000
  C   C20       1.0  0.72649  0.87546  0.09484  1.0000
  C   C21       1.0  0.90270  0.60453  0.62960  1.0000
  C   C22       1.0  0.09730  0.10452  0.87040  1.0000
  C   C23       1.0  0.09730  0.39548  0.37040  1.0000
  C   C24       1.0  0.90269  0.89548  0.12960  1.0000
  C   C25       1.0  0.86385  0.83274  0.71807  1.0000
  C   C26       1.0  0.13614  0.33274  0.78193  1.0000
  C   C27       1.0  0.13615  0.16726  0.28193  1.0000
  C   C28       1.0  0.86386  0.66727  0.21807  1.0000
  C   C29       1.0  0.69254  0.83114  0.67377  1.0000
  C   C30       1.0  0.30746  0.33114  0.82623  1.0000
  C   C31       1.0  0.30746  0.16886  0.32623  1.0000
  C   C32       1.0  0.69254  0.66886  0.17377  1.0000
  S   S1        1.0  0.18966  0.75936  0.91749  1.0000
  S   S2        1.0  0.81034  0.25936  0.58251  1.0000
  S   S3        1.0  0.81033  0.24064  0.08251  1.0000
  S   S4        1.0  0.18967  0.74064  0.41749  1.0000
  S   S5        1.0  0.01465  0.75435  0.64498  1.0000
  S   S6        1.0  0.98535  0.25435  0.85502  1.0000
  S   S7        1.0  0.98535  0.24565  0.35502  1.0000
  S   S8        1.0  0.01465  0.74566  0.14498  1.0000
  I   I1        1.0  0.22451  0.44695  0.08620  1.0000
  I   I2        1.0  0.77549  0.94695  0.41380  1.0000
  I   I3        1.0  0.77549  0.55305  0.91380  1.0000
  I   I4        1.0  0.22451  0.05305  0.58620  1.0000
  N   N1        1.0  0.63222  0.70128  0.66004  1.0000
  N   N2        1.0  0.36778  0.20128  0.83996  1.0000
  N   N3        1.0  0.36778  0.29872  0.33996  1.0000
  N   N4        1.0  0.63222  0.79872  0.16004  1.0000
  O   O1        1.0  0.44930  0.53991  0.68742  1.0000
  O   O2        1.0  0.55070  0.03991  0.81258  1.0000
  O   O3        1.0  0.55070  0.46009  0.31258  1.0000
  O   O4        1.0  0.44930  0.96009  0.18742  1.0000
