data_image0
_chemical_formula_structural       Cu4H8C2O10
_chemical_formula_sum              "Cu4 H8 C2 O10"
_cell_length_a       5.70918
_cell_length_b       6.07691
_cell_length_c       6.89387
_cell_angle_alpha    89.9968
_cell_angle_beta     110.374
_cell_angle_gamma    89.9995

_space_group_name_H-M_alt    "P 1"
_space_group_IT_number       1

loop_
  _space_group_symop_operation_xyz
  'x, y, z'

loop_
  _atom_site_type_symbol
  _atom_site_label
  _atom_site_symmetry_multiplicity
  _atom_site_fract_x
  _atom_site_fract_y
  _atom_site_fract_z
  _atom_site_occupancy
  Cu  Cu1       1.0  0.49898  0.31296  0.00567  1.0000
  Cu  Cu2       1.0  0.50101  0.81294  0.99432  1.0000
  Cu  Cu3       1.0  0.99660  0.56575  0.00213  1.0000
  Cu  Cu4       1.0  0.00341  0.06574  0.99790  1.0000
  H   H1        1.0  0.66098  0.29744  0.73139  1.0000
  H   H2        1.0  0.33904  0.79739  0.26863  1.0000
  H   H3        1.0  0.37371  0.55419  0.70136  1.0000
  H   H4        1.0  0.62630  0.05415  0.29863  1.0000
  H   H5        1.0  0.29868  0.30448  0.27887  1.0000
  H   H6        1.0  0.70134  0.80447  0.72113  1.0000
  H   H7        1.0  0.05274  0.10543  0.41333  1.0000
  H   H8        1.0  0.94726  0.60543  0.58666  1.0000
  C   C1        1.0  0.22208  0.13958  0.55058  1.0000
  C   C2        1.0  0.77789  0.63959  0.44942  1.0000
  O   O1        1.0  0.77026  0.31359  0.88073  1.0000
  O   O2        1.0  0.22975  0.81357  0.11928  1.0000
  O   O3        1.0  0.22458  0.07541  0.72464  1.0000
  O   O4        1.0  0.77541  0.57542  0.27537  1.0000
  O   O5        1.0  0.33824  0.56333  0.83018  1.0000
  O   O6        1.0  0.66174  0.06332  0.16979  1.0000
  O   O7        1.0  0.22494  0.31825  0.12063  1.0000
  O   O8        1.0  0.77506  0.81827  0.87938  1.0000
  O   O9        1.0  0.39852  0.24544  0.51487  1.0000
  O   O10       1.0  0.60146  0.74543  0.48512  1.0000
