data_image0
_chemical_formula_structural       Co2H40C50N8O8
_chemical_formula_sum              "Co2 H40 C50 N8 O8"
_cell_length_a       9.9405
_cell_length_b       10.9763
_cell_length_c       14.1492
_cell_angle_alpha    73.7113
_cell_angle_beta     78.5865
_cell_angle_gamma    81.0125

_space_group_name_H-M_alt    "P 1"
_space_group_IT_number       1

loop_
  _space_group_symop_operation_xyz
  'x, y, z'

loop_
  _atom_site_type_symbol
  _atom_site_label
  _atom_site_symmetry_multiplicity
  _atom_site_fract_x
  _atom_site_fract_y
  _atom_site_fract_z
  _atom_site_occupancy
  Co  Co1       1.0  0.44079  0.80210  0.19274  1.0000
  Co  Co2       1.0  0.55921  0.19790  0.80725  1.0000
  H   H1        1.0  0.05868  0.67468  0.99332  1.0000
  H   H2        1.0  0.94132  0.32532  0.00667  1.0000
  H   H3        1.0  0.11991  0.60634  0.16392  1.0000
  H   H4        1.0  0.88008  0.39365  0.83607  1.0000
  H   H5        1.0  0.94721  0.62142  0.31201  1.0000
  H   H6        1.0  0.05279  0.37857  0.68798  1.0000
  H   H7        1.0  0.70166  0.71326  0.29472  1.0000
  H   H8        1.0  0.29833  0.28670  0.70528  1.0000
  H   H9        1.0  0.56776  0.86713  0.95475  1.0000
  H   H10       1.0  0.43223  0.13286  0.04524  1.0000
  H   H11       1.0  0.94269  0.80684  0.85322  1.0000
  H   H12       1.0  0.05732  0.19316  0.14677  1.0000
  H   H13       1.0  0.78117  0.88167  0.82011  1.0000
  H   H14       1.0  0.21884  0.11832  0.17988  1.0000
  H   H15       1.0  0.87329  0.68724  0.75373  1.0000
  H   H16       1.0  0.12671  0.31275  0.24626  1.0000
  H   H17       1.0  0.86383  0.59009  0.87685  1.0000
  H   H18       1.0  0.13618  0.40990  0.12315  1.0000
  H   H19       1.0  0.60769  0.63955  0.90722  1.0000
  H   H20       1.0  0.39232  0.36044  0.09278  1.0000
  H   H21       1.0  0.61254  0.75612  0.79191  1.0000
  H   H22       1.0  0.38746  0.24388  0.20809  1.0000
  H   H23       1.0  0.64526  0.33851  0.57350  1.0000
  H   H24       1.0  0.35476  0.66149  0.42648  1.0000
  H   H25       1.0  0.74059  0.50531  0.42353  1.0000
  H   H26       1.0  0.25943  0.49470  0.57646  1.0000
  H   H27       1.0  0.79462  0.70986  0.44140  1.0000
  H   H28       1.0  0.20537  0.29016  0.55861  1.0000
  H   H29       1.0  0.75707  0.75628  0.60710  1.0000
  H   H30       1.0  0.24292  0.24373  0.39291  1.0000
  H   H31       1.0  0.57458  0.41735  0.91131  1.0000
  H   H32       1.0  0.42542  0.58264  0.08869  1.0000
  H   H33       1.0  0.01692  0.94983  0.18014  1.0000
  H   H34       1.0  0.98306  0.05017  0.81988  1.0000
  H   H35       1.0  0.20552  0.94456  0.88079  1.0000
  H   H36       1.0  0.79447  0.05545  0.11923  1.0000
  H   H37       1.0  0.54071  0.16627  0.33994  1.0000
  H   H38       1.0  0.45928  0.83374  0.66006  1.0000
  H   H39       1.0  0.44297  0.78789  0.49913  1.0000
  H   H40       1.0  0.55702  0.21211  0.50088  1.0000
  C   C1        1.0  0.74464  0.74264  0.13443  1.0000
  C   C2        1.0  0.25536  0.25734  0.86556  1.0000
  C   C3        1.0  0.84422  0.73117  0.04981  1.0000
  C   C4        1.0  0.15577  0.26884  0.95019  1.0000
  C   C5        1.0  0.98045  0.68028  0.05824  1.0000
  C   C6        1.0  0.01954  0.31971  0.94176  1.0000
  C   C7        1.0  0.01375  0.64220  0.15418  1.0000
  C   C8        1.0  0.98625  0.35779  0.84582  1.0000
  C   C9        1.0  0.91508  0.65250  0.23879  1.0000
  C   C10       1.0  0.08491  0.34749  0.76121  1.0000
  C   C11       1.0  0.77906  0.70270  0.23037  1.0000
  C   C12       1.0  0.22094  0.29728  0.76962  1.0000
  C   C13       1.0  0.64368  0.82296  0.00339  1.0000
  C   C14       1.0  0.35632  0.17704  0.99660  1.0000
  C   C15       1.0  0.83304  0.79391  0.86338  1.0000
  C   C16       1.0  0.16697  0.20609  0.13661  1.0000
  C   C17       1.0  0.81593  0.67720  0.82997  1.0000
  C   C18       1.0  0.18407  0.32279  0.17004  1.0000
  C   C19       1.0  0.66434  0.66460  0.83066  1.0000
  C   C20       1.0  0.33567  0.33539  0.16934  1.0000
  C   C21       1.0  0.68286  0.57115  0.68267  1.0000
  C   C22       1.0  0.31716  0.42885  0.31733  1.0000
  C   C23       1.0  0.65156  0.45390  0.67328  1.0000
  C   C24       1.0  0.34844  0.54610  0.32672  1.0000
  C   C25       1.0  0.67151  0.42829  0.57977  1.0000
  C   C26       1.0  0.32850  0.57171  0.42022  1.0000
  C   C27       1.0  0.72403  0.52192  0.49760  1.0000
  C   C28       1.0  0.27598  0.47809  0.50240  1.0000
  C   C29       1.0  0.75542  0.63815  0.50766  1.0000
  C   C30       1.0  0.24458  0.36186  0.49234  1.0000
  C   C31       1.0  0.73537  0.66521  0.60025  1.0000
  C   C32       1.0  0.26463  0.33480  0.39975  1.0000
  C   C33       1.0  0.60275  0.45006  0.83091  1.0000
  C   C34       1.0  0.39726  0.54994  0.16908  1.0000
  C   C35       1.0  0.25421  0.87841  0.06915  1.0000
  C   C36       1.0  0.74578  0.12161  0.93086  1.0000
  C   C37       1.0  0.12314  0.94209  0.03360  1.0000
  C   C38       1.0  0.87685  0.05793  0.96642  1.0000
  C   C39       1.0  0.00840  0.97348  0.10130  1.0000
  C   C40       1.0  0.99160  0.02653  0.89872  1.0000
  C   C41       1.0  0.11443  0.96883  0.93206  1.0000
  C   C42       1.0  0.88555  0.03118  0.06796  1.0000
  C   C43       1.0  0.47525  0.95130  0.31275  1.0000
  C   C44       1.0  0.52475  0.04870  0.68725  1.0000
  C   C45       1.0  0.48924  0.97513  0.40966  1.0000
  C   C46       1.0  0.51075  0.02487  0.59035  1.0000
  C   C47       1.0  0.52300  0.09407  0.41062  1.0000
  C   C48       1.0  0.47699  0.90593  0.58939  1.0000
  C   C49       1.0  0.46686  0.88102  0.50003  1.0000
  C   C50       1.0  0.53313  0.11899  0.49996  1.0000
  N   N1        1.0  0.62013  0.79921  0.10251  1.0000
  N   N2        1.0  0.37987  0.20079  0.89749  1.0000
  N   N3        1.0  0.77625  0.78342  0.96825  1.0000
  N   N4        1.0  0.22375  0.21658  0.03175  1.0000
  N   N5        1.0  0.64945  0.56559  0.78393  1.0000
  N   N6        1.0  0.35056  0.43439  0.21607  1.0000
  N   N7        1.0  0.60192  0.38023  0.76786  1.0000
  N   N8        1.0  0.39809  0.61976  0.23213  1.0000
  O   O1        1.0  0.46439  0.83280  0.31702  1.0000
  O   O2        1.0  0.53563  0.16720  0.68298  1.0000
  O   O3        1.0  0.47342  0.04072  0.23516  1.0000
  O   O4        1.0  0.52659  0.95928  0.76484  1.0000
  O   O5        1.0  0.27647  0.90334  0.14922  1.0000
  O   O6        1.0  0.72352  0.09667  0.85080  1.0000
  O   O7        1.0  0.33612  0.80634  0.02395  1.0000
  O   O8        1.0  0.66390  0.19371  0.97604  1.0000
