data_image0
_chemical_formula_structural       Ag4H48C48N4O8
_chemical_formula_sum              "Ag4 H48 C48 N4 O8"
_cell_length_a       7.51269
_cell_length_b       10.8189
_cell_length_c       13.4391
_cell_angle_alpha    102.677
_cell_angle_beta     106.214
_cell_angle_gamma    89.9762

_space_group_name_H-M_alt    "P 1"
_space_group_IT_number       1

loop_
  _space_group_symop_operation_xyz
  'x, y, z'

loop_
  _atom_site_type_symbol
  _atom_site_label
  _atom_site_symmetry_multiplicity
  _atom_site_fract_x
  _atom_site_fract_y
  _atom_site_fract_z
  _atom_site_occupancy
  Ag  Ag1       1.0  0.10094  0.92081  0.06325  1.0000
  Ag  Ag2       1.0  0.03709  0.57930  0.93678  1.0000
  Ag  Ag3       1.0  0.89905  0.07919  0.93675  1.0000
  Ag  Ag4       1.0  0.96292  0.42070  0.06323  1.0000
  H   H1        1.0  0.23075  0.21489  0.91380  1.0000
  H   H2        1.0  0.31690  0.28528  0.08662  1.0000
  H   H3        1.0  0.76925  0.78510  0.08620  1.0000
  H   H4        1.0  0.68310  0.71472  0.91338  1.0000
  H   H5        1.0  0.38433  0.43388  0.98092  1.0000
  H   H6        1.0  0.40344  0.06624  0.01923  1.0000
  H   H7        1.0  0.61568  0.56611  0.01907  1.0000
  H   H8        1.0  0.59655  0.93376  0.98077  1.0000
  H   H9        1.0  0.37090  0.57706  0.85698  1.0000
  H   H10       1.0  0.51443  0.92293  0.14292  1.0000
  H   H11       1.0  0.62910  0.42293  0.14302  1.0000
  H   H12       1.0  0.48558  0.07707  0.85708  1.0000
  H   H13       1.0  0.20205  0.50620  0.66515  1.0000
  H   H14       1.0  0.53763  0.99344  0.33481  1.0000
  H   H15       1.0  0.79794  0.49380  0.33484  1.0000
  H   H16       1.0  0.46237  0.00655  0.66519  1.0000
  H   H17       1.0  0.88124  0.05100  0.53341  1.0000
  H   H18       1.0  0.34826  0.44879  0.46708  1.0000
  H   H19       1.0  0.11876  0.94900  0.46659  1.0000
  H   H20       1.0  0.65174  0.55121  0.53292  1.0000
  H   H21       1.0  0.04450  0.37718  0.48160  1.0000
  H   H22       1.0  0.56358  0.12237  0.51849  1.0000
  H   H23       1.0  0.95548  0.62283  0.51840  1.0000
  H   H24       1.0  0.43641  0.87763  0.48152  1.0000
  H   H25       1.0  0.81085  0.32944  0.46233  1.0000
  H   H26       1.0  0.34940  0.17047  0.53790  1.0000
  H   H27       1.0  0.18913  0.67056  0.53768  1.0000
  H   H28       1.0  0.65060  0.82954  0.46211  1.0000
  H   H29       1.0  0.09747  0.15993  0.38801  1.0000
  H   H30       1.0  0.71006  0.33981  0.61203  1.0000
  H   H31       1.0  0.90253  0.84008  0.61199  1.0000
  H   H32       1.0  0.28994  0.66019  0.38797  1.0000
  H   H33       1.0  0.86345  0.11012  0.36920  1.0000
  H   H34       1.0  0.49463  0.38955  0.63071  1.0000
  H   H35       1.0  0.13655  0.88988  0.63081  1.0000
  H   H36       1.0  0.50537  0.61045  0.36929  1.0000
  H   H37       1.0  0.74915  0.25830  0.25421  1.0000
  H   H38       1.0  0.49518  0.24186  0.74588  1.0000
  H   H39       1.0  0.25085  0.74170  0.74579  1.0000
  H   H40       1.0  0.50482  0.75814  0.25412  1.0000
  H   H41       1.0  0.97229  0.33209  0.28579  1.0000
  H   H42       1.0  0.68701  0.16783  0.71460  1.0000
  H   H43       1.0  0.02771  0.66791  0.71421  1.0000
  H   H44       1.0  0.31300  0.83217  0.28540  1.0000
  H   H45       1.0  0.02294  0.04961  0.72833  1.0000
  H   H46       1.0  0.29486  0.45036  0.27216  1.0000
  H   H47       1.0  0.97705  0.95039  0.27166  1.0000
  H   H48       1.0  0.70514  0.54963  0.72784  1.0000
  C   C1        1.0  0.13096  0.23918  0.75207  1.0000
  C   C2        1.0  0.37912  0.26072  0.24826  1.0000
  C   C3        1.0  0.86904  0.76082  0.24792  1.0000
  C   C4        1.0  0.62088  0.73928  0.75174  1.0000
  C   C5        1.0  0.22533  0.27834  0.86035  1.0000
  C   C6        1.0  0.36496  0.22168  0.13995  1.0000
  C   C7        1.0  0.77467  0.72165  0.13964  1.0000
  C   C8        1.0  0.63505  0.77833  0.86006  1.0000
  C   C9        1.0  0.30830  0.40120  0.89711  1.0000
  C   C10       1.0  0.41119  0.09881  0.10305  1.0000
  C   C11       1.0  0.69170  0.59879  0.10288  1.0000
  C   C12       1.0  0.58883  0.90120  0.89695  1.0000
  C   C13       1.0  0.29921  0.48287  0.82661  1.0000
  C   C14       1.0  0.47305  0.01707  0.17344  1.0000
  C   C15       1.0  0.70079  0.51712  0.17339  1.0000
  C   C16       1.0  0.52696  0.98292  0.82656  1.0000
  C   C17       1.0  0.20573  0.44284  0.71844  1.0000
  C   C18       1.0  0.48797  0.05696  0.28165  1.0000
  C   C19       1.0  0.79426  0.55715  0.28156  1.0000
  C   C20       1.0  0.51203  0.94304  0.71835  1.0000
  C   C21       1.0  0.11779  0.32019  0.67932  1.0000
  C   C22       1.0  0.43901  0.17959  0.32092  1.0000
  C   C23       1.0  0.88221  0.67980  0.32068  1.0000
  C   C24       1.0  0.56099  0.82041  0.67908  1.0000
  C   C25       1.0  0.00897  0.24957  0.57626  1.0000
  C   C26       1.0  0.43344  0.25020  0.42403  1.0000
  C   C27       1.0  0.99102  0.75042  0.42374  1.0000
  C   C28       1.0  0.56656  0.74979  0.57597  1.0000
  C   C29       1.0  0.96283  0.13203  0.59066  1.0000
  C   C30       1.0  0.37268  0.36778  0.40977  1.0000
  C   C31       1.0  0.03716  0.86797  0.40934  1.0000
  C   C32       1.0  0.62732  0.63222  0.59023  1.0000
  C   C33       1.0  0.95217  0.29474  0.47474  1.0000
  C   C34       1.0  0.47829  0.20496  0.52545  1.0000
  C   C35       1.0  0.04782  0.70526  0.52525  1.0000
  C   C36       1.0  0.52171  0.79504  0.47455  1.0000
  C   C37       1.0  0.95602  0.19229  0.37668  1.0000
  C   C38       1.0  0.58001  0.30744  0.62339  1.0000
  C   C39       1.0  0.04397  0.80771  0.62332  1.0000
  C   C40       1.0  0.41999  0.69256  0.37661  1.0000
  C   C41       1.0  0.89795  0.24034  0.27476  1.0000
  C   C42       1.0  0.62353  0.25960  0.72536  1.0000
  C   C43       1.0  0.10205  0.75966  0.72524  1.0000
  C   C44       1.0  0.37647  0.74041  0.27465  1.0000
  C   C45       1.0  0.92940  0.15459  0.17652  1.0000
  C   C46       1.0  0.75297  0.34552  0.82348  1.0000
  C   C47       1.0  0.07060  0.84541  0.82349  1.0000
  C   C48       1.0  0.24703  0.65449  0.17653  1.0000
  N   N1        1.0  0.03637  0.12572  0.69544  1.0000
  N   N2        1.0  0.34128  0.37421  0.30501  1.0000
  N   N3        1.0  0.96362  0.87427  0.30456  1.0000
  N   N4        1.0  0.65873  0.62579  0.69499  1.0000
  O   O1        1.0  0.98176  0.04298  0.18113  1.0000
  O   O2        1.0  0.80070  0.45703  0.81869  1.0000
  O   O3        1.0  0.01824  0.95703  0.81888  1.0000
  O   O4        1.0  0.19930  0.54298  0.18131  1.0000
  O   O5        1.0  0.89999  0.20002  0.09394  1.0000
  O   O6        1.0  0.80593  0.30023  0.90615  1.0000
  O   O7        1.0  0.10001  0.79998  0.90606  1.0000
  O   O8        1.0  0.19408  0.69977  0.09385  1.0000
