data_image0
_chemical_formula_structural       Hg2P4H36Au4C60Cl8F32
_chemical_formula_sum              "Hg2 P4 H36 Au4 C60 Cl8 F32"
_cell_length_a       10.8421
_cell_length_b       11.4928
_cell_length_c       18.4802
_cell_angle_alpha    91.4298
_cell_angle_beta     107.047
_cell_angle_gamma    118.138

_space_group_name_H-M_alt    "P 1"
_space_group_IT_number       1

loop_
  _space_group_symop_operation_xyz
  'x, y, z'

loop_
  _atom_site_type_symbol
  _atom_site_label
  _atom_site_symmetry_multiplicity
  _atom_site_fract_x
  _atom_site_fract_y
  _atom_site_fract_z
  _atom_site_occupancy
  Hg  Hg1       1.0  0.00000  0.00000  0.00000  1.0000
  Hg  Hg2       1.0  0.50000  0.50000  0.50000  1.0000
  P   P1        1.0  0.54349  0.63403  0.86548  1.0000
  P   P2        1.0  0.54380  0.86572  0.63456  1.0000
  P   P3        1.0  0.45651  0.36597  0.13452  1.0000
  P   P4        1.0  0.45620  0.13428  0.36544  1.0000
  H   H1        1.0  0.43492  0.42012  0.90583  1.0000
  H   H2        1.0  0.60874  0.07965  0.59419  1.0000
  H   H3        1.0  0.56508  0.57988  0.09417  1.0000
  H   H4        1.0  0.39126  0.92035  0.40581  1.0000
  H   H5        1.0  0.63458  0.51039  0.94706  1.0000
  H   H6        1.0  0.67694  0.98942  0.55294  1.0000
  H   H7        1.0  0.36542  0.48961  0.05294  1.0000
  H   H8        1.0  0.32306  0.01058  0.44706  1.0000
  H   H9        1.0  0.54461  0.42453  0.84898  1.0000
  H   H10       1.0  0.77083  0.07523  0.65102  1.0000
  H   H11       1.0  0.45539  0.57547  0.15102  1.0000
  H   H12       1.0  0.22917  0.92477  0.34898  1.0000
  H   H13       1.0  0.37658  0.52058  0.73504  1.0000
  H   H14       1.0  0.62089  0.97932  0.76500  1.0000
  H   H15       1.0  0.62342  0.47942  0.26496  1.0000
  H   H16       1.0  0.37911  0.02067  0.23500  1.0000
  H   H17       1.0  0.36504  0.66210  0.76534  1.0000
  H   H18       1.0  0.43752  0.83783  0.73475  1.0000
  H   H19       1.0  0.63496  0.33790  0.23466  1.0000
  H   H20       1.0  0.56248  0.16217  0.26525  1.0000
  H   H21       1.0  0.27492  0.51087  0.79844  1.0000
  H   H22       1.0  0.46556  0.98902  0.70158  1.0000
  H   H23       1.0  0.72508  0.48913  0.20156  1.0000
  H   H24       1.0  0.53444  0.01098  0.29842  1.0000
  H   H25       1.0  0.50919  0.79786  0.92877  1.0000
  H   H26       1.0  0.28238  0.70176  0.57135  1.0000
  H   H27       1.0  0.49081  0.20214  0.07123  1.0000
  H   H28       1.0  0.71762  0.29824  0.42865  1.0000
  H   H29       1.0  0.60369  0.73515  0.99646  1.0000
  H   H30       1.0  0.37190  0.76452  0.50363  1.0000
  H   H31       1.0  0.39631  0.26485  0.00354  1.0000
  H   H32       1.0  0.62810  0.23548  0.49637  1.0000
  H   H33       1.0  0.40587  0.63442  0.94809  1.0000
  H   H34       1.0  0.32312  0.86520  0.55200  1.0000
  H   H35       1.0  0.59413  0.36558  0.05191  1.0000
  H   H36       1.0  0.67687  0.13480  0.44800  1.0000
  Au  Au1       1.0  0.75566  0.77427  0.84082  1.0000
  Au  Au2       1.0  0.64052  0.72555  0.65915  1.0000
  Au  Au3       1.0  0.24434  0.22573  0.15918  1.0000
  Au  Au4       1.0  0.35948  0.27445  0.34085  1.0000
  C   C1        1.0  0.95521  0.89269  0.82390  1.0000
  C   C2        1.0  0.73863  0.60716  0.67605  1.0000
  C   C3        1.0  0.04479  0.10732  0.17610  1.0000
  C   C4        1.0  0.26137  0.39283  0.32395  1.0000
  C   C5        1.0  0.06127  0.85241  0.83719  1.0000
  C   C6        1.0  0.87182  0.64746  0.66292  1.0000
  C   C7        1.0  0.93873  0.14760  0.16281  1.0000
  C   C8        1.0  0.12818  0.35254  0.33708  1.0000
  C   C9        1.0  0.99403  0.01361  0.79837  1.0000
  C   C10       1.0  0.68187  0.48619  0.70151  1.0000
  C   C11       1.0  0.00597  0.98640  0.20163  1.0000
  C   C12       1.0  0.31813  0.51381  0.29849  1.0000
  C   C13       1.0  0.12886  0.09287  0.78658  1.0000
  C   C14       1.0  0.74910  0.40683  0.71338  1.0000
  C   C15       1.0  0.87115  0.90713  0.21342  1.0000
  C   C16       1.0  0.25090  0.59317  0.28662  1.0000
  C   C17       1.0  0.23099  0.04726  0.80165  1.0000
  C   C18       1.0  0.88194  0.45247  0.69848  1.0000
  C   C19       1.0  0.76902  0.95274  0.19836  1.0000
  C   C20       1.0  0.11806  0.54753  0.30151  1.0000
  C   C21       1.0  0.19925  0.92661  0.82769  1.0000
  C   C22       1.0  0.94502  0.57319  0.67252  1.0000
  C   C23       1.0  0.80075  0.07339  0.17231  1.0000
  C   C24       1.0  0.05498  0.42681  0.32748  1.0000
  C   C25       1.0  0.53872  0.48230  0.89463  1.0000
  C   C26       1.0  0.66155  0.01745  0.60538  1.0000
  C   C27       1.0  0.46128  0.51770  0.10537  1.0000
  C   C28       1.0  0.33844  0.98255  0.39462  1.0000
  C   C29       1.0  0.37326  0.57526  0.78326  1.0000
  C   C30       1.0  0.51466  0.92462  0.71680  1.0000
  C   C31       1.0  0.62674  0.42474  0.21674  1.0000
  C   C32       1.0  0.48534  0.07538  0.28320  1.0000
  C   C33       1.0  0.51195  0.70665  0.94198  1.0000
  C   C34       1.0  0.36309  0.79297  0.55813  1.0000
  C   C35       1.0  0.48805  0.29335  0.05802  1.0000
  C   C36       1.0  0.63691  0.20703  0.44187  1.0000
  C   C37       1.0  0.94661  0.14872  0.96468  1.0000
  C   C38       1.0  0.33350  0.35094  0.53529  1.0000
  C   C39       1.0  0.05339  0.85128  0.03532  1.0000
  C   C40       1.0  0.66649  0.64906  0.46471  1.0000
  C   C41       1.0  0.04440  0.26315  0.94479  1.0000
  C   C42       1.0  0.33673  0.23652  0.55522  1.0000
  C   C43       1.0  0.95560  0.73685  0.05521  1.0000
  C   C44       1.0  0.66327  0.76348  0.44478  1.0000
  C   C45       1.0  0.01447  0.36578  0.92545  1.0000
  C   C46       1.0  0.22339  0.13396  0.57455  1.0000
  C   C47       1.0  0.98552  0.63422  0.07455  1.0000
  C   C48       1.0  0.77661  0.86604  0.42545  1.0000
  C   C49       1.0  0.88119  0.35458  0.92644  1.0000
  C   C50       1.0  0.10030  0.14520  0.57346  1.0000
  C   C51       1.0  0.11880  0.64542  0.07356  1.0000
  C   C52       1.0  0.89970  0.85480  0.42654  1.0000
  C   C53       1.0  0.77933  0.24055  0.94547  1.0000
  C   C54       1.0  0.09352  0.25924  0.55438  1.0000
  C   C55       1.0  0.22067  0.75944  0.05453  1.0000
  C   C56       1.0  0.90648  0.74076  0.44562  1.0000
  C   C57       1.0  0.81389  0.13998  0.96380  1.0000
  C   C58       1.0  0.21041  0.35975  0.53609  1.0000
  C   C59       1.0  0.18611  0.86002  0.03620  1.0000
  C   C60       1.0  0.78958  0.64025  0.46391  1.0000
  Cl  Cl1       1.0  0.32798  0.87457  0.84968  1.0000
  Cl  Cl2       1.0  0.10388  0.62515  0.65061  1.0000
  Cl  Cl3       1.0  0.67202  0.12543  0.15032  1.0000
  Cl  Cl4       1.0  0.89612  0.37485  0.34939  1.0000
  Cl  Cl5       1.0  0.17017  0.24267  0.75663  1.0000
  Cl  Cl6       1.0  0.67042  0.25704  0.74330  1.0000
  Cl  Cl7       1.0  0.82984  0.75734  0.24337  1.0000
  Cl  Cl8       1.0  0.32958  0.74296  0.25670  1.0000
  F   F1        1.0  0.03140  0.73395  0.86148  1.0000
  F   F2        1.0  0.93625  0.76592  0.63866  1.0000
  F   F3        1.0  0.96860  0.26605  0.13852  1.0000
  F   F4        1.0  0.06375  0.23408  0.36134  1.0000
  F   F5        1.0  0.36291  0.12148  0.79136  1.0000
  F   F6        1.0  0.94990  0.37824  0.70886  1.0000
  F   F7        1.0  0.63710  0.87852  0.20864  1.0000
  F   F8        1.0  0.05010  0.62176  0.29114  1.0000
  F   F9        1.0  0.89610  0.06062  0.78374  1.0000
  F   F10       1.0  0.55149  0.43928  0.71608  1.0000
  F   F11       1.0  0.10390  0.93938  0.21626  1.0000
  F   F12       1.0  0.44850  0.56071  0.28392  1.0000
  F   F13       1.0  0.17736  0.27922  0.94400  1.0000
  F   F14       1.0  0.45443  0.22043  0.55613  1.0000
  F   F15       1.0  0.82265  0.72079  0.05600  1.0000
  F   F16       1.0  0.54557  0.77958  0.44387  1.0000
  F   F17       1.0  0.11290  0.47628  0.90652  1.0000
  F   F18       1.0  0.23017  0.02347  0.59356  1.0000
  F   F19       1.0  0.88709  0.52372  0.09348  1.0000
  F   F20       1.0  0.76983  0.97653  0.40644  1.0000
  F   F21       1.0  0.85114  0.45390  0.90923  1.0000
  F   F22       1.0  0.98800  0.04596  0.59063  1.0000
  F   F23       1.0  0.14886  0.54610  0.09077  1.0000
  F   F24       1.0  0.01199  0.95404  0.40937  1.0000
  F   F25       1.0  0.65022  0.23003  0.94617  1.0000
  F   F26       1.0  0.97429  0.26987  0.55366  1.0000
  F   F27       1.0  0.34978  0.76997  0.05383  1.0000
  F   F28       1.0  0.02571  0.73012  0.44634  1.0000
  F   F29       1.0  0.71245  0.03045  0.98275  1.0000
  F   F30       1.0  0.19967  0.46934  0.51714  1.0000
  F   F31       1.0  0.28756  0.96955  0.01725  1.0000
  F   F32       1.0  0.80033  0.53065  0.48286  1.0000
