data_image0
_chemical_formula_structural       Hg2P4H36Au4C60Cl8F32
_chemical_formula_sum              "Hg2 P4 H36 Au4 C60 Cl8 F32"
_cell_length_a       10.9694
_cell_length_b       11.3484
_cell_length_c       18.4889
_cell_angle_alpha    72.1728
_cell_angle_beta     72.7325
_cell_angle_gamma    61.0762

_space_group_name_H-M_alt    "P 1"
_space_group_IT_number       1

loop_
  _space_group_symop_operation_xyz
  'x, y, z'

loop_
  _atom_site_type_symbol
  _atom_site_label
  _atom_site_symmetry_multiplicity
  _atom_site_fract_x
  _atom_site_fract_y
  _atom_site_fract_z
  _atom_site_occupancy
  Hg  Hg1       1.0  0.50000  0.00000  0.00000  1.0000
  Hg  Hg2       1.0  0.49999  0.50000  0.50000  1.0000
  P   P1        1.0  0.19937  0.36945  0.85463  1.0000
  P   P2        1.0  0.42287  0.13082  0.64548  1.0000
  P   P3        1.0  0.80064  0.63054  0.14537  1.0000
  P   P4        1.0  0.57713  0.86918  0.35452  1.0000
  H   H1        1.0  0.00512  0.51188  0.78374  1.0000
  H   H2        1.0  0.30001  0.98841  0.71611  1.0000
  H   H3        1.0  0.99488  0.48811  0.21626  1.0000
  H   H4        1.0  0.70000  0.01159  0.28389  1.0000
  H   H5        1.0  0.11991  0.35615  0.74908  1.0000
  H   H6        1.0  0.22420  0.14397  0.75090  1.0000
  H   H7        1.0  0.88009  0.64385  0.25092  1.0000
  H   H8        1.0  0.77581  0.85603  0.24910  1.0000
  H   H9        1.0  0.17311  0.49148  0.72355  1.0000
  H   H10       1.0  0.38720  0.00856  0.77649  1.0000
  H   H11       1.0  0.82689  0.50852  0.27645  1.0000
  H   H12       1.0  0.61281  0.99145  0.22350  1.0000
  H   H13       1.0  0.12811  0.25503  0.98140  1.0000
  H   H14       1.0  0.36434  0.24556  0.51866  1.0000
  H   H15       1.0  0.87189  0.74497  0.01860  1.0000
  H   H16       1.0  0.63565  0.75444  0.48134  1.0000
  H   H17       1.0  0.09270  0.20989  0.90832  1.0000
  H   H18       1.0  0.21050  0.29072  0.59164  1.0000
  H   H19       1.0  0.90730  0.79011  0.09168  1.0000
  H   H20       1.0  0.78950  0.70929  0.40836  1.0000
  H   H21       1.0  0.97909  0.37334  0.93519  1.0000
  H   H22       1.0  0.28721  0.12742  0.56464  1.0000
  H   H23       1.0  0.02091  0.62666  0.06480  1.0000
  H   H24       1.0  0.71279  0.87258  0.43536  1.0000
  H   H25       1.0  0.04359  0.58575  0.89572  1.0000
  H   H26       1.0  0.52488  0.91451  0.60431  1.0000
  H   H27       1.0  0.95641  0.41425  0.10428  1.0000
  H   H28       1.0  0.47511  0.08550  0.39569  1.0000
  H   H29       1.0  0.21288  0.58029  0.84637  1.0000
  H   H30       1.0  0.63914  0.92013  0.65370  1.0000
  H   H31       1.0  0.78712  0.41971  0.15362  1.0000
  H   H32       1.0  0.36086  0.07987  0.34630  1.0000
  H   H33       1.0  0.19350  0.49103  0.94370  1.0000
  H   H34       1.0  0.62777  0.00947  0.55642  1.0000
  H   H35       1.0  0.80650  0.50897  0.05629  1.0000
  H   H36       1.0  0.37223  0.99053  0.44357  1.0000
  Au  Au1       1.0  0.43674  0.22201  0.83716  1.0000
  Au  Au2       1.0  0.49559  0.27789  0.66308  1.0000
  Au  Au3       1.0  0.56326  0.77799  0.16284  1.0000
  Au  Au4       1.0  0.50441  0.72212  0.33692  1.0000
  C   C1        1.0  0.65350  0.09767  0.82437  1.0000
  C   C2        1.0  0.57536  0.40215  0.67573  1.0000
  C   C3        1.0  0.34650  0.90232  0.17563  1.0000
  C   C4        1.0  0.42465  0.59785  0.32427  1.0000
  C   C5        1.0  0.74356  0.14285  0.83482  1.0000
  C   C6        1.0  0.72111  0.35703  0.66527  1.0000
  C   C7        1.0  0.25644  0.85715  0.16518  1.0000
  C   C8        1.0  0.27889  0.64297  0.33473  1.0000
  C   C9        1.0  0.89063  0.07197  0.82082  1.0000
  C   C10       1.0  0.78317  0.42809  0.67918  1.0000
  C   C11       1.0  0.10936  0.92803  0.17919  1.0000
  C   C12       1.0  0.21683  0.57191  0.32082  1.0000
  C   C13       1.0  0.95308  0.94778  0.79576  1.0000
  C   C14       1.0  0.69619  0.55238  0.70409  1.0000
  C   C15       1.0  0.04692  0.05222  0.20424  1.0000
  C   C16       1.0  0.30383  0.44761  0.29591  1.0000
  C   C17       1.0  0.86695  0.89778  0.78539  1.0000
  C   C18       1.0  0.54961  0.60229  0.71452  1.0000
  C   C19       1.0  0.13306  0.10221  0.21461  1.0000
  C   C20       1.0  0.45039  0.39771  0.28548  1.0000
  C   C21       1.0  0.72048  0.97348  0.79938  1.0000
  C   C22       1.0  0.49298  0.52637  0.70067  1.0000
  C   C23       1.0  0.27953  0.02651  0.20062  1.0000
  C   C24       1.0  0.50702  0.47364  0.29933  1.0000
  C   C25       1.0  0.11625  0.43896  0.76957  1.0000
  C   C26       1.0  0.32398  0.06123  0.73040  1.0000
  C   C27       1.0  0.88375  0.56104  0.23043  1.0000
  C   C28       1.0  0.67603  0.93877  0.26960  1.0000
  C   C29       1.0  0.08889  0.29492  0.92668  1.0000
  C   C30       1.0  0.31014  0.20566  0.57329  1.0000
  C   C31       1.0  0.91111  0.70508  0.07332  1.0000
  C   C32       1.0  0.68986  0.79435  0.42671  1.0000
  C   C33       1.0  0.15847  0.52144  0.88841  1.0000
  C   C34       1.0  0.56788  0.97894  0.61168  1.0000
  C   C35       1.0  0.84153  0.47856  0.11159  1.0000
  C   C36       1.0  0.43212  0.02106  0.38831  1.0000
  C   C37       1.0  0.52200  0.14574  0.03552  1.0000
  C   C38       1.0  0.70308  0.35404  0.46446  1.0000
  C   C39       1.0  0.47800  0.85426  0.96447  1.0000
  C   C40       1.0  0.29692  0.64596  0.53554  1.0000
  C   C41       1.0  0.40790  0.26326  0.05716  1.0000
  C   C42       1.0  0.72825  0.23666  0.44268  1.0000
  C   C43       1.0  0.59210  0.73674  0.94285  1.0000
  C   C44       1.0  0.27175  0.76334  0.55732  1.0000
  C   C45       1.0  0.42210  0.36342  0.07836  1.0000
  C   C46       1.0  0.86396  0.13643  0.42157  1.0000
  C   C47       1.0  0.57790  0.63658  0.92164  1.0000
  C   C48       1.0  0.13603  0.86357  0.57843  1.0000
  C   C49       1.0  0.55907  0.34239  0.07769  1.0000
  C   C50       1.0  0.97921  0.15739  0.42234  1.0000
  C   C51       1.0  0.44093  0.65761  0.92231  1.0000
  C   C52       1.0  0.02078  0.84261  0.57766  1.0000
  C   C53       1.0  0.67815  0.22577  0.05637  1.0000
  C   C54       1.0  0.96019  0.27405  0.44365  1.0000
  C   C55       1.0  0.32185  0.77424  0.94362  1.0000
  C   C56       1.0  0.03980  0.72595  0.55634  1.0000
  C   C57       1.0  0.65503  0.13065  0.03569  1.0000
  C   C58       1.0  0.82119  0.36910  0.46436  1.0000
  C   C59       1.0  0.34496  0.86935  0.96431  1.0000
  C   C60       1.0  0.17880  0.63090  0.53564  1.0000
  Cl  Cl1       1.0  0.27870  0.50891  0.10256  1.0000
  Cl  Cl2       1.0  0.89038  0.99088  0.39738  1.0000
  Cl  Cl3       1.0  0.72130  0.49108  0.89744  1.0000
  Cl  Cl4       1.0  0.10961  0.00912  0.60262  1.0000
  Cl  Cl5       1.0  0.84585  0.20202  0.05249  1.0000
  Cl  Cl6       1.0  0.10024  0.29786  0.44752  1.0000
  Cl  Cl7       1.0  0.15414  0.79798  0.94750  1.0000
  Cl  Cl8       1.0  0.89975  0.70214  0.55248  1.0000
  F   F1        1.0  0.68819  0.26381  0.85914  1.0000
  F   F2        1.0  0.81117  0.23601  0.64104  1.0000
  F   F3        1.0  0.31179  0.73619  0.14087  1.0000
  F   F4        1.0  0.18883  0.76399  0.35896  1.0000
  F   F5        1.0  0.97351  0.12243  0.83029  1.0000
  F   F6        1.0  0.92601  0.37779  0.66963  1.0000
  F   F7        1.0  0.02648  0.87758  0.16972  1.0000
  F   F8        1.0  0.07399  0.62220  0.33037  1.0000
  F   F9        1.0  0.09525  0.87706  0.78055  1.0000
  F   F10       1.0  0.75232  0.62328  0.71920  1.0000
  F   F11       1.0  0.90475  0.12295  0.21945  1.0000
  F   F12       1.0  0.24769  0.37671  0.28080  1.0000
  F   F13       1.0  0.92763  0.77705  0.76095  1.0000
  F   F14       1.0  0.46498  0.72310  0.73887  1.0000
  F   F15       1.0  0.07239  0.22294  0.23906  1.0000
  F   F16       1.0  0.53503  0.27689  0.26113  1.0000
  F   F17       1.0  0.64217  0.92015  0.78641  1.0000
  F   F18       1.0  0.34829  0.57969  0.71369  1.0000
  F   F19       1.0  0.35784  0.07984  0.21359  1.0000
  F   F20       1.0  0.65172  0.42032  0.28631  1.0000
  F   F21       1.0  0.27413  0.28409  0.05741  1.0000
  F   F22       1.0  0.61559  0.21589  0.44233  1.0000
  F   F23       1.0  0.72586  0.71590  0.94260  1.0000
  F   F24       1.0  0.38440  0.78411  0.55768  1.0000
  F   F25       1.0  0.57616  0.43803  0.09718  1.0000
  F   F26       1.0  0.11156  0.06173  0.40289  1.0000
  F   F27       1.0  0.42384  0.56197  0.90282  1.0000
  F   F28       1.0  0.88843  0.93827  0.59711  1.0000
  F   F29       1.0  0.77093  0.01826  0.01325  1.0000
  F   F30       1.0  0.80214  0.48143  0.48687  1.0000
  F   F31       1.0  0.22907  0.98175  0.98673  1.0000
  F   F32       1.0  0.19785  0.51857  0.51313  1.0000
