data_image0
_chemical_formula_structural       Zn4H36C48N24Cl4O4
_chemical_formula_sum              "Zn4 H36 C48 N24 Cl4 O4"
_cell_length_a       8.19311
_cell_length_b       9.50184
_cell_length_c       17.4706
_cell_angle_alpha    89.9996
_cell_angle_beta     89.9998
_cell_angle_gamma    90.0001

_space_group_name_H-M_alt    "P 1"
_space_group_IT_number       1

loop_
  _space_group_symop_operation_xyz
  'x, y, z'

loop_
  _atom_site_type_symbol
  _atom_site_label
  _atom_site_symmetry_multiplicity
  _atom_site_fract_x
  _atom_site_fract_y
  _atom_site_fract_z
  _atom_site_occupancy
  Zn  Zn1       1.0  0.05296  0.50949  0.97403  1.0000
  Zn  Zn2       1.0  0.94704  0.49051  0.47403  1.0000
  Zn  Zn3       1.0  0.44704  0.00949  0.47403  1.0000
  Zn  Zn4       1.0  0.55296  0.99051  0.97403  1.0000
  H   H1        1.0  0.55722  0.34412  0.85539  1.0000
  H   H2        1.0  0.44278  0.65587  0.35538  1.0000
  H   H3        1.0  0.94278  0.84413  0.35539  1.0000
  H   H4        1.0  0.05721  0.15587  0.85539  1.0000
  H   H5        1.0  0.41068  0.06329  0.63948  1.0000
  H   H6        1.0  0.58933  0.93672  0.13949  1.0000
  H   H7        1.0  0.08931  0.56328  0.13949  1.0000
  H   H8        1.0  0.91069  0.43672  0.63949  1.0000
  H   H9        1.0  0.56759  0.56611  0.62101  1.0000
  H   H10       1.0  0.43241  0.43389  0.12101  1.0000
  H   H11       1.0  0.93241  0.06611  0.12101  1.0000
  H   H12       1.0  0.06759  0.93389  0.62101  1.0000
  H   H13       1.0  0.45695  0.93292  0.76045  1.0000
  H   H14       1.0  0.54305  0.06709  0.26045  1.0000
  H   H15       1.0  0.04304  0.43291  0.26045  1.0000
  H   H16       1.0  0.95696  0.56709  0.76045  1.0000
  H   H17       1.0  0.51062  0.71006  0.50802  1.0000
  H   H18       1.0  0.48938  0.28994  0.00802  1.0000
  H   H19       1.0  0.98938  0.21005  0.00802  1.0000
  H   H20       1.0  0.01062  0.78994  0.50802  1.0000
  H   H21       1.0  0.66741  0.84004  0.82448  1.0000
  H   H22       1.0  0.33259  0.15996  0.32448  1.0000
  H   H23       1.0  0.83259  0.34004  0.32449  1.0000
  H   H24       1.0  0.16742  0.65996  0.82448  1.0000
  H   H25       1.0  0.35394  0.34552  0.76477  1.0000
  H   H26       1.0  0.64606  0.65448  0.26477  1.0000
  H   H27       1.0  0.14606  0.84551  0.26477  1.0000
  H   H28       1.0  0.85394  0.15448  0.76477  1.0000
  H   H29       1.0  0.50043  0.36525  0.69026  1.0000
  H   H30       1.0  0.49957  0.63475  0.19026  1.0000
  H   H31       1.0  0.99956  0.86525  0.19026  1.0000
  H   H32       1.0  0.00044  0.13475  0.69026  1.0000
  H   H33       1.0  0.33657  0.48552  0.69745  1.0000
  H   H34       1.0  0.66343  0.51448  0.19745  1.0000
  H   H35       1.0  0.16342  0.98552  0.19745  1.0000
  H   H36       1.0  0.83658  0.01448  0.69745  1.0000
  C   C1        1.0  0.52150  0.51395  0.78346  1.0000
  C   C2        1.0  0.47850  0.48604  0.28346  1.0000
  C   C3        1.0  0.97849  0.01395  0.28346  1.0000
  C   C4        1.0  0.02150  0.98605  0.78346  1.0000
  C   C5        1.0  0.55568  0.65683  0.77278  1.0000
  C   C6        1.0  0.44432  0.34317  0.27278  1.0000
  C   C7        1.0  0.94431  0.15683  0.27278  1.0000
  C   C8        1.0  0.05569  0.84317  0.77278  1.0000
  C   C9        1.0  0.44329  0.95200  0.63879  1.0000
  C   C10       1.0  0.55672  0.04800  0.13879  1.0000
  C   C11       1.0  0.05670  0.45200  0.13879  1.0000
  C   C12       1.0  0.94330  0.54800  0.63880  1.0000
  C   C13       1.0  0.52821  0.67423  0.62977  1.0000
  C   C14       1.0  0.47179  0.32577  0.12977  1.0000
  C   C15       1.0  0.97178  0.17423  0.12977  1.0000
  C   C16       1.0  0.02821  0.82577  0.62977  1.0000
  C   C17       1.0  0.46945  0.87801  0.70596  1.0000
  C   C18       1.0  0.53055  0.12199  0.20596  1.0000
  C   C19       1.0  0.03054  0.37801  0.20596  1.0000
  C   C20       1.0  0.96946  0.62199  0.70597  1.0000
  C   C21       1.0  0.67228  0.51112  0.90615  1.0000
  C   C22       1.0  0.32772  0.48887  0.40615  1.0000
  C   C23       1.0  0.82773  0.01113  0.40615  1.0000
  C   C24       1.0  0.17227  0.98887  0.90615  1.0000
  C   C25       1.0  0.49956  0.75499  0.56506  1.0000
  C   C26       1.0  0.50044  0.24501  0.06506  1.0000
  C   C27       1.0  0.00043  0.25498  0.06506  1.0000
  C   C28       1.0  0.99956  0.74501  0.56506  1.0000
  C   C29       1.0  0.69931  0.66125  0.89624  1.0000
  C   C30       1.0  0.30069  0.33874  0.39624  1.0000
  C   C31       1.0  0.80069  0.16125  0.39624  1.0000
  C   C32       1.0  0.19931  0.83875  0.89624  1.0000
  C   C33       1.0  0.64173  0.72799  0.83167  1.0000
  C   C34       1.0  0.35827  0.27201  0.33167  1.0000
  C   C35       1.0  0.85827  0.22799  0.33167  1.0000
  C   C36       1.0  0.14173  0.77201  0.83167  1.0000
  C   C37       1.0  0.78832  0.73578  0.95577  1.0000
  C   C38       1.0  0.21168  0.26422  0.45578  1.0000
  C   C39       1.0  0.71168  0.23578  0.45578  1.0000
  C   C40       1.0  0.28832  0.76423  0.95578  1.0000
  C   C41       1.0  0.51430  0.73495  0.70268  1.0000
  C   C42       1.0  0.48571  0.26505  0.20268  1.0000
  C   C43       1.0  0.98570  0.23495  0.20268  1.0000
  C   C44       1.0  0.01430  0.76505  0.70268  1.0000
  C   C45       1.0  0.42282  0.42284  0.73111  1.0000
  C   C46       1.0  0.57718  0.57716  0.23111  1.0000
  C   C47       1.0  0.07717  0.92284  0.23111  1.0000
  C   C48       1.0  0.92282  0.07716  0.73111  1.0000
  N   N1        1.0  0.86727  0.88860  0.03990  1.0000
  N   N2        1.0  0.13273  0.11140  0.53990  1.0000
  N   N3        1.0  0.63274  0.38860  0.53990  1.0000
  N   N4        1.0  0.36727  0.61140  0.03990  1.0000
  N   N5        1.0  0.95939  0.77751  0.04779  1.0000
  N   N6        1.0  0.04061  0.22249  0.54779  1.0000
  N   N7        1.0  0.54061  0.27751  0.54779  1.0000
  N   N8        1.0  0.45939  0.72249  0.04779  1.0000
  N   N9        1.0  0.91230  0.68010  0.99580  1.0000
  N   N10       1.0  0.08770  0.31990  0.49580  1.0000
  N   N11       1.0  0.58770  0.18010  0.49580  1.0000
  N   N12       1.0  0.41230  0.81990  0.99580  1.0000
  N   N13       1.0  0.75993  0.86688  0.98229  1.0000
  N   N14       1.0  0.24007  0.13312  0.48229  1.0000
  N   N15       1.0  0.74007  0.36687  0.48229  1.0000
  N   N16       1.0  0.25993  0.63312  0.98229  1.0000
  N   N17       1.0  0.45811  0.89179  0.56909  1.0000
  N   N18       1.0  0.54189  0.10821  0.06909  1.0000
  N   N19       1.0  0.04187  0.39179  0.06909  1.0000
  N   N20       1.0  0.95812  0.60821  0.56909  1.0000
  N   N21       1.0  0.57800  0.45059  0.84792  1.0000
  N   N22       1.0  0.42200  0.54941  0.34792  1.0000
  N   N23       1.0  0.92199  0.95059  0.34793  1.0000
  N   N24       1.0  0.07800  0.04941  0.84793  1.0000
  Cl  Cl1       1.0  0.06311  0.39356  0.86239  1.0000
  Cl  Cl2       1.0  0.93689  0.60644  0.36239  1.0000
  Cl  Cl3       1.0  0.43691  0.89357  0.36239  1.0000
  Cl  Cl4       1.0  0.56310  0.10644  0.86239  1.0000
  O   O1        1.0  0.72247  0.43664  0.95969  1.0000
  O   O2        1.0  0.27752  0.56336  0.45969  1.0000
  O   O3        1.0  0.77752  0.93664  0.45970  1.0000
  O   O4        1.0  0.22247  0.06336  0.95970  1.0000
