data_image0
_chemical_formula_structural       Tl4H12C20S4O12
_chemical_formula_sum              "Tl4 H12 C20 S4 O12"
_cell_length_a       6.18265
_cell_length_b       9.91313
_cell_length_c       10.9931
_cell_angle_alpha    95.928
_cell_angle_beta     89.9991
_cell_angle_gamma    90.0005

_space_group_name_H-M_alt    "P 1"
_space_group_IT_number       1

loop_
  _space_group_symop_operation_xyz
  'x, y, z'

loop_
  _atom_site_type_symbol
  _atom_site_label
  _atom_site_symmetry_multiplicity
  _atom_site_fract_x
  _atom_site_fract_y
  _atom_site_fract_z
  _atom_site_occupancy
  Tl  Tl1       1.0  0.97079  0.33475  0.09122  1.0000
  Tl  Tl2       1.0  0.47079  0.16525  0.90878  1.0000
  Tl  Tl3       1.0  0.02921  0.66525  0.90878  1.0000
  Tl  Tl4       1.0  0.52921  0.83475  0.09122  1.0000
  H   H1        1.0  0.88296  0.35347  0.69792  1.0000
  H   H2        1.0  0.38295  0.14653  0.30207  1.0000
  H   H3        1.0  0.11704  0.64652  0.30208  1.0000
  H   H4        1.0  0.61704  0.85347  0.69793  1.0000
  H   H5        1.0  0.98182  0.29324  0.47919  1.0000
  H   H6        1.0  0.48182  0.20676  0.52081  1.0000
  H   H7        1.0  0.01818  0.70676  0.52081  1.0000
  H   H8        1.0  0.51818  0.79324  0.47919  1.0000
  H   H9        1.0  0.75186  0.36650  0.31534  1.0000
  H   H10       1.0  0.25185  0.13351  0.68466  1.0000
  H   H11       1.0  0.24815  0.63350  0.68466  1.0000
  H   H12       1.0  0.74814  0.86650  0.31534  1.0000
  C   C1        1.0  0.60393  0.46831  0.65537  1.0000
  C   C2        1.0  0.10392  0.03169  0.34463  1.0000
  C   C3        1.0  0.39607  0.53169  0.34463  1.0000
  C   C4        1.0  0.89607  0.96831  0.65537  1.0000
  C   C5        1.0  0.78538  0.39032  0.62569  1.0000
  C   C6        1.0  0.28538  0.10968  0.37431  1.0000
  C   C7        1.0  0.21462  0.60967  0.37431  1.0000
  C   C8        1.0  0.71462  0.89031  0.62570  1.0000
  C   C9        1.0  0.83994  0.35581  0.50180  1.0000
  C   C10       1.0  0.33993  0.14419  0.49820  1.0000
  C   C11       1.0  0.16007  0.64419  0.49820  1.0000
  C   C12       1.0  0.66007  0.85581  0.50181  1.0000
  C   C13       1.0  0.71361  0.39889  0.41029  1.0000
  C   C14       1.0  0.21361  0.10111  0.58971  1.0000
  C   C15       1.0  0.28639  0.60110  0.58972  1.0000
  C   C16       1.0  0.78639  0.89889  0.41029  1.0000
  C   C17       1.0  0.52889  0.48183  0.43696  1.0000
  C   C18       1.0  0.02888  0.01817  0.56304  1.0000
  C   C19       1.0  0.47111  0.51816  0.56304  1.0000
  C   C20       1.0  0.97111  0.98183  0.43695  1.0000
  S   S1        1.0  0.53103  0.49680  0.81380  1.0000
  S   S2        1.0  0.03103  0.00321  0.18620  1.0000
  S   S3        1.0  0.46897  0.50320  0.18620  1.0000
  S   S4        1.0  0.96896  0.99680  0.81379  1.0000
  O   O1        1.0  0.52023  0.64518  0.84535  1.0000
  O   O2        1.0  0.02023  0.85482  0.15465  1.0000
  O   O3        1.0  0.47978  0.35482  0.15465  1.0000
  O   O4        1.0  0.97975  0.14518  0.84535  1.0000
  O   O5        1.0  0.31954  0.42932  0.82348  1.0000
  O   O6        1.0  0.81954  0.07068  0.17653  1.0000
  O   O7        1.0  0.68046  0.57068  0.17652  1.0000
  O   O8        1.0  0.18046  0.92932  0.82347  1.0000
  O   O9        1.0  0.70405  0.43292  0.88028  1.0000
  O   O10       1.0  0.20405  0.06708  0.11972  1.0000
  O   O11       1.0  0.29595  0.56708  0.11972  1.0000
  O   O12       1.0  0.79594  0.93292  0.88028  1.0000
