data_image0
_chemical_formula_structural       Zn4H44C76N8O16
_chemical_formula_sum              "Zn4 H44 C76 N8 O16"
_cell_length_a       11.4934
_cell_length_b       15.2217
_cell_length_c       18.171
_cell_angle_alpha    90
_cell_angle_beta     90
_cell_angle_gamma    90

_space_group_name_H-M_alt    "P 1"
_space_group_IT_number       1

loop_
  _space_group_symop_operation_xyz
  'x, y, z'

loop_
  _atom_site_type_symbol
  _atom_site_label
  _atom_site_symmetry_multiplicity
  _atom_site_fract_x
  _atom_site_fract_y
  _atom_site_fract_z
  _atom_site_occupancy
  Zn  Zn1       1.0  0.50000  0.44769  0.90165  1.0000
  Zn  Zn2       1.0  0.50000  0.55231  0.09835  1.0000
  Zn  Zn3       1.0  0.50000  0.05231  0.40165  1.0000
  Zn  Zn4       1.0  0.50000  0.94769  0.59835  1.0000
  H   H1        1.0  0.50000  0.02825  0.16716  1.0000
  H   H2        1.0  0.50000  0.97175  0.83284  1.0000
  H   H3        1.0  0.50000  0.47175  0.66716  1.0000
  H   H4        1.0  0.50000  0.52825  0.33284  1.0000
  H   H5        1.0  0.50000  0.20400  0.97964  1.0000
  H   H6        1.0  0.50000  0.79600  0.02035  1.0000
  H   H7        1.0  0.50000  0.29600  0.47964  1.0000
  H   H8        1.0  0.50000  0.70400  0.52036  1.0000
  H   H9        1.0  0.50000  0.30724  0.20089  1.0000
  H   H10       1.0  0.50000  0.69276  0.79911  1.0000
  H   H11       1.0  0.50000  0.19276  0.70089  1.0000
  H   H12       1.0  0.50000  0.80724  0.29911  1.0000
  H   H13       1.0  0.30235  0.32275  0.95212  1.0000
  H   H14       1.0  0.30235  0.67725  0.04788  1.0000
  H   H15       1.0  0.69765  0.17725  0.45212  1.0000
  H   H16       1.0  0.69765  0.82275  0.54788  1.0000
  H   H17       1.0  0.69765  0.67725  0.04788  1.0000
  H   H18       1.0  0.69765  0.32275  0.95212  1.0000
  H   H19       1.0  0.30235  0.82275  0.54788  1.0000
  H   H20       1.0  0.30235  0.17725  0.45212  1.0000
  H   H21       1.0  0.08698  0.31536  0.95266  1.0000
  H   H22       1.0  0.08698  0.68464  0.04734  1.0000
  H   H23       1.0  0.91302  0.18464  0.45266  1.0000
  H   H24       1.0  0.91302  0.81536  0.54734  1.0000
  H   H25       1.0  0.91302  0.68464  0.04734  1.0000
  H   H26       1.0  0.91302  0.31536  0.95266  1.0000
  H   H27       1.0  0.08698  0.81536  0.54734  1.0000
  H   H28       1.0  0.08698  0.18464  0.45266  1.0000
  H   H29       1.0  0.08662  0.57531  0.85512  1.0000
  H   H30       1.0  0.08662  0.42469  0.14488  1.0000
  H   H31       1.0  0.91338  0.92469  0.35512  1.0000
  H   H32       1.0  0.91338  0.07531  0.64488  1.0000
  H   H33       1.0  0.91338  0.42469  0.14488  1.0000
  H   H34       1.0  0.91338  0.57531  0.85512  1.0000
  H   H35       1.0  0.08662  0.07531  0.64488  1.0000
  H   H36       1.0  0.08662  0.92469  0.35512  1.0000
  H   H37       1.0  0.30176  0.56958  0.85801  1.0000
  H   H38       1.0  0.30176  0.43042  0.14199  1.0000
  H   H39       1.0  0.69824  0.93042  0.35801  1.0000
  H   H40       1.0  0.69824  0.06958  0.64199  1.0000
  H   H41       1.0  0.69824  0.43042  0.14199  1.0000
  H   H42       1.0  0.69824  0.56958  0.85801  1.0000
  H   H43       1.0  0.30176  0.06958  0.64199  1.0000
  H   H44       1.0  0.30176  0.93042  0.35801  1.0000
  C   C1        1.0  0.50000  0.16607  0.19198  1.0000
  C   C2        1.0  0.50000  0.83393  0.80802  1.0000
  C   C3        1.0  0.50000  0.33393  0.69198  1.0000
  C   C4        1.0  0.50000  0.66607  0.30802  1.0000
  C   C5        1.0  0.50000  0.09425  0.14407  1.0000
  C   C6        1.0  0.50000  0.90575  0.85593  1.0000
  C   C7        1.0  0.50000  0.40575  0.64407  1.0000
  C   C8        1.0  0.50000  0.59425  0.35593  1.0000
  C   C9        1.0  0.50000  0.10642  0.06714  1.0000
  C   C10       1.0  0.50000  0.89358  0.93286  1.0000
  C   C11       1.0  0.50000  0.39358  0.56713  1.0000
  C   C12       1.0  0.50000  0.60642  0.43287  1.0000
  C   C13       1.0  0.50000  0.19257  0.03890  1.0000
  C   C14       1.0  0.50000  0.80743  0.96110  1.0000
  C   C15       1.0  0.50000  0.30743  0.53890  1.0000
  C   C16       1.0  0.50000  0.69257  0.46110  1.0000
  C   C17       1.0  0.50000  0.26444  0.08700  1.0000
  C   C18       1.0  0.50000  0.73556  0.91300  1.0000
  C   C19       1.0  0.50000  0.23556  0.58700  1.0000
  C   C20       1.0  0.50000  0.76444  0.41300  1.0000
  C   C21       1.0  0.50000  0.25138  0.16340  1.0000
  C   C22       1.0  0.50000  0.74862  0.83660  1.0000
  C   C23       1.0  0.50000  0.24862  0.66340  1.0000
  C   C24       1.0  0.50000  0.75138  0.33660  1.0000
  C   C25       1.0  0.50000  0.15106  0.27420  1.0000
  C   C26       1.0  0.50000  0.84894  0.72580  1.0000
  C   C27       1.0  0.50000  0.34894  0.77420  1.0000
  C   C28       1.0  0.50000  0.65106  0.22580  1.0000
  C   C29       1.0  0.50000  0.35557  0.05583  1.0000
  C   C30       1.0  0.50000  0.64443  0.94418  1.0000
  C   C31       1.0  0.50000  0.14443  0.55582  1.0000
  C   C32       1.0  0.50000  0.85557  0.44417  1.0000
  C   C33       1.0  0.50000  0.03250  0.01965  1.0000
  C   C34       1.0  0.50000  0.96750  0.98035  1.0000
  C   C35       1.0  0.50000  0.46750  0.51965  1.0000
  C   C36       1.0  0.50000  0.53250  0.48035  1.0000
  C   C37       1.0  0.25006  0.37722  0.93144  1.0000
  C   C38       1.0  0.25006  0.62278  0.06856  1.0000
  C   C39       1.0  0.74994  0.12278  0.43144  1.0000
  C   C40       1.0  0.74994  0.87722  0.56856  1.0000
  C   C41       1.0  0.74994  0.62278  0.06856  1.0000
  C   C42       1.0  0.74994  0.37722  0.93144  1.0000
  C   C43       1.0  0.25006  0.87722  0.56856  1.0000
  C   C44       1.0  0.25006  0.12278  0.43144  1.0000
  C   C45       1.0  0.12916  0.37409  0.93132  1.0000
  C   C46       1.0  0.12916  0.62591  0.06868  1.0000
  C   C47       1.0  0.87084  0.12591  0.43132  1.0000
  C   C48       1.0  0.87084  0.87409  0.56868  1.0000
  C   C49       1.0  0.87084  0.62591  0.06868  1.0000
  C   C50       1.0  0.87084  0.37409  0.93132  1.0000
  C   C51       1.0  0.12916  0.87409  0.56868  1.0000
  C   C52       1.0  0.12916  0.12591  0.43132  1.0000
  C   C53       1.0  0.06452  0.44555  0.90438  1.0000
  C   C54       1.0  0.06452  0.55445  0.09562  1.0000
  C   C55       1.0  0.93548  0.05445  0.40438  1.0000
  C   C56       1.0  0.93548  0.94555  0.59562  1.0000
  C   C57       1.0  0.93548  0.55445  0.09562  1.0000
  C   C58       1.0  0.93548  0.44555  0.90438  1.0000
  C   C59       1.0  0.06452  0.94555  0.59562  1.0000
  C   C60       1.0  0.06452  0.05445  0.40438  1.0000
  C   C61       1.0  0.12888  0.51715  0.87746  1.0000
  C   C62       1.0  0.12888  0.48285  0.12254  1.0000
  C   C63       1.0  0.87112  0.98285  0.37746  1.0000
  C   C64       1.0  0.87112  0.01715  0.62254  1.0000
  C   C65       1.0  0.87112  0.48285  0.12254  1.0000
  C   C66       1.0  0.87112  0.51715  0.87746  1.0000
  C   C67       1.0  0.12888  0.01715  0.62254  1.0000
  C   C68       1.0  0.12888  0.98285  0.37746  1.0000
  C   C69       1.0  0.24974  0.51510  0.87901  1.0000
  C   C70       1.0  0.24974  0.48490  0.12099  1.0000
  C   C71       1.0  0.75026  0.98490  0.37901  1.0000
  C   C72       1.0  0.75026  0.01510  0.62099  1.0000
  C   C73       1.0  0.75026  0.48490  0.12099  1.0000
  C   C74       1.0  0.75026  0.51510  0.87901  1.0000
  C   C75       1.0  0.24974  0.01510  0.62099  1.0000
  C   C76       1.0  0.24974  0.98490  0.37901  1.0000
  N   N1        1.0  0.30992  0.44683  0.90632  1.0000
  N   N2        1.0  0.30992  0.55317  0.09368  1.0000
  N   N3        1.0  0.69008  0.05317  0.40632  1.0000
  N   N4        1.0  0.69008  0.94683  0.59368  1.0000
  N   N5        1.0  0.69008  0.55317  0.09368  1.0000
  N   N6        1.0  0.69008  0.44683  0.90632  1.0000
  N   N7        1.0  0.30992  0.94683  0.59368  1.0000
  N   N8        1.0  0.30992  0.05317  0.40632  1.0000
  O   O1        1.0  0.50000  0.36195  0.98607  1.0000
  O   O2        1.0  0.50000  0.63805  0.01393  1.0000
  O   O3        1.0  0.50000  0.13805  0.48607  1.0000
  O   O4        1.0  0.50000  0.86195  0.51393  1.0000
  O   O5        1.0  0.50000  0.41895  0.10145  1.0000
  O   O6        1.0  0.50000  0.58105  0.89855  1.0000
  O   O7        1.0  0.50000  0.08105  0.60145  1.0000
  O   O8        1.0  0.50000  0.91895  0.39855  1.0000
  O   O9        1.0  0.50000  0.06878  0.29333  1.0000
  O   O10       1.0  0.50000  0.93122  0.70667  1.0000
  O   O11       1.0  0.50000  0.43122  0.79333  1.0000
  O   O12       1.0  0.50000  0.56878  0.20667  1.0000
  O   O13       1.0  0.50000  0.21440  0.31790  1.0000
  O   O14       1.0  0.50000  0.78560  0.68210  1.0000
  O   O15       1.0  0.50000  0.28560  0.81790  1.0000
  O   O16       1.0  0.50000  0.71440  0.18210  1.0000
