data_image0
_chemical_formula_structural       Cu6Mo2H24C34S6N12O2
_chemical_formula_sum              "Cu6 Mo2 H24 C34 S6 N12 O2"
_cell_length_a       9.1142
_cell_length_b       11.0962
_cell_length_c       15.6014
_cell_angle_alpha    95.5295
_cell_angle_beta     93.9445
_cell_angle_gamma    113.931

_space_group_name_H-M_alt    "P 1"
_space_group_IT_number       1

loop_
  _space_group_symop_operation_xyz
  'x, y, z'

loop_
  _atom_site_type_symbol
  _atom_site_label
  _atom_site_symmetry_multiplicity
  _atom_site_fract_x
  _atom_site_fract_y
  _atom_site_fract_z
  _atom_site_occupancy
  Cu  Cu1       1.0  0.36579  0.82587  0.73494  1.0000
  Cu  Cu2       1.0  0.63422  0.17413  0.26506  1.0000
  Cu  Cu3       1.0  0.75177  0.83499  0.66355  1.0000
  Cu  Cu4       1.0  0.24823  0.16502  0.33645  1.0000
  Cu  Cu5       1.0  0.64551  0.12792  0.65464  1.0000
  Cu  Cu6       1.0  0.35449  0.87208  0.34536  1.0000
  Mo  Mo1       1.0  0.50677  0.87420  0.58883  1.0000
  Mo  Mo2       1.0  0.49324  0.12580  0.41117  1.0000
  H   H1        1.0  0.39625  0.73164  0.90364  1.0000
  H   H2        1.0  0.60375  0.26836  0.09636  1.0000
  H   H3        1.0  0.59116  0.79500  0.03680  1.0000
  H   H4        1.0  0.40885  0.20500  0.96320  1.0000
  H   H5        1.0  0.84315  0.17609  0.94801  1.0000
  H   H6        1.0  0.15685  0.82391  0.05199  1.0000
  H   H7        1.0  0.64243  0.09299  0.81690  1.0000
  H   H8        1.0  0.35757  0.90701  0.18310  1.0000
  H   H9        1.0  0.70977  0.88868  0.16073  1.0000
  H   H10       1.0  0.29023  0.11132  0.83927  1.0000
  H   H11       1.0  0.24378  0.25259  0.16127  1.0000
  H   H12       1.0  0.75621  0.74740  0.83873  1.0000
  H   H13       1.0  0.04700  0.19258  0.02979  1.0000
  H   H14       1.0  0.95300  0.80741  0.97021  1.0000
  H   H15       1.0  0.92516  0.95472  0.28301  1.0000
  H   H16       1.0  0.07483  0.04528  0.71699  1.0000
  H   H17       1.0  0.64212  0.54331  0.61782  1.0000
  H   H18       1.0  0.35788  0.45670  0.38218  1.0000
  H   H19       1.0  0.74700  0.38764  0.55334  1.0000
  H   H20       1.0  0.25301  0.61237  0.44666  1.0000
  H   H21       1.0  0.15199  0.73084  0.49164  1.0000
  H   H22       1.0  0.84802  0.26916  0.50837  1.0000
  H   H23       1.0  0.03007  0.87076  0.55905  1.0000
  H   H24       1.0  0.96994  0.12925  0.44095  1.0000
  C   C1        1.0  0.49833  0.82914  0.91623  1.0000
  C   C2        1.0  0.50167  0.17086  0.08377  1.0000
  C   C3        1.0  0.60720  0.86597  0.99080  1.0000
  C   C4        1.0  0.39279  0.13402  0.00920  1.0000
  C   C5        1.0  0.73767  0.99223  0.00501  1.0000
  C   C6        1.0  0.26232  0.00776  0.99499  1.0000
  C   C7        1.0  0.74811  0.07550  0.94115  1.0000
  C   C8        1.0  0.25188  0.92450  0.05884  1.0000
  C   C9        1.0  0.63490  0.03032  0.86788  1.0000
  C   C10       1.0  0.36510  0.96968  0.13212  1.0000
  C   C11       1.0  0.85889  0.03289  0.08194  1.0000
  C   C12       1.0  0.14111  0.96711  0.91806  1.0000
  C   C13       1.0  0.82760  0.96733  0.15568  1.0000
  C   C14       1.0  0.17240  0.03267  0.84432  1.0000
  C   C15       1.0  0.04000  0.61754  0.77641  1.0000
  C   C16       1.0  0.95999  0.38246  0.22357  1.0000
  C   C17       1.0  0.12452  0.17099  0.15748  1.0000
  C   C18       1.0  0.87549  0.82901  0.84252  1.0000
  C   C19       1.0  0.01245  0.13760  0.08463  1.0000
  C   C20       1.0  0.98756  0.86240  0.91537  1.0000
  C   C21       1.0  0.94690  0.00509  0.22551  1.0000
  C   C22       1.0  0.05310  0.99491  0.77450  1.0000
  C   C23       1.0  0.75626  0.58055  0.58992  1.0000
  C   C24       1.0  0.24375  0.41946  0.41008  1.0000
  C   C25       1.0  0.81682  0.49382  0.55364  1.0000
  C   C26       1.0  0.18318  0.50618  0.44637  1.0000
  C   C27       1.0  0.96424  0.54435  0.51831  1.0000
  C   C28       1.0  0.03577  0.45566  0.48169  1.0000
  C   C29       1.0  0.03956  0.68289  0.51923  1.0000
  C   C30       1.0  0.96045  0.31711  0.48077  1.0000
  C   C31       1.0  0.97116  0.76294  0.55711  1.0000
  C   C32       1.0  0.02885  0.23706  0.44289  1.0000
  C   C33       1.0  0.83236  0.40792  0.75212  1.0000
  C   C34       1.0  0.16763  0.59209  0.24788  1.0000
  S   S1        1.0  0.38400  0.99252  0.65778  1.0000
  S   S2        1.0  0.61600  0.00748  0.34222  1.0000
  S   S3        1.0  0.48511  0.70543  0.66600  1.0000
  S   S4        1.0  0.51489  0.29456  0.33400  1.0000
  S   S5        1.0  0.77373  0.01106  0.59410  1.0000
  S   S6        1.0  0.22627  0.98895  0.40590  1.0000
  N   N1        1.0  0.51136  0.90884  0.85470  1.0000
  N   N2        1.0  0.48864  0.09115  0.14530  1.0000
  N   N3        1.0  0.16051  0.70840  0.76789  1.0000
  N   N4        1.0  0.83949  0.29160  0.23209  1.0000
  N   N5        1.0  0.09435  0.10542  0.22717  1.0000
  N   N6        1.0  0.90565  0.89458  0.77283  1.0000
  N   N7        1.0  0.83238  0.71380  0.59329  1.0000
  N   N8        1.0  0.16762  0.28620  0.40671  1.0000
  N   N9        1.0  0.75456  0.29720  0.71986  1.0000
  N   N10       1.0  0.24542  0.70280  0.28014  1.0000
  N   N11       1.0  0.90533  0.52703  0.79335  1.0000
  N   N12       1.0  0.09466  0.47298  0.20664  1.0000
  O   O1        1.0  0.42021  0.81446  0.48250  1.0000
  O   O2        1.0  0.57980  0.18553  0.51749  1.0000
