data_image0
_chemical_formula_structural       Cd4H24C20Br4O28
_chemical_formula_sum              "Cd4 H24 C20 Br4 O28"
_cell_length_a       6.34124
_cell_length_b       9.07662
_cell_length_c       16.2675
_cell_angle_alpha    100.651
_cell_angle_beta     89.9993
_cell_angle_gamma    90.0019

_space_group_name_H-M_alt    "P 1"
_space_group_IT_number       1

loop_
  _space_group_symop_operation_xyz
  'x, y, z'

loop_
  _atom_site_type_symbol
  _atom_site_label
  _atom_site_symmetry_multiplicity
  _atom_site_fract_x
  _atom_site_fract_y
  _atom_site_fract_z
  _atom_site_occupancy
  Cd  Cd1       1.0  0.30526  0.46192  0.32255  1.0000
  Cd  Cd2       1.0  0.80527  0.03807  0.17745  1.0000
  Cd  Cd3       1.0  0.69473  0.53807  0.67746  1.0000
  Cd  Cd4       1.0  0.19477  0.96194  0.82255  1.0000
  H   H1        1.0  0.40946  0.74770  0.41237  1.0000
  H   H2        1.0  0.90947  0.75230  0.08762  1.0000
  H   H3        1.0  0.59055  0.25228  0.58763  1.0000
  H   H4        1.0  0.09048  0.24772  0.91237  1.0000
  H   H5        1.0  0.40712  0.64767  0.48132  1.0000
  H   H6        1.0  0.90714  0.85233  0.01867  1.0000
  H   H7        1.0  0.59288  0.35232  0.51868  1.0000
  H   H8        1.0  0.09283  0.14770  0.98132  1.0000
  H   H9        1.0  0.69716  0.48678  0.23376  1.0000
  H   H10       1.0  0.19719  0.01321  0.26624  1.0000
  H   H11       1.0  0.30284  0.51320  0.76625  1.0000
  H   H12       1.0  0.80282  0.98678  0.73376  1.0000
  H   H13       1.0  0.66361  0.65876  0.28198  1.0000
  H   H14       1.0  0.16360  0.84123  0.21802  1.0000
  H   H15       1.0  0.33639  0.34122  0.71802  1.0000
  H   H16       1.0  0.83640  0.15876  0.78199  1.0000
  H   H17       1.0  0.84983  0.47645  0.34470  1.0000
  H   H18       1.0  0.34982  0.02353  0.15529  1.0000
  H   H19       1.0  0.15018  0.52354  0.65530  1.0000
  H   H20       1.0  0.65020  0.97645  0.84471  1.0000
  H   H21       1.0  0.91885  0.31443  0.35603  1.0000
  H   H22       1.0  0.41889  0.18554  0.14396  1.0000
  H   H23       1.0  0.08115  0.68556  0.64397  1.0000
  H   H24       1.0  0.58113  0.81444  0.85604  1.0000
  C   C1        1.0  0.69706  0.98892  0.33662  1.0000
  C   C2        1.0  0.19707  0.51108  0.16338  1.0000
  C   C3        1.0  0.30293  0.01107  0.66338  1.0000
  C   C4        1.0  0.80292  0.48894  0.83663  1.0000
  C   C5        1.0  0.60491  0.99620  0.42278  1.0000
  C   C6        1.0  0.10489  0.50380  0.07723  1.0000
  C   C7        1.0  0.39510  0.00377  0.57723  1.0000
  C   C8        1.0  0.89509  0.49623  0.92278  1.0000
  C   C9        1.0  0.67410  0.90641  0.47862  1.0000
  C   C10       1.0  0.17410  0.59362  0.02139  1.0000
  C   C11       1.0  0.32588  0.09362  0.52138  1.0000
  C   C12       1.0  0.82590  0.40641  0.97863  1.0000
  C   C13       1.0  0.43279  0.09248  0.44587  1.0000
  C   C14       1.0  0.93277  0.40754  0.05412  1.0000
  C   C15       1.0  0.56725  0.90750  0.55411  1.0000
  C   C16       1.0  0.06722  0.59251  0.94588  1.0000
  C   C17       1.0  0.38295  0.20875  0.39421  1.0000
  C   C18       1.0  0.88290  0.29127  0.10579  1.0000
  C   C19       1.0  0.61707  0.79125  0.60578  1.0000
  C   C20       1.0  0.11709  0.70875  0.89421  1.0000
  Br  Br1       1.0  0.92293  0.79026  0.45612  1.0000
  Br  Br2       1.0  0.42292  0.70974  0.04389  1.0000
  Br  Br3       1.0  0.07708  0.20972  0.54389  1.0000
  Br  Br4       1.0  0.57707  0.29031  0.95612  1.0000
  O   O1        1.0  0.67772  0.86825  0.28384  1.0000
  O   O2        1.0  0.17774  0.63175  0.21616  1.0000
  O   O3        1.0  0.32227  0.13172  0.71614  1.0000
  O   O4        1.0  0.82223  0.36827  0.78386  1.0000
  O   O5        1.0  0.77480  0.10960  0.31938  1.0000
  O   O6        1.0  0.27476  0.39043  0.18061  1.0000
  O   O7        1.0  0.22523  0.89042  0.68060  1.0000
  O   O8        1.0  0.72520  0.60960  0.81940  1.0000
  O   O9        1.0  0.33293  0.66523  0.42955  1.0000
  O   O10       1.0  0.83295  0.83477  0.07045  1.0000
  O   O11       1.0  0.66707  0.33477  0.57045  1.0000
  O   O12       1.0  0.16702  0.16526  0.92955  1.0000
  O   O13       1.0  0.28563  0.17632  0.32569  1.0000
  O   O14       1.0  0.78561  0.32369  0.17430  1.0000
  O   O15       1.0  0.71437  0.82367  0.67430  1.0000
  O   O16       1.0  0.21440  0.67631  0.82570  1.0000
  O   O17       1.0  0.65144  0.55211  0.28711  1.0000
  O   O18       1.0  0.15143  0.94788  0.21289  1.0000
  O   O19       1.0  0.34857  0.44787  0.71289  1.0000
  O   O20       1.0  0.84858  0.05210  0.78711  1.0000
  O   O21       1.0  0.44912  0.34082  0.42471  1.0000
  O   O22       1.0  0.94908  0.15917  0.07529  1.0000
  O   O23       1.0  0.55090  0.65915  0.57528  1.0000
  O   O24       1.0  0.05094  0.84083  0.92470  1.0000
  O   O25       1.0  0.96453  0.41961  0.36638  1.0000
  O   O26       1.0  0.46453  0.08034  0.13361  1.0000
  O   O27       1.0  0.03548  0.58036  0.63362  1.0000
  O   O28       1.0  0.53549  0.91964  0.86639  1.0000
