data_image0
_chemical_formula_structural       Ag4H22C32S4N14
_chemical_formula_sum              "Ag4 H22 C32 S4 N14"
_cell_length_a       4.04573
_cell_length_b       11.4471
_cell_length_c       20.1892
_cell_angle_alpha    89.999
_cell_angle_beta     90.9855
_cell_angle_gamma    90.0011

_space_group_name_H-M_alt    "P 1"
_space_group_IT_number       1

loop_
  _space_group_symop_operation_xyz
  'x, y, z'

loop_
  _atom_site_type_symbol
  _atom_site_label
  _atom_site_symmetry_multiplicity
  _atom_site_fract_x
  _atom_site_fract_y
  _atom_site_fract_z
  _atom_site_occupancy
  Ag  Ag1       1.0  0.15274  0.47716  0.09890  1.0000
  Ag  Ag2       1.0  0.84722  0.47717  0.40110  1.0000
  Ag  Ag3       1.0  0.84728  0.52283  0.90110  1.0000
  Ag  Ag4       1.0  0.15275  0.52284  0.59890  1.0000
  H   H1        1.0  0.39018  0.60841  0.21262  1.0000
  H   H2        1.0  0.60980  0.60841  0.28738  1.0000
  H   H3        1.0  0.60981  0.39158  0.78738  1.0000
  H   H4        1.0  0.39019  0.39158  0.71262  1.0000
  H   H5        1.0  0.50001  0.11504  0.25000  1.0000
  H   H6        1.0  0.50002  0.88496  0.75000  1.0000
  H   H7        1.0  0.14994  0.03958  0.19019  1.0000
  H   H8        1.0  0.85003  0.03958  0.30982  1.0000
  H   H9        1.0  0.85002  0.96042  0.80981  1.0000
  H   H10       1.0  0.14998  0.96041  0.69020  1.0000
  H   H11       1.0  0.82869  0.95067  0.09888  1.0000
  H   H12       1.0  0.17136  0.95068  0.40113  1.0000
  H   H13       1.0  0.17132  0.04933  0.90112  1.0000
  H   H14       1.0  0.82869  0.04933  0.59889  1.0000
  H   H15       1.0  0.66819  0.07766  0.99940  1.0000
  H   H16       1.0  0.33186  0.07769  0.50059  1.0000
  H   H17       1.0  0.33186  0.92233  0.00058  1.0000
  H   H18       1.0  0.66815  0.92235  0.49942  1.0000
  H   H19       1.0  0.82857  0.28714  0.00116  1.0000
  H   H20       1.0  0.17145  0.28716  0.49883  1.0000
  H   H21       1.0  0.17147  0.71286  0.99883  1.0000
  H   H22       1.0  0.82853  0.71287  0.50117  1.0000
  C   C1        1.0  0.49998  0.44550  0.25000  1.0000
  C   C2        1.0  0.50001  0.55449  0.75000  1.0000
  C   C3        1.0  0.49998  0.20971  0.25000  1.0000
  C   C4        1.0  0.50000  0.79028  0.75000  1.0000
  C   C5        1.0  0.33582  0.27266  0.20009  1.0000
  C   C6        1.0  0.66417  0.27267  0.29991  1.0000
  C   C7        1.0  0.66419  0.72733  0.79991  1.0000
  C   C8        1.0  0.33583  0.72733  0.70009  1.0000
  C   C9        1.0  0.15386  0.21272  0.14538  1.0000
  C   C10       1.0  0.84612  0.21273  0.35462  1.0000
  C   C11       1.0  0.84613  0.78727  0.85462  1.0000
  C   C12       1.0  0.15389  0.78727  0.64538  1.0000
  C   C13       1.0  0.07628  0.09343  0.14797  1.0000
  C   C14       1.0  0.92370  0.09343  0.35203  1.0000
  C   C15       1.0  0.92367  0.90657  0.85202  1.0000
  C   C16       1.0  0.07632  0.90657  0.64798  1.0000
  C   C17       1.0  0.89804  0.04264  0.09581  1.0000
  C   C18       1.0  0.10198  0.04265  0.40419  1.0000
  C   C19       1.0  0.10194  0.95737  0.90419  1.0000
  C   C20       1.0  0.89804  0.95736  0.59581  1.0000
  C   C21       1.0  0.80619  0.11218  0.04183  1.0000
  C   C22       1.0  0.19381  0.11220  0.45817  1.0000
  C   C23       1.0  0.19381  0.88782  0.95816  1.0000
  C   C24       1.0  0.80618  0.88782  0.54184  1.0000
  C   C25       1.0  0.89448  0.22969  0.04234  1.0000
  C   C26       1.0  0.10550  0.22970  0.45765  1.0000
  C   C27       1.0  0.10553  0.77031  0.95765  1.0000
  C   C28       1.0  0.89449  0.77032  0.54235  1.0000
  C   C29       1.0  0.61077  0.70890  0.10777  1.0000
  C   C30       1.0  0.38920  0.70891  0.39223  1.0000
  C   C31       1.0  0.38922  0.29109  0.89223  1.0000
  C   C32       1.0  0.61080  0.29109  0.60777  1.0000
  S   S1        1.0  0.65641  0.58899  0.06227  1.0000
  S   S2        1.0  0.34354  0.58900  0.43773  1.0000
  S   S3        1.0  0.34359  0.41100  0.93772  1.0000
  S   S4        1.0  0.65643  0.41100  0.56228  1.0000
  N   N1        1.0  0.33568  0.39013  0.20003  1.0000
  N   N2        1.0  0.66429  0.39014  0.29996  1.0000
  N   N3        1.0  0.66431  0.60986  0.79997  1.0000
  N   N4        1.0  0.33571  0.60986  0.70003  1.0000
  N   N5        1.0  0.49998  0.56282  0.25000  1.0000
  N   N6        1.0  0.50001  0.43718  0.75000  1.0000
  N   N7        1.0  0.06215  0.27905  0.09289  1.0000
  N   N8        1.0  0.93785  0.27906  0.40710  1.0000
  N   N9        1.0  0.93788  0.72094  0.90710  1.0000
  N   N10       1.0  0.06214  0.72095  0.59290  1.0000
  N   N11       1.0  0.56435  0.79513  0.13838  1.0000
  N   N12       1.0  0.43565  0.79515  0.36163  1.0000
  N   N13       1.0  0.43569  0.20486  0.86162  1.0000
  N   N14       1.0  0.56432  0.20484  0.63837  1.0000
