data_image0
_chemical_formula_structural       Cu8H48W2C60S14I4N12
_chemical_formula_sum              "Cu8 H48 W2 C60 S14 I4 N12"
_cell_length_a       12.3926
_cell_length_b       14.3238
_cell_length_c       15.032
_cell_angle_alpha    118.437
_cell_angle_beta     90.0004
_cell_angle_gamma    89.9998

_space_group_name_H-M_alt    "P 1"
_space_group_IT_number       1

loop_
  _space_group_symop_operation_xyz
  'x, y, z'

loop_
  _atom_site_type_symbol
  _atom_site_label
  _atom_site_symmetry_multiplicity
  _atom_site_fract_x
  _atom_site_fract_y
  _atom_site_fract_z
  _atom_site_occupancy
  Cu  Cu1       1.0  0.16636  0.19493  0.16404  1.0000
  Cu  Cu2       1.0  0.66655  0.96896  0.16399  1.0000
  Cu  Cu3       1.0  0.66656  0.03105  0.83601  1.0000
  Cu  Cu4       1.0  0.16636  0.80507  0.83596  1.0000
  Cu  Cu5       1.0  0.17296  0.08189  0.87471  1.0000
  Cu  Cu6       1.0  0.67298  0.79286  0.87473  1.0000
  Cu  Cu7       1.0  0.67299  0.20714  0.12527  1.0000
  Cu  Cu8       1.0  0.17296  0.91810  0.12529  1.0000
  H   H1        1.0  0.18009  0.43563  0.28179  1.0000
  H   H2        1.0  0.68031  0.84622  0.28186  1.0000
  H   H3        1.0  0.68031  0.15377  0.71815  1.0000
  H   H4        1.0  0.18009  0.56437  0.71821  1.0000
  H   H5        1.0  0.29350  0.58113  0.28288  1.0000
  H   H6        1.0  0.79360  0.70181  0.28306  1.0000
  H   H7        1.0  0.79359  0.29819  0.71694  1.0000
  H   H8        1.0  0.29350  0.41887  0.71712  1.0000
  H   H9        1.0  0.48522  0.33570  0.04531  1.0000
  H   H10       1.0  0.98544  0.70944  0.04537  1.0000
  H   H11       1.0  0.98544  0.29056  0.95463  1.0000
  H   H12       1.0  0.48523  0.66429  0.95469  1.0000
  H   H13       1.0  0.36454  0.20299  0.05491  1.0000
  H   H14       1.0  0.86485  0.85176  0.05488  1.0000
  H   H15       1.0  0.86485  0.14824  0.94512  1.0000
  H   H16       1.0  0.36455  0.79701  0.94509  1.0000
  H   H17       1.0  0.15541  0.68745  0.06666  1.0000
  H   H18       1.0  0.65561  0.37908  0.06649  1.0000
  H   H19       1.0  0.65560  0.62093  0.93352  1.0000
  H   H20       1.0  0.15541  0.31255  0.93334  1.0000
  H   H21       1.0  0.26068  0.55247  0.08736  1.0000
  H   H22       1.0  0.76087  0.53482  0.08737  1.0000
  H   H23       1.0  0.76086  0.46518  0.91263  1.0000
  H   H24       1.0  0.26068  0.44753  0.91263  1.0000
  H   H25       1.0  0.51947  0.78422  0.20957  1.0000
  H   H26       1.0  0.01925  0.42557  0.21032  1.0000
  H   H27       1.0  0.01924  0.57443  0.78968  1.0000
  H   H28       1.0  0.51947  0.21578  0.79044  1.0000
  H   H29       1.0  0.40281  0.90925  0.18699  1.0000
  H   H30       1.0  0.90267  0.27777  0.18738  1.0000
  H   H31       1.0  0.90266  0.72223  0.81262  1.0000
  H   H32       1.0  0.40282  0.09075  0.81302  1.0000
  H   H33       1.0  0.97643  0.95185  0.78399  1.0000
  H   H34       1.0  0.47643  0.83184  0.78414  1.0000
  H   H35       1.0  0.47643  0.16816  0.21586  1.0000
  H   H36       1.0  0.97643  0.04816  0.21601  1.0000
  H   H37       1.0  0.84696  0.91863  0.64557  1.0000
  H   H38       1.0  0.34686  0.72672  0.64585  1.0000
  H   H39       1.0  0.34686  0.27328  0.35415  1.0000
  H   H40       1.0  0.84695  0.08137  0.35443  1.0000
  H   H41       1.0  0.04903  0.11763  0.56950  1.0000
  H   H42       1.0  0.54907  0.45173  0.56953  1.0000
  H   H43       1.0  0.54906  0.54827  0.43047  1.0000
  H   H44       1.0  0.04903  0.88237  0.43050  1.0000
  H   H45       1.0  0.17046  0.14028  0.70905  1.0000
  H   H46       1.0  0.67053  0.56852  0.70907  1.0000
  H   H47       1.0  0.67053  0.43149  0.29092  1.0000
  H   H48       1.0  0.17045  0.85972  0.29095  1.0000
  W   W1        1.0  0.17395  1.00000  0.00000  1.0000
  W   W2        1.0  0.67400  1.00000  0.00000  1.0000
  C   C1        1.0  0.24683  0.41826  0.22851  1.0000
  C   C2        1.0  0.74707  0.81021  0.22854  1.0000
  C   C3        1.0  0.74706  0.18979  0.77146  1.0000
  C   C4        1.0  0.24683  0.58174  0.77149  1.0000
  C   C5        1.0  0.31080  0.49839  0.22964  1.0000
  C   C6        1.0  0.81097  0.73123  0.22978  1.0000
  C   C7        1.0  0.81096  0.26877  0.77022  1.0000
  C   C8        1.0  0.31080  0.50161  0.77035  1.0000
  C   C9        1.0  0.39837  0.47011  0.16255  1.0000
  C   C10       1.0  0.89854  0.69237  0.16272  1.0000
  C   C11       1.0  0.89853  0.30763  0.83728  1.0000
  C   C12       1.0  0.39837  0.52988  0.83744  1.0000
  C   C13       1.0  0.41845  0.36247  0.09875  1.0000
  C   C14       1.0  0.91863  0.73617  0.09884  1.0000
  C   C15       1.0  0.91863  0.26383  0.90116  1.0000
  C   C16       1.0  0.41845  0.63752  0.90125  1.0000
  C   C17       1.0  0.35023  0.28766  0.10329  1.0000
  C   C18       1.0  0.85050  0.81551  0.10326  1.0000
  C   C19       1.0  0.85050  0.18449  0.89675  1.0000
  C   C20       1.0  0.35024  0.71233  0.89671  1.0000
  C   C21       1.0  0.23640  0.70591  0.09885  1.0000
  C   C22       1.0  0.73653  0.39283  0.09881  1.0000
  C   C23       1.0  0.73652  0.60717  0.90120  1.0000
  C   C24       1.0  0.23640  0.29409  0.90115  1.0000
  C   C25       1.0  0.29588  0.63006  0.10961  1.0000
  C   C26       1.0  0.79600  0.47951  0.10971  1.0000
  C   C27       1.0  0.79598  0.52050  0.89030  1.0000
  C   C28       1.0  0.29588  0.36994  0.89038  1.0000
  C   C29       1.0  0.40077  0.65574  0.14946  1.0000
  C   C30       1.0  0.90080  0.49374  0.14977  1.0000
  C   C31       1.0  0.90079  0.50626  0.85023  1.0000
  C   C32       1.0  0.40077  0.34425  0.85054  1.0000
  C   C33       1.0  0.43974  0.75772  0.17665  1.0000
  C   C34       1.0  0.93964  0.41904  0.17714  1.0000
  C   C35       1.0  0.93963  0.58096  0.82286  1.0000
  C   C36       1.0  0.43974  0.24227  0.82335  1.0000
  C   C37       1.0  0.37385  0.82892  0.16390  1.0000
  C   C38       1.0  0.87379  0.33500  0.16420  1.0000
  C   C39       1.0  0.87378  0.66500  0.83580  1.0000
  C   C40       1.0  0.37385  0.17108  0.83610  1.0000
  C   C41       1.0  0.98988  0.98710  0.73472  1.0000
  C   C42       1.0  0.48984  0.74734  0.73489  1.0000
  C   C43       1.0  0.48985  0.25266  0.26510  1.0000
  C   C44       1.0  0.98988  0.01290  0.26528  1.0000
  C   C45       1.0  0.91767  0.96836  0.65688  1.0000
  C   C46       1.0  0.41759  0.68830  0.65711  1.0000
  C   C47       1.0  0.41760  0.31170  0.34288  1.0000
  C   C48       1.0  0.91767  0.03165  0.34312  1.0000
  C   C49       1.0  0.93744  0.01525  0.59547  1.0000
  C   C50       1.0  0.43743  0.58005  0.59559  1.0000
  C   C51       1.0  0.43743  0.41995  0.40441  1.0000
  C   C52       1.0  0.93744  0.98475  0.40452  1.0000
  C   C53       1.0  0.03011  0.07872  0.61466  1.0000
  C   C54       1.0  0.53012  0.53576  0.61473  1.0000
  C   C55       1.0  0.53012  0.46424  0.38527  1.0000
  C   C56       1.0  0.03011  0.92128  0.38534  1.0000
  C   C57       1.0  0.09789  0.09186  0.69279  1.0000
  C   C58       1.0  0.59792  0.60070  0.69287  1.0000
  C   C59       1.0  0.59792  0.39930  0.30712  1.0000
  C   C60       1.0  0.09788  0.90814  0.30721  1.0000
  S   S1        1.0  0.06835  0.13529  0.01685  1.0000
  S   S2        1.0  0.56841  0.88155  0.01687  1.0000
  S   S3        1.0  0.56842  0.11845  0.98314  1.0000
  S   S4        1.0  0.06835  0.86471  0.98316  1.0000
  S   S5        1.0  0.27705  0.94443  0.86103  1.0000
  S   S6        1.0  0.77710  0.91662  0.86104  1.0000
  S   S7        1.0  0.77710  0.08338  0.13897  1.0000
  S   S8        1.0  0.27705  0.05557  0.13897  1.0000
  S   S9        1.0  0.48794  0.56594  0.16207  1.0000
  S   S10       1.0  0.98804  0.59610  0.16241  1.0000
  S   S11       1.0  0.98803  0.40390  0.83759  1.0000
  S   S12       1.0  0.48794  0.43405  0.83792  1.0000
  S   S13       1.0  0.84495  0.00000  0.50000  1.0000
  S   S14       1.0  0.34498  0.50000  0.50000  1.0000
  I   I1        1.0  0.07097  0.28848  0.33645  1.0000
  I   I2        1.0  0.57090  0.04770  0.33627  1.0000
  I   I3        1.0  0.57090  0.95230  0.66373  1.0000
  I   I4        1.0  0.07096  0.71152  0.66356  1.0000
  N   N1        1.0  0.26529  0.31436  0.16606  1.0000
  N   N2        1.0  0.76555  0.85161  0.16602  1.0000
  N   N3        1.0  0.76555  0.14839  0.83398  1.0000
  N   N4        1.0  0.26529  0.68564  0.83394  1.0000
  N   N5        1.0  0.27312  0.80446  0.12562  1.0000
  N   N6        1.0  0.77318  0.32107  0.12563  1.0000
  N   N7        1.0  0.77317  0.67893  0.87438  1.0000
  N   N8        1.0  0.27312  0.19554  0.87438  1.0000
  N   N9        1.0  0.07838  0.04830  0.75354  1.0000
  N   N10       1.0  0.57839  0.70499  0.75364  1.0000
  N   N11       1.0  0.57840  0.29501  0.24636  1.0000
  N   N12       1.0  0.07837  0.95170  0.24646  1.0000
