data_image0
_chemical_formula_structural       CuMo4H28C40N8O13
_chemical_formula_sum              "Cu1 Mo4 H28 C40 N8 O13"
_cell_length_a       8.1583
_cell_length_b       9.19923
_cell_length_c       13.8477
_cell_angle_alpha    78.4267
_cell_angle_beta     84.4851
_cell_angle_gamma    77.1955

_space_group_name_H-M_alt    "P 1"
_space_group_IT_number       1

loop_
  _space_group_symop_operation_xyz
  'x, y, z'

loop_
  _atom_site_type_symbol
  _atom_site_label
  _atom_site_symmetry_multiplicity
  _atom_site_fract_x
  _atom_site_fract_y
  _atom_site_fract_z
  _atom_site_occupancy
  Cu  Cu1       1.0  0.50000  0.50000  0.50000  1.0000
  Mo  Mo1       1.0  0.16036  0.81953  0.42490  1.0000
  Mo  Mo2       1.0  0.83964  0.18047  0.57511  1.0000
  Mo  Mo3       1.0  0.30101  0.11728  0.55087  1.0000
  Mo  Mo4       1.0  0.69899  0.88272  0.44913  1.0000
  H   H1        1.0  0.37523  0.08414  0.30786  1.0000
  H   H2        1.0  0.62477  0.91587  0.69214  1.0000
  H   H3        1.0  0.33554  0.24133  0.14058  1.0000
  H   H4        1.0  0.66447  0.75868  0.85942  1.0000
  H   H5        1.0  0.04200  0.60396  0.27873  1.0000
  H   H6        1.0  0.95798  0.39604  0.72127  1.0000
  H   H7        1.0  0.09705  0.43151  0.44139  1.0000
  H   H8        1.0  0.90293  0.56848  0.55861  1.0000
  H   H9        1.0  0.35162  0.40571  0.01504  1.0000
  H   H10       1.0  0.64839  0.59429  0.98496  1.0000
  H   H11       1.0  0.03838  0.80237  0.85332  1.0000
  H   H12       1.0  0.96163  0.19763  0.14668  1.0000
  H   H13       1.0  0.36775  0.32724  0.86800  1.0000
  H   H14       1.0  0.63225  0.67276  0.13200  1.0000
  H   H15       1.0  0.49596  0.29421  0.70118  1.0000
  H   H16       1.0  0.50403  0.70579  0.29882  1.0000
  H   H17       1.0  0.38573  0.75823  0.59650  1.0000
  H   H18       1.0  0.61428  0.24176  0.40350  1.0000
  H   H19       1.0  0.25320  0.81103  0.75528  1.0000
  H   H20       1.0  0.74680  0.18896  0.24472  1.0000
  H   H21       1.0  0.85790  0.98447  0.85542  1.0000
  H   H22       1.0  0.14210  0.01552  0.14458  1.0000
  H   H23       1.0  0.63123  0.20010  0.86863  1.0000
  H   H24       1.0  0.36878  0.79990  0.13137  1.0000
  H   H25       1.0  0.57181  0.06786  0.17241  1.0000
  H   H26       1.0  0.42820  0.93215  0.82759  1.0000
  H   H27       1.0  0.80722  0.84745  0.17312  1.0000
  H   H28       1.0  0.19279  0.15256  0.82688  1.0000
  C   C1        1.0  0.30204  0.19981  0.29864  1.0000
  C   C2        1.0  0.69796  0.80019  0.70136  1.0000
  C   C3        1.0  0.27945  0.28903  0.20502  1.0000
  C   C4        1.0  0.72055  0.71097  0.79498  1.0000
  C   C5        1.0  0.18501  0.43796  0.19538  1.0000
  C   C6        1.0  0.81498  0.56205  0.80462  1.0000
  C   C7        1.0  0.11627  0.48918  0.28246  1.0000
  C   C8        1.0  0.88372  0.51082  0.71754  1.0000
  C   C9        1.0  0.14579  0.39327  0.37275  1.0000
  C   C10       1.0  0.85421  0.60673  0.62725  1.0000
  C   C11       1.0  0.15417  0.53878  0.09800  1.0000
  C   C12       1.0  0.84583  0.46122  0.90200  1.0000
  C   C13       1.0  0.24789  0.50451  0.01186  1.0000
  C   C14       1.0  0.75211  0.49548  0.98814  1.0000
  C   C15       1.0  0.20672  0.60064  0.92167  1.0000
  C   C16       1.0  0.79328  0.39936  0.07832  1.0000
  C   C17       1.0  0.07589  0.72775  0.92244  1.0000
  C   C18       1.0  0.92411  0.27225  0.07756  1.0000
  C   C19       1.0  0.99166  0.75678  0.01163  1.0000
  C   C20       1.0  0.00835  0.24322  0.98837  1.0000
  C   C21       1.0  0.29437  0.57241  0.82682  1.0000
  C   C22       1.0  0.70563  0.42759  0.17318  1.0000
  C   C23       1.0  0.36955  0.42639  0.81005  1.0000
  C   C24       1.0  0.63044  0.57361  0.18995  1.0000
  C   C25       1.0  0.44078  0.40662  0.71693  1.0000
  C   C26       1.0  0.55921  0.59338  0.28307  1.0000
  C   C27       1.0  0.37737  0.66545  0.65796  1.0000
  C   C28       1.0  0.62263  0.33455  0.34204  1.0000
  C   C29       1.0  0.30193  0.69348  0.74822  1.0000
  C   C30       1.0  0.69807  0.30652  0.25178  1.0000
  C   C31       1.0  0.85313  0.89138  0.01419  1.0000
  C   C32       1.0  0.14687  0.10862  0.98582  1.0000
  C   C33       1.0  0.80033  0.99507  0.92852  1.0000
  C   C34       1.0  0.19967  0.00494  0.07148  1.0000
  C   C35       1.0  0.66901  0.11886  0.93568  1.0000
  C   C36       1.0  0.33100  0.88114  0.06432  1.0000
  C   C37       1.0  0.63743  0.04670  0.10265  1.0000
  C   C38       1.0  0.36257  0.95330  0.89735  1.0000
  C   C39       1.0  0.76945  0.92120  0.10362  1.0000
  C   C40       1.0  0.23056  0.07880  0.89638  1.0000
  N   N1        1.0  0.23724  0.25017  0.38179  1.0000
  N   N2        1.0  0.76275  0.74982  0.61821  1.0000
  N   N3        1.0  0.44201  0.52446  0.64139  1.0000
  N   N4        1.0  0.55799  0.47554  0.35861  1.0000
  N   N5        1.0  0.58534  0.14622  0.02069  1.0000
  N   N6        1.0  0.41466  0.85379  0.97932  1.0000
  N   N7        1.0  0.03024  0.66266  0.09771  1.0000
  N   N8        1.0  0.96976  0.33734  0.90229  1.0000
  O   O1        1.0  0.37478  0.28007  0.54868  1.0000
  O   O2        1.0  0.62523  0.71993  0.45132  1.0000
  O   O3        1.0  0.50000  1.00000  0.50000  1.0000
  O   O4        1.0  0.30855  0.02913  0.67272  1.0000
  O   O5        1.0  0.69145  0.97087  0.32728  1.0000
  O   O6        1.0  0.19302  0.94914  0.49786  1.0000
  O   O7        1.0  0.80698  0.05086  0.50215  1.0000
  O   O8        1.0  0.21555  0.88348  0.30288  1.0000
  O   O9        1.0  0.78445  0.11652  0.69713  1.0000
  O   O10       1.0  0.94314  0.79168  0.43686  1.0000
  O   O11       1.0  0.05686  0.20832  0.56314  1.0000
  O   O12       1.0  0.28643  0.63831  0.46426  1.0000
  O   O13       1.0  0.71357  0.36169  0.53574  1.0000
