data_image0
_chemical_formula_structural       Zn4H44C38N4O20
_chemical_formula_sum              "Zn4 H44 C38 N4 O20"
_cell_length_a       7.28552
_cell_length_b       7.2855
_cell_length_c       26.4805
_cell_angle_alpha    90
_cell_angle_beta     89.9993
_cell_angle_gamma    89.3229

_space_group_name_H-M_alt    "P 1"
_space_group_IT_number       1

loop_
  _space_group_symop_operation_xyz
  'x, y, z'

loop_
  _atom_site_type_symbol
  _atom_site_label
  _atom_site_symmetry_multiplicity
  _atom_site_fract_x
  _atom_site_fract_y
  _atom_site_fract_z
  _atom_site_occupancy
  Zn  Zn1       1.0  0.03569  0.31342  0.72007  1.0000
  Zn  Zn2       1.0  0.68658  0.96431  0.27993  1.0000
  Zn  Zn3       1.0  0.18658  0.46431  0.22007  1.0000
  Zn  Zn4       1.0  0.53569  0.81342  0.77993  1.0000
  H   H1        1.0  0.76887  0.20265  0.77026  1.0000
  H   H2        1.0  0.79735  0.23114  0.22975  1.0000
  H   H3        1.0  0.29734  0.73114  0.27025  1.0000
  H   H4        1.0  0.26887  0.70265  0.72975  1.0000
  H   H5        1.0  0.76938  0.42439  0.77030  1.0000
  H   H6        1.0  0.57562  0.23063  0.22970  1.0000
  H   H7        1.0  0.07561  0.73063  0.27030  1.0000
  H   H8        1.0  0.26938  0.92439  0.72970  1.0000
  H   H9        1.0  0.30781  0.31461  0.86689  1.0000
  H   H10       1.0  0.68539  0.69219  0.13311  1.0000
  H   H11       1.0  0.18539  0.19219  0.36689  1.0000
  H   H12       1.0  0.80782  0.81461  0.63311  1.0000
  H   H13       1.0  0.08421  0.31580  0.83686  1.0000
  H   H14       1.0  0.68420  0.91579  0.16314  1.0000
  H   H15       1.0  0.18420  0.41579  0.33686  1.0000
  H   H16       1.0  0.58422  0.81580  0.66314  1.0000
  H   H17       1.0  0.68392  0.31587  0.63988  1.0000
  H   H18       1.0  0.68412  0.31609  0.36012  1.0000
  H   H19       1.0  0.18413  0.81609  0.13988  1.0000
  H   H20       1.0  0.18391  0.81587  0.86012  1.0000
  H   H21       1.0  0.44979  0.34827  0.70750  1.0000
  H   H22       1.0  0.65172  0.55021  0.29250  1.0000
  H   H23       1.0  0.15172  0.05022  0.20750  1.0000
  H   H24       1.0  0.94978  0.84828  0.79250  1.0000
  H   H25       1.0  0.02413  0.26158  0.60763  1.0000
  H   H26       1.0  0.73842  0.97587  0.39237  1.0000
  H   H27       1.0  0.23842  0.47588  0.10762  1.0000
  H   H28       1.0  0.52412  0.76159  0.89238  1.0000
  H   H29       1.0  0.24023  0.22152  0.53505  1.0000
  H   H30       1.0  0.77848  0.75976  0.46495  1.0000
  H   H31       1.0  0.27849  0.25978  0.03505  1.0000
  H   H32       1.0  0.74022  0.72153  0.96496  1.0000
  H   H33       1.0  0.60176  0.10784  0.52084  1.0000
  H   H34       1.0  0.89215  0.39824  0.47916  1.0000
  H   H35       1.0  0.39216  0.89825  0.02083  1.0000
  H   H36       1.0  0.10175  0.60784  0.97916  1.0000
  H   H37       1.0  0.75953  0.23965  0.55586  1.0000
  H   H38       1.0  0.76034  0.24047  0.44414  1.0000
  H   H39       1.0  0.26035  0.74048  0.05586  1.0000
  H   H40       1.0  0.25952  0.73965  0.94414  1.0000
  H   H41       1.0  0.47106  0.38887  0.48113  1.0000
  H   H42       1.0  0.61112  0.52893  0.51887  1.0000
  H   H43       1.0  0.11112  0.02893  0.98113  1.0000
  H   H44       1.0  0.97107  0.88887  0.01888  1.0000
  C   C1        1.0  0.28047  0.13931  0.80175  1.0000
  C   C2        1.0  0.86069  0.71954  0.19825  1.0000
  C   C3        1.0  0.36068  0.21954  0.30175  1.0000
  C   C4        1.0  0.78047  0.63931  0.69825  1.0000
  C   C5        1.0  0.23392  0.31413  0.83100  1.0000
  C   C6        1.0  0.68588  0.76608  0.16900  1.0000
  C   C7        1.0  0.18589  0.26608  0.33100  1.0000
  C   C8        1.0  0.73393  0.81410  0.66900  1.0000
  C   C9        1.0  0.28026  0.48577  0.80083  1.0000
  C   C10       1.0  0.51423  0.71975  0.19917  1.0000
  C   C11       1.0  0.01423  0.21975  0.30083  1.0000
  C   C12       1.0  0.78026  0.98577  0.69917  1.0000
  C   C13       1.0  0.53908  0.30229  0.63067  1.0000
  C   C14       1.0  0.69769  0.46092  0.36933  1.0000
  C   C15       1.0  0.19770  0.96093  0.13067  1.0000
  C   C16       1.0  0.03907  0.80230  0.86933  1.0000
  C   C17       1.0  0.40883  0.32078  0.66876  1.0000
  C   C18       1.0  0.67921  0.59117  0.33124  1.0000
  C   C19       1.0  0.17922  0.09118  0.16876  1.0000
  C   C20       1.0  0.90882  0.82078  0.83125  1.0000
  C   C21       1.0  0.17182  0.27278  0.61268  1.0000
  C   C22       1.0  0.72722  0.82818  0.38732  1.0000
  C   C23       1.0  0.22722  0.32819  0.11268  1.0000
  C   C24       1.0  0.67181  0.77279  0.88732  1.0000
  C   C25       1.0  0.29339  0.25054  0.57270  1.0000
  C   C26       1.0  0.74945  0.70662  0.42730  1.0000
  C   C27       1.0  0.24946  0.20663  0.07270  1.0000
  C   C28       1.0  0.79337  0.75054  0.92730  1.0000
  C   C29       1.0  0.48261  0.26382  0.58142  1.0000
  C   C30       1.0  0.73617  0.51739  0.41858  1.0000
  C   C31       1.0  0.23618  0.01740  0.08142  1.0000
  C   C32       1.0  0.98260  0.76382  0.91858  1.0000
  C   C33       1.0  0.62045  0.24153  0.53960  1.0000
  C   C34       1.0  0.75845  0.37955  0.46040  1.0000
  C   C35       1.0  0.25846  0.87956  0.03960  1.0000
  C   C36       1.0  0.12044  0.74154  0.96040  1.0000
  C   C37       1.0  0.60551  0.39448  0.50000  1.0000
  C   C38       1.0  0.10551  0.89449  1.00000  1.0000
  N   N1        1.0  0.22806  0.30570  0.66015  1.0000
  N   N2        1.0  0.69430  0.77195  0.33985  1.0000
  N   N3        1.0  0.19430  0.27195  0.16015  1.0000
  N   N4        1.0  0.72805  0.80571  0.83985  1.0000
  O   O1        1.0  0.19877  0.11362  0.75949  1.0000
  O   O2        1.0  0.88638  0.80123  0.24050  1.0000
  O   O3        1.0  0.38638  0.30123  0.25949  1.0000
  O   O4        1.0  0.69878  0.61361  0.74051  1.0000
  O   O5        1.0  0.39631  0.02843  0.82073  1.0000
  O   O6        1.0  0.97156  0.60369  0.17927  1.0000
  O   O7        1.0  0.47157  0.10370  0.32073  1.0000
  O   O8        1.0  0.89631  0.52842  0.67927  1.0000
  O   O9        1.0  0.19565  0.51338  0.75898  1.0000
  O   O10       1.0  0.48662  0.80435  0.24102  1.0000
  O   O11       1.0  0.98662  0.30436  0.25897  1.0000
  O   O12       1.0  0.69565  0.01338  0.74103  1.0000
  O   O13       1.0  0.39948  0.59233  0.81877  1.0000
  O   O14       1.0  0.40767  0.60052  0.18123  1.0000
  O   O15       1.0  0.90768  0.10051  0.31877  1.0000
  O   O16       1.0  0.89950  0.09232  0.68124  1.0000
  O   O17       1.0  0.84246  0.31244  0.78000  1.0000
  O   O18       1.0  0.68756  0.15755  0.22001  1.0000
  O   O19       1.0  0.18755  0.65755  0.27999  1.0000
  O   O20       1.0  0.34246  0.81245  0.72001  1.0000
