data_image0
_chemical_formula_structural       Co2H44C38N4O8
_chemical_formula_sum              "Co2 H44 C38 N4 O8"
_cell_length_a       8.72222
_cell_length_b       8.99601
_cell_length_c       11.7391
_cell_angle_alpha    80.7516
_cell_angle_beta     89.2847
_cell_angle_gamma    78.5168

_space_group_name_H-M_alt    "P 1"
_space_group_IT_number       1

loop_
  _space_group_symop_operation_xyz
  'x, y, z'

loop_
  _atom_site_type_symbol
  _atom_site_label
  _atom_site_symmetry_multiplicity
  _atom_site_fract_x
  _atom_site_fract_y
  _atom_site_fract_z
  _atom_site_occupancy
  Co  Co1       1.0  0.13426  0.55346  0.11970  1.0000
  Co  Co2       1.0  0.86573  0.44656  0.88030  1.0000
  H   H1        1.0  0.97447  0.86010  0.99235  1.0000
  H   H2        1.0  0.02556  0.13991  0.00765  1.0000
  H   H3        1.0  0.37451  0.55507  0.92409  1.0000
  H   H4        1.0  0.62548  0.44491  0.07590  1.0000
  H   H5        1.0  0.36464  0.41351  0.75409  1.0000
  H   H6        1.0  0.63536  0.58650  0.24591  1.0000
  H   H7        1.0  0.31266  0.23994  0.73276  1.0000
  H   H8        1.0  0.68734  0.76005  0.26726  1.0000
  H   H9        1.0  0.37235  0.12472  0.93468  1.0000
  H   H10       1.0  0.62766  0.87530  0.06534  1.0000
  H   H11       1.0  0.46143  0.27639  0.96034  1.0000
  H   H12       1.0  0.53856  0.72365  0.03966  1.0000
  H   H13       1.0  0.40567  0.71081  0.73659  1.0000
  H   H14       1.0  0.59433  0.28916  0.26341  1.0000
  H   H15       1.0  0.99087  0.03452  0.80969  1.0000
  H   H16       1.0  0.00915  0.96547  0.19030  1.0000
  H   H17       1.0  0.32489  0.27302  0.25470  1.0000
  H   H18       1.0  0.67509  0.72701  0.74529  1.0000
  H   H19       1.0  0.32591  0.02522  0.63992  1.0000
  H   H20       1.0  0.67411  0.97477  0.36007  1.0000
  H   H21       1.0  0.23209  0.90640  0.57266  1.0000
  H   H22       1.0  0.76794  0.09359  0.42733  1.0000
  H   H23       1.0  0.32121  0.09512  0.44016  1.0000
  H   H24       1.0  0.67878  0.90491  0.55983  1.0000
  H   H25       1.0  0.06226  0.19269  0.66984  1.0000
  H   H26       1.0  0.93776  0.80730  0.33016  1.0000
  H   H27       1.0  0.97038  0.07443  0.60282  1.0000
  H   H28       1.0  0.02964  0.92555  0.39718  1.0000
  H   H29       1.0  0.87068  0.36749  0.50192  1.0000
  H   H30       1.0  0.12931  0.63251  0.49807  1.0000
  H   H31       1.0  0.89378  0.53188  0.31201  1.0000
  H   H32       1.0  0.10621  0.46811  0.68799  1.0000
  H   H33       1.0  0.72965  0.01386  0.74846  1.0000
  H   H34       1.0  0.27034  0.98612  0.25155  1.0000
  H   H35       1.0  0.53044  0.99354  0.75641  1.0000
  H   H36       1.0  0.46954  0.00646  0.24361  1.0000
  H   H37       1.0  0.62730  0.02991  0.87787  1.0000
  H   H38       1.0  0.37268  0.97009  0.12214  1.0000
  H   H39       1.0  0.53108  0.39000  0.57863  1.0000
  H   H40       1.0  0.46893  0.60998  0.42137  1.0000
  H   H41       1.0  0.48781  0.20734  0.56964  1.0000
  H   H42       1.0  0.51218  0.79265  0.43038  1.0000
  H   H43       1.0  0.68630  0.22739  0.57998  1.0000
  H   H44       1.0  0.31369  0.77258  0.42003  1.0000
  C   C1        1.0  0.21270  0.33193  0.94831  1.0000
  C   C2        1.0  0.78730  0.66807  0.05169  1.0000
  C   C3        1.0  0.67577  0.31656  0.78898  1.0000
  C   C4        1.0  0.32423  0.68344  0.21102  1.0000
  C   C5        1.0  0.19906  0.88710  0.75370  1.0000
  C   C6        1.0  0.80096  0.11288  0.24629  1.0000
  C   C7        1.0  0.06800  0.83089  0.93267  1.0000
  C   C8        1.0  0.93202  0.16912  0.06732  1.0000
  C   C9        1.0  0.09430  0.21547  0.48879  1.0000
  C   C10       1.0  0.90570  0.78454  0.51120  1.0000
  C   C11       1.0  0.28941  0.66042  0.89519  1.0000
  C   C12       1.0  0.71059  0.33957  0.10480  1.0000
  C   C13       1.0  0.39401  0.28809  0.78016  1.0000
  C   C14       1.0  0.60600  0.71191  0.21985  1.0000
  C   C15       1.0  0.36879  0.24891  0.90969  1.0000
  C   C16       1.0  0.63121  0.75110  0.09031  1.0000
  C   C17       1.0  0.30721  0.75018  0.78986  1.0000
  C   C18       1.0  0.69280  0.24979  0.21013  1.0000
  C   C19       1.0  0.56149  0.23018  0.74220  1.0000
  C   C20       1.0  0.43850  0.76981  0.25781  1.0000
  C   C21       1.0  0.07833  0.92830  0.82930  1.0000
  C   C22       1.0  0.92169  0.07169  0.17069  1.0000
  C   C23       1.0  0.22698  0.28967  0.31297  1.0000
  C   C24       1.0  0.77301  0.71035  0.68703  1.0000
  C   C25       1.0  0.21578  0.98287  0.63825  1.0000
  C   C26       1.0  0.78424  0.01713  0.36174  1.0000
  C   C27       1.0  0.22313  0.19105  0.41693  1.0000
  C   C28       1.0  0.77686  0.80897  0.58306  1.0000
  C   C29       1.0  0.08022  0.11745  0.60341  1.0000
  C   C30       1.0  0.91979  0.88255  0.39658  1.0000
  C   C31       1.0  0.97347  0.34088  0.44946  1.0000
  C   C32       1.0  0.02652  0.65912  0.55053  1.0000
  C   C33       1.0  0.98566  0.43390  0.34481  1.0000
  C   C34       1.0  0.01432  0.56610  0.65519  1.0000
  C   C35       1.0  0.61545  0.05711  0.78345  1.0000
  C   C36       1.0  0.38454  0.94289  0.21657  1.0000
  C   C37       1.0  0.56720  0.26592  0.60956  1.0000
  C   C38       1.0  0.43280  0.73406  0.39045  1.0000
  N   N1        1.0  0.16919  0.69731  0.96562  1.0000
  N   N2        1.0  0.83082  0.30269  0.03437  1.0000
  N   N3        1.0  0.11083  0.41002  0.27664  1.0000
  N   N4        1.0  0.88915  0.58999  0.72336  1.0000
  O   O1        1.0  0.09796  0.36207  0.87707  1.0000
  O   O2        1.0  0.90203  0.63795  0.12293  1.0000
  O   O3        1.0  0.62583  0.44583  0.82167  1.0000
  O   O4        1.0  0.37417  0.55416  0.17833  1.0000
  O   O5        1.0  0.20659  0.36390  0.05044  1.0000
  O   O6        1.0  0.79340  0.63611  0.94956  1.0000
  O   O7        1.0  0.82183  0.25815  0.79356  1.0000
  O   O8        1.0  0.17818  0.74186  0.20644  1.0000
