data_image0
_chemical_formula_structural       Zn2H36C26N2O10
_chemical_formula_sum              "Zn2 H36 C26 N2 O10"
_cell_length_a       8.20197
_cell_length_b       9.41251
_cell_length_c       10.684
_cell_angle_alpha    75.2139
_cell_angle_beta     89.9912
_cell_angle_gamma    69.7417

_space_group_name_H-M_alt    "P 1"
_space_group_IT_number       1

loop_
  _space_group_symop_operation_xyz
  'x, y, z'

loop_
  _atom_site_type_symbol
  _atom_site_label
  _atom_site_symmetry_multiplicity
  _atom_site_fract_x
  _atom_site_fract_y
  _atom_site_fract_z
  _atom_site_occupancy
  Zn  Zn1       1.0  0.63828  0.14845  0.66429  1.0000
  Zn  Zn2       1.0  0.36172  0.85155  0.33571  1.0000
  H   H1        1.0  0.54666  0.34068  0.42846  1.0000
  H   H2        1.0  0.45334  0.65932  0.57154  1.0000
  H   H3        1.0  0.48446  0.19095  0.44393  1.0000
  H   H4        1.0  0.51554  0.80905  0.55608  1.0000
  H   H5        1.0  0.79318  0.60794  0.55531  1.0000
  H   H6        1.0  0.20682  0.39206  0.44469  1.0000
  H   H7        1.0  0.97591  0.45444  0.65003  1.0000
  H   H8        1.0  0.02409  0.54556  0.34997  1.0000
  H   H9        1.0  0.89159  0.17481  0.94582  1.0000
  H   H10       1.0  0.10841  0.82519  0.05418  1.0000
  H   H11       1.0  0.03926  0.09184  0.08977  1.0000
  H   H12       1.0  0.96074  0.90816  0.91023  1.0000
  H   H13       1.0  0.50047  0.22573  0.90313  1.0000
  H   H14       1.0  0.49953  0.77427  0.09687  1.0000
  H   H15       1.0  0.26415  0.19297  0.04282  1.0000
  H   H16       1.0  0.73585  0.80703  0.95718  1.0000
  H   H17       1.0  0.34079  0.04043  0.63402  1.0000
  H   H18       1.0  0.65921  0.95957  0.36598  1.0000
  H   H19       1.0  0.09188  0.00912  0.75756  1.0000
  H   H20       1.0  0.90813  0.99088  0.24244  1.0000
  H   H21       1.0  0.82557  0.45127  0.84863  1.0000
  H   H22       1.0  0.17443  0.54873  0.15137  1.0000
  H   H23       1.0  0.64692  0.62461  0.76665  1.0000
  H   H24       1.0  0.35308  0.37539  0.23336  1.0000
  H   H25       1.0  0.12022  0.70390  0.81370  1.0000
  H   H26       1.0  0.87978  0.29610  0.18630  1.0000
  H   H27       1.0  0.16011  0.50803  0.80675  1.0000
  H   H28       1.0  0.83989  0.49197  0.19324  1.0000
  H   H29       1.0  0.98161  0.60369  0.88711  1.0000
  H   H30       1.0  0.01839  0.39631  0.11289  1.0000
  H   H31       1.0  0.98081  0.75390  0.46668  1.0000
  H   H32       1.0  0.01919  0.24610  0.53332  1.0000
  H   H33       1.0  0.16771  0.60628  0.56606  1.0000
  H   H34       1.0  0.83229  0.39372  0.43394  1.0000
  H   H35       1.0  0.10836  0.80465  0.57068  1.0000
  H   H36       1.0  0.89164  0.19535  0.42932  1.0000
  C   C1        1.0  0.79872  0.84262  0.66332  1.0000
  C   C2        1.0  0.20128  0.15738  0.33668  1.0000
  C   C3        1.0  0.86670  0.56197  0.65203  1.0000
  C   C4        1.0  0.13330  0.43803  0.34797  1.0000
  C   C5        1.0  0.94317  0.68284  0.67343  1.0000
  C   C6        1.0  0.05683  0.31716  0.32658  1.0000
  C   C7        1.0  0.01304  0.07840  0.99367  1.0000
  C   C8        1.0  0.98696  0.92160  0.00633  1.0000
  C   C9        1.0  0.15745  0.09722  0.91268  1.0000
  C   C10       1.0  0.84255  0.90278  0.08732  1.0000
  C   C11       1.0  0.40714  0.17751  0.87526  1.0000
  C   C12       1.0  0.59286  0.82249  0.12474  1.0000
  C   C13       1.0  0.66006  0.41770  0.71213  1.0000
  C   C14       1.0  0.33994  0.58230  0.28787  1.0000
  C   C15       1.0  0.27455  0.16022  0.95153  1.0000
  C   C16       1.0  0.72545  0.83978  0.04847  1.0000
  C   C17       1.0  0.31752  0.07414  0.72455  1.0000
  C   C18       1.0  0.68248  0.92586  0.27544  1.0000
  C   C19       1.0  0.18043  0.05569  0.79496  1.0000
  C   C20       1.0  0.81957  0.94431  0.20504  1.0000
  C   C21       1.0  0.74819  0.51773  0.75465  1.0000
  C   C22       1.0  0.25181  0.48227  0.24535  1.0000
  C   C23       1.0  0.05738  0.62137  0.80344  1.0000
  C   C24       1.0  0.94263  0.37863  0.19656  1.0000
  C   C25       1.0  0.05636  0.71450  0.56194  1.0000
  C   C26       1.0  0.94364  0.28550  0.43806  1.0000
  N   N1        1.0  0.43028  0.13352  0.76405  1.0000
  N   N2        1.0  0.56972  0.86648  0.23595  1.0000
  O   O1        1.0  0.83987  0.94132  0.70927  1.0000
  O   O2        1.0  0.16013  0.05868  0.29073  1.0000
  O   O3        1.0  0.57834  0.22403  0.47379  1.0000
  O   O4        1.0  0.42166  0.77597  0.52621  1.0000
  O   O5        1.0  0.64883  0.87938  0.60700  1.0000
  O   O6        1.0  0.35117  0.12062  0.39301  1.0000
  O   O7        1.0  0.74785  0.26816  0.74149  1.0000
  O   O8        1.0  0.25215  0.73184  0.25851  1.0000
  O   O9        1.0  0.51138  0.47952  0.64903  1.0000
  O   O10       1.0  0.48861  0.52048  0.35097  1.0000
