data_image0
_chemical_formula_structural       Zn4H40C36N4O20
_chemical_formula_sum              "Zn4 H40 C36 N4 O20"
_cell_length_a       7.17808
_cell_length_b       7.46399
_cell_length_c       23.0139
_cell_angle_alpha    89.9996
_cell_angle_beta     89.9995
_cell_angle_gamma    89.0177

_space_group_name_H-M_alt    "P 1"
_space_group_IT_number       1

loop_
  _space_group_symop_operation_xyz
  'x, y, z'

loop_
  _atom_site_type_symbol
  _atom_site_label
  _atom_site_symmetry_multiplicity
  _atom_site_fract_x
  _atom_site_fract_y
  _atom_site_fract_z
  _atom_site_occupancy
  Zn  Zn1       1.0  0.42702  0.40835  0.78334  1.0000
  Zn  Zn2       1.0  0.07297  0.09164  0.28333  1.0000
  Zn  Zn3       1.0  0.57298  0.59164  0.21666  1.0000
  Zn  Zn4       1.0  0.92702  0.90835  0.71666  1.0000
  H   H1        1.0  0.53990  0.14671  0.72648  1.0000
  H   H2        1.0  0.96010  0.35330  0.22648  1.0000
  H   H3        1.0  0.46009  0.85329  0.27352  1.0000
  H   H4        1.0  0.03989  0.64670  0.77352  1.0000
  H   H5        1.0  0.31683  0.14740  0.72582  1.0000
  H   H6        1.0  0.18318  0.35259  0.22582  1.0000
  H   H7        1.0  0.68316  0.85259  0.27418  1.0000
  H   H8        1.0  0.81681  0.64740  0.77418  1.0000
  H   H9        1.0  0.43237  0.46044  0.64911  1.0000
  H   H10       1.0  0.06762  0.03957  0.14910  1.0000
  H   H11       1.0  0.56762  0.53956  0.35089  1.0000
  H   H12       1.0  0.93238  0.96043  0.85089  1.0000
  H   H13       1.0  0.43156  0.67995  0.61514  1.0000
  H   H14       1.0  0.06845  0.82005  0.11514  1.0000
  H   H15       1.0  0.56844  0.32004  0.38485  1.0000
  H   H16       1.0  0.93154  0.17994  0.88486  1.0000
  H   H17       1.0  0.35344  0.61369  0.99660  1.0000
  H   H18       1.0  0.14655  0.88633  0.49660  1.0000
  H   H19       1.0  0.64653  0.38631  0.00340  1.0000
  H   H20       1.0  0.85346  0.11372  0.50341  1.0000
  H   H21       1.0  0.37224  0.40109  0.91233  1.0000
  H   H22       1.0  0.12772  0.09891  0.41233  1.0000
  H   H23       1.0  0.62772  0.59890  0.08767  1.0000
  H   H24       1.0  0.87226  0.90111  0.58767  1.0000
  H   H25       1.0  0.45126  0.81530  0.79600  1.0000
  H   H26       1.0  0.04874  0.68469  0.29600  1.0000
  H   H27       1.0  0.54877  0.18469  0.20400  1.0000
  H   H28       1.0  0.95127  0.31530  0.70401  1.0000
  H   H29       1.0  0.43561  0.04433  0.87418  1.0000
  H   H30       1.0  0.06440  0.45566  0.37419  1.0000
  H   H31       1.0  0.56442  0.95565  0.12582  1.0000
  H   H32       1.0  0.93563  0.54435  0.62582  1.0000
  H   H33       1.0  0.32982  0.10711  0.97772  1.0000
  H   H34       1.0  0.17020  0.39290  0.47773  1.0000
  H   H35       1.0  0.67018  0.89289  0.02227  1.0000
  H   H36       1.0  0.82983  0.60712  0.52228  1.0000
  H   H37       1.0  0.32285  0.93008  0.02925  1.0000
  H   H38       1.0  0.17716  0.56994  0.52926  1.0000
  H   H39       1.0  0.67714  0.06993  0.97074  1.0000
  H   H40       1.0  0.82287  0.43008  0.47075  1.0000
  C   C1        1.0  0.60305  0.65116  0.69153  1.0000
  C   C2        1.0  0.89693  0.84884  0.19153  1.0000
  C   C3        1.0  0.39694  0.34883  0.30846  1.0000
  C   C4        1.0  0.10306  0.15117  0.80847  1.0000
  C   C5        1.0  0.43011  0.60633  0.65619  1.0000
  C   C6        1.0  0.06989  0.89368  0.15619  1.0000
  C   C7        1.0  0.56989  0.39367  0.34380  1.0000
  C   C8        1.0  0.93010  0.10632  0.84381  1.0000
  C   C9        1.0  0.25276  0.65257  0.68987  1.0000
  C   C10       1.0  0.24724  0.84743  0.18987  1.0000
  C   C11       1.0  0.74724  0.34742  0.31012  1.0000
  C   C12       1.0  0.75276  0.15258  0.81013  1.0000
  C   C13       1.0  0.37604  0.66403  0.95269  1.0000
  C   C14       1.0  0.12395  0.83597  0.45269  1.0000
  C   C15       1.0  0.62393  0.33596  0.04730  1.0000
  C   C16       1.0  0.87607  0.16406  0.54731  1.0000
  C   C17       1.0  0.38686  0.54495  0.90633  1.0000
  C   C18       1.0  0.11312  0.95505  0.40633  1.0000
  C   C19       1.0  0.61312  0.45504  0.09367  1.0000
  C   C20       1.0  0.88688  0.04496  0.59367  1.0000
  C   C21       1.0  0.43003  0.77556  0.84098  1.0000
  C   C22       1.0  0.06997  0.72442  0.34099  1.0000
  C   C23       1.0  0.56999  0.22442  0.15902  1.0000
  C   C24       1.0  0.93004  0.27558  0.65902  1.0000
  C   C25       1.0  0.42148  0.90301  0.88495  1.0000
  C   C26       1.0  0.07853  0.59699  0.38496  1.0000
  C   C27       1.0  0.57853  0.09698  0.11504  1.0000
  C   C28       1.0  0.92149  0.40302  0.61505  1.0000
  C   C29       1.0  0.39456  0.84773  0.94238  1.0000
  C   C30       1.0  0.10544  0.65228  0.44238  1.0000
  C   C31       1.0  0.60543  0.15226  0.05762  1.0000
  C   C32       1.0  0.89458  0.34775  0.55763  1.0000
  C   C33       1.0  0.39813  0.98068  0.99118  1.0000
  C   C34       1.0  0.10190  0.51934  0.49118  1.0000
  C   C35       1.0  0.60188  0.01932  0.00882  1.0000
  C   C36       1.0  0.89814  0.48069  0.50883  1.0000
  N   N1        1.0  0.41407  0.59917  0.85133  1.0000
  N   N2        1.0  0.08592  0.90083  0.35133  1.0000
  N   N3        1.0  0.58592  0.40082  0.14867  1.0000
  N   N4        1.0  0.91408  0.09918  0.64867  1.0000
  O   O1        1.0  0.63076  0.56706  0.73946  1.0000
  O   O2        1.0  0.86923  0.93292  0.23946  1.0000
  O   O3        1.0  0.36924  0.43292  0.26053  1.0000
  O   O4        1.0  0.13076  0.06707  0.76054  1.0000
  O   O5        1.0  0.70950  0.76957  0.67161  1.0000
  O   O6        1.0  0.79050  0.73043  0.17160  1.0000
  O   O7        1.0  0.29050  0.23042  0.32839  1.0000
  O   O8        1.0  0.20949  0.26957  0.82840  1.0000
  O   O9        1.0  0.22438  0.56899  0.73764  1.0000
  O   O10       1.0  0.27560  0.93102  0.23764  1.0000
  O   O11       1.0  0.77562  0.43102  0.26236  1.0000
  O   O12       1.0  0.72439  0.06898  0.76236  1.0000
  O   O13       1.0  0.14327  0.77069  0.66898  1.0000
  O   O14       1.0  0.35673  0.72932  0.16897  1.0000
  O   O15       1.0  0.85673  0.22932  0.33102  1.0000
  O   O16       1.0  0.64326  0.27067  0.83102  1.0000
  O   O17       1.0  0.42761  0.21950  0.71447  1.0000
  O   O18       1.0  0.07239  0.28049  0.21446  1.0000
  O   O19       1.0  0.57238  0.78049  0.28553  1.0000
  O   O20       1.0  0.92760  0.71950  0.78553  1.0000
