data_image0
_chemical_formula_structural       Ag2H24C36N6O12
_chemical_formula_sum              "Ag2 H24 C36 N6 O12"
_cell_length_a       8.57917
_cell_length_b       9.69501
_cell_length_c       10.2909
_cell_angle_alpha    83.062
_cell_angle_beta     78.2885
_cell_angle_gamma    76.7997

_space_group_name_H-M_alt    "P 1"
_space_group_IT_number       1

loop_
  _space_group_symop_operation_xyz
  'x, y, z'

loop_
  _atom_site_type_symbol
  _atom_site_label
  _atom_site_symmetry_multiplicity
  _atom_site_fract_x
  _atom_site_fract_y
  _atom_site_fract_z
  _atom_site_occupancy
  Ag  Ag1       1.0  0.64865  0.10775  0.94519  1.0000
  Ag  Ag2       1.0  0.35136  0.89225  0.05481  1.0000
  H   H1        1.0  0.54846  0.70444  0.63498  1.0000
  H   H2        1.0  0.45154  0.29556  0.36502  1.0000
  H   H3        1.0  0.99749  0.73538  0.36750  1.0000
  H   H4        1.0  0.00251  0.26463  0.63250  1.0000
  H   H5        1.0  0.94789  0.98979  0.40244  1.0000
  H   H6        1.0  0.05211  0.01021  0.59756  1.0000
  H   H7        1.0  0.70930  0.37718  0.51686  1.0000
  H   H8        1.0  0.29070  0.62282  0.48314  1.0000
  H   H9        1.0  0.37650  0.26869  0.14810  1.0000
  H   H10       1.0  0.62350  0.73130  0.85190  1.0000
  H   H11       1.0  0.15793  0.48334  0.15713  1.0000
  H   H12       1.0  0.84207  0.51666  0.84287  1.0000
  H   H13       1.0  0.33522  0.57742  0.73724  1.0000
  H   H14       1.0  0.66478  0.42258  0.26276  1.0000
  H   H15       1.0  0.54342  0.35325  0.74596  1.0000
  H   H16       1.0  0.45657  0.64674  0.25404  1.0000
  H   H17       1.0  0.10717  0.71234  0.73137  1.0000
  H   H18       1.0  0.89284  0.28766  0.26863  1.0000
  H   H19       1.0  0.88262  0.92623  0.74545  1.0000
  H   H20       1.0  0.11739  0.07377  0.25454  1.0000
  H   H21       1.0  0.81507  0.90166  0.15625  1.0000
  H   H22       1.0  0.18493  0.09834  0.84375  1.0000
  H   H23       1.0  0.03866  0.69078  0.16228  1.0000
  H   H24       1.0  0.96133  0.30922  0.83772  1.0000
  C   C1        1.0  0.72432  0.14162  0.57669  1.0000
  C   C2        1.0  0.27567  0.85838  0.42331  1.0000
  C   C3        1.0  0.72831  0.99172  0.54636  1.0000
  C   C4        1.0  0.27169  0.00828  0.45364  1.0000
  C   C5        1.0  0.61860  0.90662  0.61098  1.0000
  C   C6        1.0  0.38139  0.09338  0.38902  1.0000
  C   C7        1.0  0.64047  0.76397  0.58766  1.0000
  C   C8        1.0  0.35953  0.23604  0.41234  1.0000
  C   C9        1.0  0.77689  0.70151  0.49913  1.0000
  C   C10       1.0  0.22311  0.29849  0.50087  1.0000
  C   C11       1.0  0.88841  0.78382  0.43426  1.0000
  C   C12       1.0  0.11159  0.21618  0.56574  1.0000
  C   C13       1.0  0.86204  0.92670  0.45582  1.0000
  C   C14       1.0  0.13796  0.07331  0.54418  1.0000
  C   C15       1.0  0.80125  0.55108  0.46628  1.0000
  C   C16       1.0  0.19875  0.44892  0.53372  1.0000
  C   C17       1.0  0.36157  0.33897  0.05886  1.0000
  C   C18       1.0  0.63843  0.66103  0.94114  1.0000
  C   C19       1.0  0.24051  0.46140  0.06300  1.0000
  C   C20       1.0  0.75949  0.53860  0.93700  1.0000
  C   C21       1.0  0.22538  0.55149  0.94654  1.0000
  C   C22       1.0  0.77461  0.44851  0.05346  1.0000
  C   C23       1.0  0.33754  0.51169  0.83066  1.0000
  C   C24       1.0  0.66247  0.48831  0.16934  1.0000
  C   C25       1.0  0.45479  0.38661  0.83414  1.0000
  C   C26       1.0  0.54522  0.61339  0.16586  1.0000
  C   C27       1.0  0.09550  0.68126  0.94678  1.0000
  C   C28       1.0  0.90450  0.31874  0.05322  1.0000
  C   C29       1.0  0.04941  0.75093  0.82833  1.0000
  C   C30       1.0  0.95059  0.24907  0.17167  1.0000
  C   C31       1.0  0.92256  0.86926  0.83468  1.0000
  C   C32       1.0  0.07745  0.13074  0.16532  1.0000
  C   C33       1.0  0.88430  0.85722  0.06458  1.0000
  C   C34       1.0  0.11570  0.14278  0.93542  1.0000
  C   C35       1.0  0.01009  0.73840  0.06638  1.0000
  C   C36       1.0  0.98991  0.26159  0.93362  1.0000
  N   N1        1.0  0.47336  0.96842  0.70256  1.0000
  N   N2        1.0  0.52664  0.03159  0.29744  1.0000
  N   N3        1.0  0.46705  0.30025  0.94654  1.0000
  N   N4        1.0  0.53295  0.69975  0.05346  1.0000
  N   N5        1.0  0.83961  0.92222  0.95039  1.0000
  N   N6        1.0  0.16039  0.07778  0.04960  1.0000
  O   O1        1.0  0.75803  0.15607  0.68723  1.0000
  O   O2        1.0  0.24197  0.84393  0.31278  1.0000
  O   O3        1.0  0.70220  0.23795  0.48245  1.0000
  O   O4        1.0  0.29779  0.76205  0.51755  1.0000
  O   O5        1.0  0.90574  0.50167  0.37238  1.0000
  O   O6        1.0  0.09426  0.49834  0.62762  1.0000
  O   O7        1.0  0.69807  0.48130  0.54526  1.0000
  O   O8        1.0  0.30193  0.51870  0.45474  1.0000
  O   O9        1.0  0.43616  0.09997  0.70484  1.0000
  O   O10       1.0  0.56384  0.90004  0.29515  1.0000
  O   O11       1.0  0.39280  0.88687  0.77586  1.0000
  O   O12       1.0  0.60720  0.11314  0.22414  1.0000
