data_image0
_chemical_formula_structural       Ag2H32C32N6O12
_chemical_formula_sum              "Ag2 H32 C32 N6 O12"
_cell_length_a       9.56448
_cell_length_b       9.73836
_cell_length_c       9.91873
_cell_angle_alpha    90.0739
_cell_angle_beta     118.771
_cell_angle_gamma    92.9223

_space_group_name_H-M_alt    "P 1"
_space_group_IT_number       1

loop_
  _space_group_symop_operation_xyz
  'x, y, z'

loop_
  _atom_site_type_symbol
  _atom_site_label
  _atom_site_symmetry_multiplicity
  _atom_site_fract_x
  _atom_site_fract_y
  _atom_site_fract_z
  _atom_site_occupancy
  Ag  Ag1       1.0  0.64352  0.35477  0.50370  1.0000
  Ag  Ag2       1.0  0.35648  0.64523  0.49630  1.0000
  H   H1        1.0  0.42978  0.30747  0.06607  1.0000
  H   H2        1.0  0.57022  0.69253  0.93393  1.0000
  H   H3        1.0  0.43063  0.06542  0.00545  1.0000
  H   H4        1.0  0.56937  0.93458  0.99455  1.0000
  H   H5        1.0  0.10483  0.96182  0.18025  1.0000
  H   H6        1.0  0.89517  0.03818  0.81975  1.0000
  H   H7        1.0  0.21116  0.65706  0.09844  1.0000
  H   H8        1.0  0.78884  0.34294  0.90156  1.0000
  H   H9        1.0  0.69321  0.43995  0.14485  1.0000
  H   H10       1.0  0.30679  0.56005  0.85514  1.0000
  H   H11       1.0  0.67229  0.61345  0.18202  1.0000
  H   H12       1.0  0.32771  0.38656  0.81798  1.0000
  H   H13       1.0  0.59933  0.47933  0.25776  1.0000
  H   H14       1.0  0.40067  0.52067  0.74224  1.0000
  H   H15       1.0  0.90169  0.28635  0.71548  1.0000
  H   H16       1.0  0.09831  0.71365  0.28452  1.0000
  H   H17       1.0  0.05873  0.40008  0.85126  1.0000
  H   H18       1.0  0.94127  0.59992  0.14874  1.0000
  H   H19       1.0  0.10491  0.25666  0.77323  1.0000
  H   H20       1.0  0.89509  0.74335  0.22677  1.0000
  H   H21       1.0  0.43994  0.22711  0.72439  1.0000
  H   H22       1.0  0.56006  0.77289  0.27562  1.0000
  H   H23       1.0  0.25192  0.20302  0.55782  1.0000
  H   H24       1.0  0.74808  0.79698  0.44218  1.0000
  H   H25       1.0  0.40257  0.31820  0.55588  1.0000
  H   H26       1.0  0.59743  0.68180  0.44412  1.0000
  H   H27       1.0  0.74122  0.17918  0.38817  1.0000
  H   H28       1.0  0.25879  0.82082  0.61183  1.0000
  H   H29       1.0  0.68268  0.02287  0.27737  1.0000
  H   H30       1.0  0.31733  0.97713  0.72263  1.0000
  H   H31       1.0  0.83999  0.02622  0.46938  1.0000
  H   H32       1.0  0.16001  0.97378  0.53062  1.0000
  C   C1        1.0  0.28035  0.42934  0.19720  1.0000
  C   C2        1.0  0.71965  0.57066  0.80279  1.0000
  C   C3        1.0  0.26541  0.27740  0.15596  1.0000
  C   C4        1.0  0.73458  0.72260  0.84404  1.0000
  C   C5        1.0  0.35652  0.23273  0.08992  1.0000
  C   C6        1.0  0.64348  0.76727  0.91008  1.0000
  C   C7        1.0  0.35733  0.09451  0.05598  1.0000
  C   C8        1.0  0.64267  0.90549  0.94403  1.0000
  C   C9        1.0  0.26956  0.99428  0.09026  1.0000
  C   C10       1.0  0.73044  0.00571  0.90974  1.0000
  C   C11       1.0  0.17595  0.03634  0.15380  1.0000
  C   C12       1.0  0.82405  0.96366  0.84620  1.0000
  C   C13       1.0  0.17332  0.17593  0.18363  1.0000
  C   C14       1.0  0.82668  0.82407  0.81637  1.0000
  C   C15       1.0  0.28190  0.84486  0.06373  1.0000
  C   C16       1.0  0.71810  0.15514  0.93627  1.0000
  C   C17       1.0  0.85394  0.51006  0.37465  1.0000
  C   C18       1.0  0.14606  0.48994  0.62535  1.0000
  C   C19       1.0  0.69566  0.51150  0.23237  1.0000
  C   C20       1.0  0.30434  0.48850  0.76763  1.0000
  C   C21       1.0  0.00886  0.42167  0.61717  1.0000
  C   C22       1.0  0.99114  0.57833  0.38283  1.0000
  C   C23       1.0  0.01870  0.33665  0.74573  1.0000
  C   C24       1.0  0.98130  0.66335  0.25427  1.0000
  C   C25       1.0  0.44250  0.10488  0.54601  1.0000
  C   C26       1.0  0.55750  0.89512  0.45400  1.0000
  C   C27       1.0  0.38045  0.21980  0.59794  1.0000
  C   C28       1.0  0.61955  0.78020  0.40206  1.0000
  C   C29       1.0  0.60682  0.03308  0.44925  1.0000
  C   C30       1.0  0.39319  0.96692  0.55075  1.0000
  C   C31       1.0  0.72353  0.06754  0.39301  1.0000
  C   C32       1.0  0.27647  0.93246  0.60699  1.0000
  N   N1        1.0  0.06954  0.21406  0.24639  1.0000
  N   N2        1.0  0.93046  0.78594  0.75361  1.0000
  N   N3        1.0  0.86493  0.43463  0.49265  1.0000
  N   N4        1.0  0.13507  0.56537  0.50735  1.0000
  N   N5        1.0  0.54845  0.13535  0.49580  1.0000
  N   N6        1.0  0.45155  0.86465  0.50420  1.0000
  O   O1        1.0  0.37492  0.46442  0.33689  1.0000
  O   O2        1.0  0.62508  0.53558  0.66310  1.0000
  O   O3        1.0  0.20781  0.50728  0.08580  1.0000
  O   O4        1.0  0.79219  0.49272  0.91419  1.0000
  O   O5        1.0  0.36736  0.80528  0.01127  1.0000
  O   O6        1.0  0.63264  0.19471  0.98873  1.0000
  O   O7        1.0  0.19640  0.76320  0.10662  1.0000
  O   O8        1.0  0.80360  0.23680  0.89338  1.0000
  O   O9        1.0  0.04924  0.33780  0.25420  1.0000
  O   O10       1.0  0.95076  0.66220  0.74580  1.0000
  O   O11       1.0  0.00676  0.12040  0.28860  1.0000
  O   O12       1.0  0.99324  0.87960  0.71140  1.0000
