data_image0
_chemical_formula_structural       Co2H24C32N8O8
_chemical_formula_sum              "Co2 H24 C32 N8 O8"
_cell_length_a       8.70488
_cell_length_b       9.84265
_cell_length_c       9.84237
_cell_angle_alpha    111.66
_cell_angle_beta     92.9433
_cell_angle_gamma    92.9491

_space_group_name_H-M_alt    "P 1"
_space_group_IT_number       1

loop_
  _space_group_symop_operation_xyz
  'x, y, z'

loop_
  _atom_site_type_symbol
  _atom_site_label
  _atom_site_symmetry_multiplicity
  _atom_site_fract_x
  _atom_site_fract_y
  _atom_site_fract_z
  _atom_site_occupancy
  Co  Co1       1.0  0.24999  0.89969  0.10030  1.0000
  Co  Co2       1.0  0.75001  0.10031  0.89973  1.0000
  H   H1        1.0  0.11493  0.56352  0.89966  1.0000
  H   H2        1.0  0.38510  0.10035  0.43648  1.0000
  H   H3        1.0  0.88510  0.43650  0.10034  1.0000
  H   H4        1.0  0.61489  0.89963  0.56352  1.0000
  H   H5        1.0  0.48275  0.71622  0.22674  1.0000
  H   H6        1.0  0.01724  0.77329  0.28380  1.0000
  H   H7        1.0  0.51727  0.28380  0.77329  1.0000
  H   H8        1.0  0.98272  0.22671  0.71620  1.0000
  H   H9        1.0  0.19857  0.33123  0.97967  1.0000
  H   H10       1.0  0.30145  0.02034  0.66880  1.0000
  H   H11       1.0  0.80139  0.66880  0.02035  1.0000
  H   H12       1.0  0.69857  0.97964  0.33121  1.0000
  H   H13       1.0  0.45650  0.30632  0.12505  1.0000
  H   H14       1.0  0.04352  0.87491  0.69368  1.0000
  H   H15       1.0  0.54352  0.69372  0.87495  1.0000
  H   H16       1.0  0.95645  0.12505  0.30627  1.0000
  H   H17       1.0  0.57462  0.26073  0.32433  1.0000
  H   H18       1.0  0.92546  0.67566  0.73930  1.0000
  H   H19       1.0  0.42537  0.73931  0.67568  1.0000
  H   H20       1.0  0.07454  0.32431  0.26064  1.0000
  H   H21       1.0  0.62219  0.31895  0.58562  1.0000
  H   H22       1.0  0.87783  0.41436  0.68106  1.0000
  H   H23       1.0  0.37778  0.68104  0.41440  1.0000
  H   H24       1.0  0.12220  0.58560  0.31893  1.0000
  C   C1        1.0  0.54239  0.02409  0.07726  1.0000
  C   C2        1.0  0.95761  0.92276  0.97591  1.0000
  C   C3        1.0  0.45761  0.97591  0.92278  1.0000
  C   C4        1.0  0.04239  0.07720  0.02407  1.0000
  C   C5        1.0  0.46962  0.46375  0.34514  1.0000
  C   C6        1.0  0.03041  0.65485  0.53625  1.0000
  C   C7        1.0  0.53034  0.53630  0.65491  1.0000
  C   C8        1.0  0.96963  0.34509  0.46369  1.0000
  C   C9        1.0  0.20511  0.55969  0.97798  1.0000
  C   C10       1.0  0.29490  0.02204  0.44033  1.0000
  C   C11       1.0  0.79488  0.44034  0.02201  1.0000
  C   C12       1.0  0.70511  0.97798  0.55968  1.0000
  C   C13       1.0  0.39249  0.64536  0.14959  1.0000
  C   C14       1.0  0.10752  0.85044  0.35467  1.0000
  C   C15       1.0  0.60749  0.35464  0.85039  1.0000
  C   C16       1.0  0.89249  0.14957  0.64535  1.0000
  C   C17       1.0  0.24683  0.44369  0.01355  1.0000
  C   C18       1.0  0.25319  0.98645  0.55633  1.0000
  C   C19       1.0  0.75313  0.55633  0.98642  1.0000
  C   C20       1.0  0.74683  0.01356  0.44367  1.0000
  C   C21       1.0  0.43607  0.41692  0.19685  1.0000
  C   C22       1.0  0.06395  0.80314  0.58308  1.0000
  C   C23       1.0  0.56396  0.58305  0.80321  1.0000
  C   C24       1.0  0.93603  0.19678  0.41692  1.0000
  C   C25       1.0  0.54032  0.36389  0.40232  1.0000
  C   C26       1.0  0.95972  0.59766  0.63613  1.0000
  C   C27       1.0  0.45962  0.63614  0.59763  1.0000
  C   C28       1.0  0.04034  0.40236  0.36384  1.0000
  C   C29       1.0  0.56708  0.39713  0.54838  1.0000
  C   C30       1.0  0.93294  0.45159  0.60286  1.0000
  C   C31       1.0  0.43288  0.60287  0.45155  1.0000
  C   C32       1.0  0.06714  0.54843  0.39712  1.0000
  N   N1        1.0  0.29664  0.68454  0.06342  1.0000
  N   N2        1.0  0.20335  0.93661  0.31548  1.0000
  N   N3        1.0  0.70335  0.31546  0.93653  1.0000
  N   N4        1.0  0.79666  0.06344  0.68453  1.0000
  N   N5        1.0  0.36534  0.49932  0.12447  1.0000
  N   N6        1.0  0.13469  0.87554  0.50068  1.0000
  N   N7        1.0  0.63465  0.50063  0.87550  1.0000
  N   N8        1.0  0.86533  0.12448  0.49935  1.0000
  O   O1        1.0  0.47727  0.98402  0.17071  1.0000
  O   O2        1.0  0.02272  0.82932  0.01599  1.0000
  O   O3        1.0  0.52270  0.01601  0.82936  1.0000
  O   O4        1.0  0.97730  0.17066  0.98400  1.0000
  O   O5        1.0  0.66947  0.10006  0.10040  1.0000
  O   O6        1.0  0.83053  0.89960  0.89996  1.0000
  O   O7        1.0  0.33051  0.89991  0.89962  1.0000
  O   O8        1.0  0.16952  0.10040  0.10009  1.0000
