data_image0
_chemical_formula_structural       Gd2H20C32N10O16
_chemical_formula_sum              "Gd2 H20 C32 N10 O16"
_cell_length_a       9.54964
_cell_length_b       10.1899
_cell_length_c       11.6311
_cell_angle_alpha    66.3782
_cell_angle_beta     65.7676
_cell_angle_gamma    62.0601

_space_group_name_H-M_alt    "P 1"
_space_group_IT_number       1

loop_
  _space_group_symop_operation_xyz
  'x, y, z'

loop_
  _atom_site_type_symbol
  _atom_site_label
  _atom_site_symmetry_multiplicity
  _atom_site_fract_x
  _atom_site_fract_y
  _atom_site_fract_z
  _atom_site_occupancy
  Gd  Gd1       1.0  0.34268  0.25001  0.74999  1.0000
  Gd  Gd2       1.0  0.65732  0.74999  0.25001  1.0000
  H   H1        1.0  0.55079  0.89119  0.86373  1.0000
  H   H2        1.0  0.30575  0.60880  0.63626  1.0000
  H   H3        1.0  0.44921  0.10881  0.13627  1.0000
  H   H4        1.0  0.69425  0.39120  0.36374  1.0000
  H   H5        1.0  0.55029  0.62455  0.94468  1.0000
  H   H6        1.0  0.11954  0.87547  0.55530  1.0000
  H   H7        1.0  0.44971  0.37545  0.05532  1.0000
  H   H8        1.0  0.88046  0.12453  0.44470  1.0000
  H   H9        1.0  0.29802  0.58821  0.95577  1.0000
  H   H10       1.0  0.84202  0.91181  0.54422  1.0000
  H   H11       1.0  0.70198  0.41179  0.04423  1.0000
  H   H12       1.0  0.15798  0.08819  0.45578  1.0000
  H   H13       1.0  0.06443  0.81530  0.89317  1.0000
  H   H14       1.0  0.77286  0.68473  0.60684  1.0000
  H   H15       1.0  0.93557  0.18470  0.10683  1.0000
  H   H16       1.0  0.22714  0.31527  0.39316  1.0000
  H   H17       1.0  0.87769  0.00801  0.84078  1.0000
  H   H18       1.0  0.72648  0.49199  0.65921  1.0000
  H   H19       1.0  0.12231  0.99199  0.15922  1.0000
  H   H20       1.0  0.27352  0.50801  0.34079  1.0000
  C   C1        1.0  0.44533  0.86942  0.87148  1.0000
  C   C2        1.0  0.18625  0.63059  0.62850  1.0000
  C   C3        1.0  0.55468  0.13058  0.12852  1.0000
  C   C4        1.0  0.81375  0.36941  0.37150  1.0000
  C   C5        1.0  0.44398  0.72100  0.91654  1.0000
  C   C6        1.0  0.08154  0.77901  0.58343  1.0000
  C   C7        1.0  0.55602  0.27900  0.08346  1.0000
  C   C8        1.0  0.91846  0.22098  0.41657  1.0000
  C   C9        1.0  0.30535  0.70147  0.92401  1.0000
  C   C10       1.0  0.93085  0.79855  0.57598  1.0000
  C   C11       1.0  0.69465  0.29853  0.07599  1.0000
  C   C12       1.0  0.06915  0.20145  0.42402  1.0000
  C   C13       1.0  0.17325  0.83005  0.88681  1.0000
  C   C14       1.0  0.89009  0.66999  0.61321  1.0000
  C   C15       1.0  0.82675  0.16995  0.11319  1.0000
  C   C16       1.0  0.10991  0.33001  0.38679  1.0000
  C   C17       1.0  0.18348  0.97559  0.84169  1.0000
  C   C18       1.0  0.00074  0.52443  0.65833  1.0000
  C   C19       1.0  0.81652  0.02441  0.15831  1.0000
  C   C20       1.0  0.99926  0.47556  0.34167  1.0000
  C   C21       1.0  0.05044  0.11682  0.79598  1.0000
  C   C22       1.0  0.96324  0.38321  0.70400  1.0000
  C   C23       1.0  0.94956  0.88318  0.20402  1.0000
  C   C24       1.0  0.03676  0.61679  0.29600  1.0000
  C   C25       1.0  0.90368  0.11345  0.79979  1.0000
  C   C26       1.0  0.81694  0.38654  0.70017  1.0000
  C   C27       1.0  0.09632  0.88655  0.20021  1.0000
  C   C28       1.0  0.18306  0.61346  0.29983  1.0000
  C   C29       1.0  0.78711  0.25000  0.74997  1.0000
  C   C30       1.0  0.21289  0.75000  0.25003  1.0000
  C   C31       1.0  0.63007  0.25003  0.75000  1.0000
  C   C32       1.0  0.36993  0.74997  0.25000  1.0000
  N   N1        1.0  0.18952  0.33971  0.99337  1.0000
  N   N2        1.0  0.52269  0.16025  0.50665  1.0000
  N   N3        1.0  0.81048  0.66029  0.00663  1.0000
  N   N4        1.0  0.47731  0.83975  0.49335  1.0000
  N   N5        1.0  0.07758  0.25001  0.74999  1.0000
  N   N6        1.0  0.92242  0.74999  0.25001  1.0000
  N   N7        1.0  0.31894  0.99356  0.83455  1.0000
  N   N8        1.0  0.14704  0.50647  0.66544  1.0000
  N   N9        1.0  0.68106  0.00644  0.16545  1.0000
  N   N10       1.0  0.85296  0.49353  0.33456  1.0000
  O   O1        1.0  0.57901  0.14237  0.83200  1.0000
  O   O2        1.0  0.55333  0.35771  0.66800  1.0000
  O   O3        1.0  0.42099  0.85763  0.16800  1.0000
  O   O4        1.0  0.44667  0.64229  0.33200  1.0000
  O   O5        1.0  0.27676  0.40912  0.89279  1.0000
  O   O6        1.0  0.57872  0.09085  0.60726  1.0000
  O   O7        1.0  0.72324  0.59088  0.10721  1.0000
  O   O8        1.0  0.42128  0.90915  0.39274  1.0000
  O   O9        1.0  0.17443  0.22822  0.97882  1.0000
  O   O10       1.0  0.38158  0.27177  0.52116  1.0000
  O   O11       1.0  0.82557  0.77178  0.02118  1.0000
  O   O12       1.0  0.61842  0.72823  0.47884  1.0000
  O   O13       1.0  0.12554  0.37642  0.09731  1.0000
  O   O14       1.0  0.59939  0.12350  0.40272  1.0000
  O   O15       1.0  0.87446  0.62358  0.90269  1.0000
  O   O16       1.0  0.40061  0.87650  0.59728  1.0000
