data_image0
_chemical_formula_structural       Zn2H36C44N4O10
_chemical_formula_sum              "Zn2 H36 C44 N4 O10"
_cell_length_a       8.15052
_cell_length_b       10.3526
_cell_length_c       12.1409
_cell_angle_alpha    78.0472
_cell_angle_beta     71.4255
_cell_angle_gamma    78.9299

_space_group_name_H-M_alt    "P 1"
_space_group_IT_number       1

loop_
  _space_group_symop_operation_xyz
  'x, y, z'

loop_
  _atom_site_type_symbol
  _atom_site_label
  _atom_site_symmetry_multiplicity
  _atom_site_fract_x
  _atom_site_fract_y
  _atom_site_fract_z
  _atom_site_occupancy
  Zn  Zn1       1.0  0.70583  0.67117  0.65517  1.0000
  Zn  Zn2       1.0  0.29417  0.32883  0.34483  1.0000
  H   H1        1.0  0.02567  0.67859  0.40928  1.0000
  H   H2        1.0  0.97433  0.32141  0.59072  1.0000
  H   H3        1.0  0.17345  0.85840  0.26013  1.0000
  H   H4        1.0  0.82655  0.14160  0.73987  1.0000
  H   H5        1.0  0.04031  0.09949  0.27294  1.0000
  H   H6        1.0  0.95969  0.90052  0.72705  1.0000
  H   H7        1.0  0.79202  0.25998  0.37369  1.0000
  H   H8        1.0  0.20798  0.74002  0.62631  1.0000
  H   H9        1.0  0.53495  0.30384  0.54307  1.0000
  H   H10       1.0  0.46505  0.69616  0.45693  1.0000
  H   H11       1.0  0.33150  0.21436  0.73971  1.0000
  H   H12       1.0  0.66850  0.78564  0.26029  1.0000
  H   H13       1.0  0.22896  0.01645  0.88396  1.0000
  H   H14       1.0  0.77104  0.98355  0.11604  1.0000
  H   H15       1.0  0.38104  0.78569  0.84485  1.0000
  H   H16       1.0  0.61896  0.21431  0.15514  1.0000
  H   H17       1.0  0.42084  0.37231  0.00661  1.0000
  H   H18       1.0  0.57916  0.62769  0.99339  1.0000
  H   H19       1.0  0.28982  0.52178  0.97481  1.0000
  H   H20       1.0  0.71018  0.47822  0.02519  1.0000
  H   H21       1.0  0.26076  0.19831  0.08031  1.0000
  H   H22       1.0  0.73924  0.80169  0.91969  1.0000
  H   H23       1.0  0.01993  0.07602  0.09083  1.0000
  H   H24       1.0  0.98007  0.92398  0.90917  1.0000
  H   H25       1.0  0.83378  0.16365  0.95542  1.0000
  H   H26       1.0  0.16622  0.83635  0.04458  1.0000
  H   H27       1.0  0.89271  0.36735  0.81134  1.0000
  H   H28       1.0  0.10729  0.63265  0.18867  1.0000
  H   H29       1.0  0.14503  0.60601  0.82194  1.0000
  H   H30       1.0  0.85496  0.39399  0.17806  1.0000
  H   H31       1.0  0.27950  0.50754  0.71408  1.0000
  H   H32       1.0  0.72049  0.49246  0.28593  1.0000
  H   H33       1.0  0.77470  0.51562  0.49567  1.0000
  H   H34       1.0  0.22530  0.48438  0.50433  1.0000
  H   H35       1.0  0.64162  0.46305  0.62590  1.0000
  H   H36       1.0  0.35838  0.53695  0.37409  1.0000
  C   C1        1.0  0.97442  0.78350  0.41284  1.0000
  C   C2        1.0  0.02558  0.21650  0.58716  1.0000
  C   C3        1.0  0.05430  0.88570  0.32829  1.0000
  C   C4        1.0  0.94570  0.11430  0.67171  1.0000
  C   C5        1.0  0.98163  0.01698  0.33545  1.0000
  C   C6        1.0  0.01837  0.98303  0.66454  1.0000
  C   C7        1.0  0.82880  0.04617  0.42748  1.0000
  C   C8        1.0  0.17120  0.95383  0.57252  1.0000
  C   C9        1.0  0.74223  0.17837  0.44094  1.0000
  C   C10       1.0  0.25776  0.82163  0.55906  1.0000
  C   C11       1.0  0.60039  0.20263  0.53479  1.0000
  C   C12       1.0  0.39961  0.79737  0.46521  1.0000
  C   C13       1.0  0.53437  0.09524  0.62328  1.0000
  C   C14       1.0  0.46563  0.90476  0.37671  1.0000
  C   C15       1.0  0.39322  0.11389  0.72492  1.0000
  C   C16       1.0  0.60679  0.88611  0.27508  1.0000
  C   C17       1.0  0.33707  0.00382  0.80514  1.0000
  C   C18       1.0  0.66293  0.99618  0.19486  1.0000
  C   C19       1.0  0.42106  0.87565  0.78477  1.0000
  C   C20       1.0  0.57894  0.12435  0.21522  1.0000
  C   C21       1.0  0.61306  0.96227  0.61037  1.0000
  C   C22       1.0  0.38695  0.03773  0.38963  1.0000
  C   C23       1.0  0.76156  0.93719  0.51074  1.0000
  C   C24       1.0  0.23844  0.06281  0.48926  1.0000
  C   C25       1.0  0.49181  0.46190  0.82495  1.0000
  C   C26       1.0  0.50819  0.53809  0.17505  1.0000
  C   C27       1.0  0.35315  0.42751  0.94228  1.0000
  C   C28       1.0  0.64685  0.57249  0.05772  1.0000
  C   C29       1.0  0.21482  0.35116  0.94021  1.0000
  C   C30       1.0  0.78518  0.64884  0.05979  1.0000
  C   C31       1.0  0.18069  0.23426  0.02049  1.0000
  C   C32       1.0  0.81931  0.76574  0.97951  1.0000
  C   C33       1.0  0.04462  0.16646  0.02708  1.0000
  C   C34       1.0  0.95539  0.83354  0.97292  1.0000
  C   C35       1.0  0.94093  0.21500  0.95163  1.0000
  C   C36       1.0  0.05906  0.78500  0.04837  1.0000
  C   C37       1.0  0.97465  0.33041  0.86992  1.0000
  C   C38       1.0  0.02534  0.66959  0.13009  1.0000
  C   C39       1.0  0.11029  0.39950  0.86322  1.0000
  C   C40       1.0  0.88970  0.60049  0.13678  1.0000
  C   C41       1.0  0.14755  0.52502  0.77501  1.0000
  C   C42       1.0  0.85244  0.47497  0.22499  1.0000
  C   C43       1.0  0.01918  0.56820  0.70296  1.0000
  C   C44       1.0  0.98082  0.43180  0.29704  1.0000
  N   N1        1.0  0.83312  0.80880  0.50196  1.0000
  N   N2        1.0  0.16689  0.19120  0.49804  1.0000
  N   N3        1.0  0.55575  0.85580  0.69009  1.0000
  N   N4        1.0  0.44426  0.14420  0.30991  1.0000
  O   O1        1.0  0.52876  0.58108  0.80364  1.0000
  O   O2        1.0  0.47123  0.41892  0.19636  1.0000
  O   O3        1.0  0.55986  0.37489  0.75775  1.0000
  O   O4        1.0  0.44014  0.62511  0.24225  1.0000
  O   O5        1.0  0.88316  0.64943  0.74400  1.0000
  O   O6        1.0  0.11684  0.35057  0.25600  1.0000
  O   O7        1.0  0.04672  0.52270  0.60888  1.0000
  O   O8        1.0  0.95328  0.47729  0.39112  1.0000
  O   O9        1.0  0.66942  0.54203  0.56143  1.0000
  O   O10       1.0  0.33058  0.45798  0.43857  1.0000
