data_image0
_chemical_formula_structural       Cu4P4H60C52N12Cl4O12
_chemical_formula_sum              "Cu4 P4 H60 C52 N12 Cl4 O12"
_cell_length_a       9.24163
_cell_length_b       12.0629
_cell_length_c       13.2839
_cell_angle_alpha    90.0016
_cell_angle_beta     89.9985
_cell_angle_gamma    104.124

_space_group_name_H-M_alt    "P 1"
_space_group_IT_number       1

loop_
  _space_group_symop_operation_xyz
  'x, y, z'

loop_
  _atom_site_type_symbol
  _atom_site_label
  _atom_site_symmetry_multiplicity
  _atom_site_fract_x
  _atom_site_fract_y
  _atom_site_fract_z
  _atom_site_occupancy
  Cu  Cu1       1.0  0.30902  0.36516  0.38376  1.0000
  Cu  Cu2       1.0  0.19095  0.13481  0.88376  1.0000
  Cu  Cu3       1.0  0.69095  0.63481  0.61623  1.0000
  Cu  Cu4       1.0  0.80903  0.86514  0.11625  1.0000
  P   P1        1.0  0.60607  0.58088  0.13357  1.0000
  P   P2        1.0  0.89388  0.91913  0.63355  1.0000
  P   P3        1.0  0.39390  0.41913  0.86645  1.0000
  P   P4        1.0  0.10609  0.08087  0.36644  1.0000
  H   H1        1.0  0.60525  0.52596  0.31015  1.0000
  H   H2        1.0  0.89473  0.97402  0.81013  1.0000
  H   H3        1.0  0.39473  0.47402  0.68987  1.0000
  H   H4        1.0  0.10525  0.02594  0.18985  1.0000
  H   H5        1.0  0.44186  0.56799  0.27478  1.0000
  H   H6        1.0  0.05812  0.93199  0.77473  1.0000
  H   H7        1.0  0.55813  0.43200  0.72525  1.0000
  H   H8        1.0  0.94186  0.06797  0.22525  1.0000
  H   H9        1.0  0.42548  0.57384  0.01805  1.0000
  H   H10       1.0  0.07448  0.92615  0.51804  1.0000
  H   H11       1.0  0.57449  0.42615  0.98196  1.0000
  H   H12       1.0  0.92548  0.07384  0.48195  1.0000
  H   H13       1.0  0.62911  0.34466  0.20078  1.0000
  H   H14       1.0  0.87088  0.15533  0.70077  1.0000
  H   H15       1.0  0.37089  0.65535  0.79922  1.0000
  H   H16       1.0  0.12911  0.84465  0.29924  1.0000
  H   H17       1.0  0.47035  0.23164  0.22952  1.0000
  H   H18       1.0  0.02965  0.26835  0.72950  1.0000
  H   H19       1.0  0.52967  0.76836  0.77048  1.0000
  H   H20       1.0  0.97036  0.73163  0.27049  1.0000
  H   H21       1.0  0.45213  0.33694  0.58381  1.0000
  H   H22       1.0  0.04795  0.16314  0.08379  1.0000
  H   H23       1.0  0.54794  0.66311  0.41620  1.0000
  H   H24       1.0  0.95212  0.83690  0.91622  1.0000
  H   H25       1.0  0.69140  0.28876  0.63784  1.0000
  H   H26       1.0  0.80863  0.21125  0.13785  1.0000
  H   H27       1.0  0.30866  0.71125  0.36215  1.0000
  H   H28       1.0  0.19141  0.78874  0.86216  1.0000
  H   H29       1.0  0.86682  0.25247  0.50208  1.0000
  H   H30       1.0  0.63318  0.24749  0.00211  1.0000
  H   H31       1.0  0.13321  0.74751  0.49790  1.0000
  H   H32       1.0  0.36685  0.75248  0.99790  1.0000
  H   H33       1.0  0.79403  0.26329  0.32353  1.0000
  H   H34       1.0  0.70596  0.23668  0.82354  1.0000
  H   H35       1.0  0.20598  0.73669  0.67646  1.0000
  H   H36       1.0  0.29407  0.76331  0.17647  1.0000
  H   H37       1.0  0.27832  0.27432  0.16880  1.0000
  H   H38       1.0  0.22165  0.22568  0.66880  1.0000
  H   H39       1.0  0.72165  0.72569  0.83120  1.0000
  H   H40       1.0  0.77831  0.77431  0.33119  1.0000
  H   H41       1.0  0.36479  0.39492  0.09565  1.0000
  H   H42       1.0  0.13524  0.10507  0.59565  1.0000
  H   H43       1.0  0.63523  0.60508  0.90434  1.0000
  H   H44       1.0  0.86478  0.89490  0.40436  1.0000
  H   H45       1.0  0.03795  0.47025  0.41051  1.0000
  H   H46       1.0  0.46206  0.02981  0.91053  1.0000
  H   H47       1.0  0.96206  0.52982  0.58945  1.0000
  H   H48       1.0  0.53795  0.97025  0.08950  1.0000
  H   H49       1.0  0.86990  0.53958  0.29071  1.0000
  H   H50       1.0  0.63008  0.96044  0.79075  1.0000
  H   H51       1.0  0.13007  0.46043  0.70923  1.0000
  H   H52       1.0  0.36991  0.03957  0.20930  1.0000
  H   H53       1.0  0.91754  0.53293  0.10606  1.0000
  H   H54       1.0  0.58244  0.96706  0.60609  1.0000
  H   H55       1.0  0.08244  0.46705  0.89389  1.0000
  H   H56       1.0  0.41756  0.03293  0.39396  1.0000
  H   H57       1.0  0.13985  0.45864  0.04754  1.0000
  H   H58       1.0  0.36012  0.04134  0.54756  1.0000
  H   H59       1.0  0.86014  0.54134  0.95243  1.0000
  H   H60       1.0  0.63988  0.95865  0.45247  1.0000
  C   C1        1.0  0.51851  0.51586  0.25191  1.0000
  C   C2        1.0  0.98147  0.98412  0.75188  1.0000
  C   C3        1.0  0.48148  0.48413  0.74812  1.0000
  C   C4        1.0  0.01852  0.01585  0.24810  1.0000
  C   C5        1.0  0.53523  0.31642  0.25339  1.0000
  C   C6        1.0  0.96476  0.18357  0.75338  1.0000
  C   C7        1.0  0.46477  0.68358  0.74661  1.0000
  C   C8        1.0  0.03524  0.81641  0.24662  1.0000
  C   C9        1.0  0.58829  0.30865  0.35961  1.0000
  C   C10       1.0  0.91172  0.19136  0.85961  1.0000
  C   C11       1.0  0.41173  0.69136  0.64038  1.0000
  C   C12       1.0  0.08831  0.80864  0.14040  1.0000
  C   C13       1.0  0.53318  0.32060  0.52987  1.0000
  C   C14       1.0  0.96687  0.17944  0.02986  1.0000
  C   C15       1.0  0.46687  0.67943  0.47013  1.0000
  C   C16       1.0  0.03319  0.82058  0.97015  1.0000
  C   C17       1.0  0.66511  0.29342  0.55826  1.0000
  C   C18       1.0  0.83493  0.20660  0.05827  1.0000
  C   C19       1.0  0.33495  0.70660  0.44173  1.0000
  C   C20       1.0  0.16512  0.79341  0.94174  1.0000
  C   C21       1.0  0.76146  0.27295  0.48380  1.0000
  C   C22       1.0  0.73855  0.22704  0.98381  1.0000
  C   C23       1.0  0.23858  0.72705  0.51619  1.0000
  C   C24       1.0  0.26149  0.77296  0.01620  1.0000
  C   C25       1.0  0.72125  0.27972  0.38325  1.0000
  C   C26       1.0  0.77875  0.22026  0.88326  1.0000
  C   C27       1.0  0.27877  0.72027  0.61674  1.0000
  C   C28       1.0  0.22127  0.77974  0.11675  1.0000
  C   C29       1.0  0.32006  0.36779  0.17067  1.0000
  C   C30       1.0  0.17994  0.13221  0.67068  1.0000
  C   C31       1.0  0.67994  0.63221  0.82933  1.0000
  C   C32       1.0  0.82006  0.86778  0.32933  1.0000
  C   C33       1.0  0.19464  0.42065  0.19792  1.0000
  C   C34       1.0  0.30537  0.07937  0.69794  1.0000
  C   C35       1.0  0.80538  0.57938  0.80206  1.0000
  C   C36       1.0  0.69464  0.92065  0.30208  1.0000
  C   C37       1.0  0.05350  0.46812  0.32929  1.0000
  C   C38       1.0  0.44650  0.03193  0.82932  1.0000
  C   C39       1.0  0.94651  0.53193  0.67067  1.0000
  C   C40       1.0  0.55352  0.96812  0.17071  1.0000
  C   C41       1.0  0.96134  0.50646  0.26182  1.0000
  C   C42       1.0  0.53866  0.99357  0.76185  1.0000
  C   C43       1.0  0.03865  0.49357  0.73813  1.0000
  C   C44       1.0  0.46135  0.00646  0.23819  1.0000
  C   C45       1.0  0.98966  0.50296  0.15894  1.0000
  C   C46       1.0  0.51033  0.99705  0.65896  1.0000
  C   C47       1.0  0.01034  0.49705  0.84102  1.0000
  C   C48       1.0  0.48968  0.00296  0.34107  1.0000
  C   C49       1.0  0.10899  0.46022  0.12658  1.0000
  C   C50       1.0  0.39101  0.03979  0.62660  1.0000
  C   C51       1.0  0.89101  0.53979  0.87338  1.0000
  C   C52       1.0  0.60900  0.96022  0.37342  1.0000
  N   N1        1.0  0.43503  0.39459  0.24993  1.0000
  N   N2        1.0  0.06496  0.10540  0.74993  1.0000
  N   N3        1.0  0.56496  0.60540  0.75007  1.0000
  N   N4        1.0  0.93504  0.89458  0.25007  1.0000
  N   N5        1.0  0.49623  0.32860  0.43294  1.0000
  N   N6        1.0  0.00381  0.17145  0.93294  1.0000
  N   N7        1.0  0.50381  0.67142  0.56706  1.0000
  N   N8        1.0  0.99623  0.82857  0.06707  1.0000
  N   N9        1.0  0.16712  0.42541  0.29785  1.0000
  N   N10       1.0  0.33289  0.07463  0.79788  1.0000
  N   N11       1.0  0.83289  0.57463  0.70212  1.0000
  N   N12       1.0  0.66713  0.92541  0.20215  1.0000
  Cl  Cl1       1.0  0.20861  0.39281  0.53454  1.0000
  Cl  Cl2       1.0  0.29120  0.10702  0.03457  1.0000
  Cl  Cl3       1.0  0.79129  0.60709  0.46545  1.0000
  Cl  Cl4       1.0  0.70868  0.89283  0.96545  1.0000
  O   O1        1.0  0.72562  0.68239  0.16841  1.0000
  O   O2        1.0  0.77427  0.81766  0.66836  1.0000
  O   O3        1.0  0.27430  0.31765  0.83164  1.0000
  O   O4        1.0  0.22564  0.18238  0.33160  1.0000
  O   O5        1.0  0.47566  0.62252  0.07873  1.0000
  O   O6        1.0  0.02425  0.87745  0.57869  1.0000
  O   O7        1.0  0.52427  0.37745  0.92131  1.0000
  O   O8        1.0  0.97567  0.12251  0.42128  1.0000
  O   O9        1.0  0.65473  0.49044  0.07055  1.0000
  O   O10       1.0  0.84526  0.00960  0.57055  1.0000
  O   O11       1.0  0.34528  0.50961  0.92945  1.0000
  O   O12       1.0  0.15475  0.99044  0.42946  1.0000
