data_image0
_chemical_formula_structural       MnH24C26S2N14
_chemical_formula_sum              "Mn1 H24 C26 S2 N14"
_cell_length_a       8.96013
_cell_length_b       9.48691
_cell_length_c       11.308
_cell_angle_alpha    112.695
_cell_angle_beta     93.8934
_cell_angle_gamma    97.2112

_space_group_name_H-M_alt    "P 1"
_space_group_IT_number       1

loop_
  _space_group_symop_operation_xyz
  'x, y, z'

loop_
  _atom_site_type_symbol
  _atom_site_label
  _atom_site_symmetry_multiplicity
  _atom_site_fract_x
  _atom_site_fract_y
  _atom_site_fract_z
  _atom_site_occupancy
  Mn  Mn1       1.0  0.00824  0.99933  0.49469  1.0000
  H   H1        1.0  0.89168  0.66306  0.51722  1.0000
  H   H2        1.0  0.11485  0.33866  0.47528  1.0000
  H   H3        1.0  0.30977  0.96492  0.66731  1.0000
  H   H4        1.0  0.69985  0.03067  0.32999  1.0000
  H   H5        1.0  0.31910  0.63532  0.77422  1.0000
  H   H6        1.0  0.67668  0.35952  0.22595  1.0000
  H   H7        1.0  0.43378  0.80252  0.77258  1.0000
  H   H8        1.0  0.56635  0.19227  0.23115  1.0000
  H   H9        1.0  0.39093  0.71554  0.47919  1.0000
  H   H10       1.0  0.61049  0.28064  0.52329  1.0000
  H   H11       1.0  0.52151  0.55032  0.30352  1.0000
  H   H12       1.0  0.47972  0.44585  0.69921  1.0000
  H   H13       1.0  0.62550  0.89734  0.48065  1.0000
  H   H14       1.0  0.37228  0.10481  0.52114  1.0000
  H   H15       1.0  0.91811  0.21851  0.80460  1.0000
  H   H16       1.0  0.07879  0.78406  0.19670  1.0000
  H   H17       1.0  0.53557  0.28595  0.87978  1.0000
  H   H18       1.0  0.46011  0.71672  0.12088  1.0000
  H   H19       1.0  0.71966  0.30267  0.95887  1.0000
  H   H20       1.0  0.27572  0.70105  0.04238  1.0000
  H   H21       1.0  0.76205  0.00499  0.94584  1.0000
  H   H22       1.0  0.23390  0.99825  0.05531  1.0000
  H   H23       1.0  0.65493  0.82018  0.03759  1.0000
  H   H24       1.0  0.34097  0.18294  0.96343  1.0000
  C   C1        1.0  0.00530  0.71365  0.56688  1.0000
  C   C2        1.0  0.00071  0.28671  0.42746  1.0000
  C   C3        1.0  0.21580  0.87008  0.64135  1.0000
  C   C4        1.0  0.79175  0.12732  0.35572  1.0000
  C   C5        1.0  0.35439  0.69623  0.71292  1.0000
  C   C6        1.0  0.64527  0.29964  0.28885  1.0000
  C   C7        1.0  0.42793  0.59288  0.60202  1.0000
  C   C8        1.0  0.57306  0.40312  0.40053  1.0000
  C   C9        1.0  0.43905  0.62017  0.48959  1.0000
  C   C10       1.0  0.56242  0.37613  0.51314  1.0000
  C   C11       1.0  0.51123  0.52674  0.39006  1.0000
  C   C12       1.0  0.49013  0.46948  0.61270  1.0000
  C   C13       1.0  0.66724  0.98253  0.57716  1.0000
  C   C14       1.0  0.33039  0.01991  0.42464  1.0000
  C   C15       1.0  0.81904  0.14437  0.73977  1.0000
  C   C16       1.0  0.17766  0.85811  0.26152  1.0000
  C   C17       1.0  0.62249  0.21981  0.89409  1.0000
  C   C18       1.0  0.37335  0.78344  0.10700  1.0000
  C   C19       1.0  0.55835  0.10652  0.94912  1.0000
  C   C20       1.0  0.43754  0.89667  0.05202  1.0000
  C   C21       1.0  0.64610  0.00420  0.97016  1.0000
  C   C22       1.0  0.34982  0.99905  0.03103  1.0000
  C   C23       1.0  0.58637  0.89998  0.02123  1.0000
  C   C24       1.0  0.40956  0.10323  0.97998  1.0000
  C   C25       1.0  0.80865  0.72937  0.26259  1.0000
  C   C26       1.0  0.19264  0.27013  0.73496  1.0000
  S   S1        1.0  0.71804  0.59602  0.12947  1.0000
  S   S2        1.0  0.27242  0.40396  0.87230  1.0000
  N   N1        1.0  0.22144  0.74385  0.66772  1.0000
  N   N2        1.0  0.78099  0.25461  0.33220  1.0000
  N   N3        1.0  0.08881  0.64289  0.62061  1.0000
  N   N4        1.0  0.91249  0.35745  0.37751  1.0000
  N   N5        1.0  0.07929  0.85426  0.57667  1.0000
  N   N6        1.0  0.93078  0.14425  0.41686  1.0000
  N   N7        1.0  0.67639  0.14023  0.77045  1.0000
  N   N8        1.0  0.32016  0.86304  0.23095  1.0000
  N   N9        1.0  0.57774  0.03724  0.66782  1.0000
  N   N10       1.0  0.41896  0.96577  0.33335  1.0000
  N   N11       1.0  0.81640  0.04537  0.61722  1.0000
  N   N12       1.0  0.18019  0.95655  0.38518  1.0000
  N   N13       1.0  0.87729  0.82830  0.35879  1.0000
  N   N14       1.0  0.13182  0.17069  0.63567  1.0000
