data_image0
_chemical_formula_structural       MnH24C26S2N14
_chemical_formula_sum              "Mn1 H24 C26 S2 N14"
_cell_length_a       8.36519
_cell_length_b       8.78933
_cell_length_c       9.75628
_cell_angle_alpha    97.2498
_cell_angle_beta     97.6216
_cell_angle_gamma    97.1709

_space_group_name_H-M_alt    "P 1"
_space_group_IT_number       1

loop_
  _space_group_symop_operation_xyz
  'x, y, z'

loop_
  _atom_site_type_symbol
  _atom_site_label
  _atom_site_symmetry_multiplicity
  _atom_site_fract_x
  _atom_site_fract_y
  _atom_site_fract_z
  _atom_site_occupancy
  Mn  Mn1       1.0  0.00000  0.50000  0.50000  1.0000
  H   H1        1.0  0.34955  0.94257  0.26381  1.0000
  H   H2        1.0  0.65046  0.05742  0.73618  1.0000
  H   H3        1.0  0.16237  0.74180  0.09244  1.0000
  H   H4        1.0  0.83763  0.25820  0.90756  1.0000
  H   H5        1.0  0.06515  0.80374  0.85482  1.0000
  H   H6        1.0  0.93485  0.19626  0.14518  1.0000
  H   H7        1.0  0.16437  0.05530  0.78789  1.0000
  H   H8        1.0  0.83563  0.94470  0.21211  1.0000
  H   H9        1.0  0.44376  0.37712  0.02471  1.0000
  H   H10       1.0  0.55623  0.62289  0.97529  1.0000
  H   H11       1.0  0.46907  0.26728  0.86584  1.0000
  H   H12       1.0  0.53092  0.73272  0.13416  1.0000
  H   H13       1.0  0.52793  0.16818  0.31589  1.0000
  H   H14       1.0  0.47207  0.83183  0.68411  1.0000
  H   H15       1.0  0.57233  0.29447  0.19432  1.0000
  H   H16       1.0  0.42767  0.70553  0.80568  1.0000
  H   H17       1.0  0.96169  0.55359  0.85004  1.0000
  H   H18       1.0  0.03831  0.44641  0.14996  1.0000
  H   H19       1.0  0.29285  0.31733  0.64766  1.0000
  H   H20       1.0  0.70715  0.68267  0.35234  1.0000
  H   H21       1.0  0.32087  0.68657  0.38979  1.0000
  H   H22       1.0  0.67912  0.31343  0.61021  1.0000
  H   H23       1.0  0.18586  0.20482  0.36936  1.0000
  H   H24       1.0  0.81414  0.79518  0.63064  1.0000
  C   C1        1.0  0.31413  0.14204  0.98645  1.0000
  C   C2        1.0  0.68587  0.85796  0.01355  1.0000
  C   C3        1.0  0.36489  0.11017  0.12191  1.0000
  C   C4        1.0  0.63512  0.88983  0.87808  1.0000
  C   C5        1.0  0.30983  0.96547  0.15813  1.0000
  C   C6        1.0  0.69017  0.03452  0.84187  1.0000
  C   C7        1.0  0.20382  0.85399  0.06296  1.0000
  C   C8        1.0  0.79618  0.14601  0.93704  1.0000
  C   C9        1.0  0.14986  0.88800  0.93020  1.0000
  C   C10       1.0  0.85014  0.11200  0.06980  1.0000
  C   C11       1.0  0.20508  0.03078  0.89259  1.0000
  C   C12       1.0  0.79492  0.96922  0.10742  1.0000
  C   C13       1.0  0.38109  0.29045  0.93731  1.0000
  C   C14       1.0  0.61891  0.70955  0.06269  1.0000
  C   C15       1.0  0.47264  0.22783  0.23315  1.0000
  C   C16       1.0  0.52736  0.77217  0.76685  1.0000
  C   C17       1.0  0.06042  0.48955  0.82903  1.0000
  C   C18       1.0  0.93958  0.51045  0.17097  1.0000
  C   C19       1.0  0.22593  0.36934  0.72392  1.0000
  C   C20       1.0  0.77407  0.63066  0.27608  1.0000
  C   C21       1.0  0.31886  0.56215  0.36797  1.0000
  C   C22       1.0  0.68114  0.43785  0.63203  1.0000
  C   C23       1.0  0.24659  0.31828  0.35854  1.0000
  C   C24       1.0  0.75341  0.68172  0.64146  1.0000
  C   C25       1.0  0.82815  0.16063  0.45543  1.0000
  C   C26       1.0  0.17186  0.83937  0.54458  1.0000
  S   S1        1.0  0.71206  0.00004  0.46022  1.0000
  S   S2        1.0  0.28795  0.99996  0.53978  1.0000
  N   N1        1.0  0.25655  0.36279  0.86162  1.0000
  N   N2        1.0  0.74345  0.63721  0.13838  1.0000
  N   N3        1.0  0.15199  0.43877  0.93057  1.0000
  N   N4        1.0  0.84801  0.56123  0.06943  1.0000
  N   N5        1.0  0.10237  0.45019  0.69954  1.0000
  N   N6        1.0  0.89763  0.54981  0.30046  1.0000
  N   N7        1.0  0.38046  0.34302  0.29664  1.0000
  N   N8        1.0  0.61954  0.65698  0.70336  1.0000
  N   N9        1.0  0.42725  0.49749  0.30092  1.0000
  N   N10       1.0  0.57275  0.50251  0.69908  1.0000
  N   N11       1.0  0.20424  0.45600  0.40573  1.0000
  N   N12       1.0  0.79576  0.54400  0.59427  1.0000
  N   N13       1.0  0.90488  0.28413  0.45504  1.0000
  N   N14       1.0  0.09513  0.71588  0.54496  1.0000
