data_image0
_chemical_formula_structural       Bi2H8C20N8O16
_chemical_formula_sum              "Bi2 H8 C20 N8 O16"
_cell_length_a       7.00368
_cell_length_b       7.03728
_cell_length_c       12.9755
_cell_angle_alpha    81.5475
_cell_angle_beta     78.3603
_cell_angle_gamma    74.8495

_space_group_name_H-M_alt    "P 1"
_space_group_IT_number       1

loop_
  _space_group_symop_operation_xyz
  'x, y, z'

loop_
  _atom_site_type_symbol
  _atom_site_label
  _atom_site_symmetry_multiplicity
  _atom_site_fract_x
  _atom_site_fract_y
  _atom_site_fract_z
  _atom_site_occupancy
  Bi  Bi1       1.0  0.04015  0.87411  0.85169  1.0000
  Bi  Bi2       1.0  0.95998  0.12586  0.14836  1.0000
  H   H1        1.0  0.30288  0.05118  0.43216  1.0000
  H   H2        1.0  0.69714  0.94887  0.56787  1.0000
  H   H3        1.0  0.79191  0.41493  0.90085  1.0000
  H   H4        1.0  0.20810  0.58501  0.09912  1.0000
  H   H5        1.0  0.08748  0.43055  0.70267  1.0000
  H   H6        1.0  0.91253  0.56943  0.29728  1.0000
  H   H7        1.0  0.23741  0.42876  0.51283  1.0000
  H   H8        1.0  0.76263  0.57131  0.48714  1.0000
  C   C1        1.0  0.56276  0.08527  0.87989  1.0000
  C   C2        1.0  0.43721  0.91470  0.12012  1.0000
  C   C3        1.0  0.40106  0.26282  0.90193  1.0000
  C   C4        1.0  0.59892  0.73715  0.09807  1.0000
  C   C5        1.0  0.68287  0.33110  0.89835  1.0000
  C   C6        1.0  0.31713  0.66884  0.10164  1.0000
  C   C7        1.0  0.57341  0.88690  0.84846  1.0000
  C   C8        1.0  0.42654  0.11306  0.15154  1.0000
  C   C9        1.0  0.18031  0.29998  0.91207  1.0000
  C   C10       1.0  0.81967  0.69999  0.08794  1.0000
  C   C11       1.0  0.18628  0.84786  0.59822  1.0000
  C   C12       1.0  0.81368  0.15217  0.40178  1.0000
  C   C13       1.0  0.24755  0.73609  0.51199  1.0000
  C   C14       1.0  0.75244  0.26397  0.48799  1.0000
  C   C15       1.0  0.13026  0.55694  0.65430  1.0000
  C   C16       1.0  0.86976  0.44306  0.34568  1.0000
  C   C17       1.0  0.17734  0.05497  0.61020  1.0000
  C   C18       1.0  0.82264  0.94503  0.38981  1.0000
  C   C19       1.0  0.33883  0.77766  0.40080  1.0000
  C   C20       1.0  0.66118  0.22242  0.59919  1.0000
  N   N1        1.0  0.73569  0.13814  0.87603  1.0000
  N   N2        1.0  0.26434  0.86178  0.12397  1.0000
  N   N3        1.0  0.11573  0.73318  0.68479  1.0000
  N   N4        1.0  0.88428  0.26681  0.31521  1.0000
  N   N5        1.0  0.20914  0.55476  0.55073  1.0000
  N   N6        1.0  0.79087  0.44529  0.44925  1.0000
  N   N7        1.0  0.48136  0.40842  0.91317  1.0000
  N   N8        1.0  0.51862  0.59156  0.08682  1.0000
  O   O1        1.0  0.74993  0.76898  0.84000  1.0000
  O   O2        1.0  0.25005  0.23102  0.16000  1.0000
  O   O3        1.0  0.23294  0.16574  0.52902  1.0000
  O   O4        1.0  0.76707  0.83424  0.47100  1.0000
  O   O5        1.0  0.10749  0.11237  0.70271  1.0000
  O   O6        1.0  0.89247  0.88763  0.29731  1.0000
  O   O7        1.0  0.42021  0.84532  0.83145  1.0000
  O   O8        1.0  0.57971  0.15463  0.16860  1.0000
  O   O9        1.0  0.10129  0.15181  0.94927  1.0000
  O   O10       1.0  0.89866  0.84817  0.05076  1.0000
  O   O11       1.0  0.08183  0.47141  0.88843  1.0000
  O   O12       1.0  0.91818  0.52856  0.11156  1.0000
  O   O13       1.0  0.39838  0.64655  0.34053  1.0000
  O   O14       1.0  0.60160  0.35359  0.65944  1.0000
  O   O15       1.0  0.35238  0.96306  0.37020  1.0000
  O   O16       1.0  0.64770  0.03702  0.62982  1.0000
