data_image0
_chemical_formula_structural       Bi2H6C14N2O10
_chemical_formula_sum              "Bi2 H6 C14 N2 O10"
_cell_length_a       7.30568
_cell_length_b       7.52225
_cell_length_c       7.88624
_cell_angle_alpha    103.095
_cell_angle_beta     99.8392
_cell_angle_gamma    107.595

_space_group_name_H-M_alt    "P 1"
_space_group_IT_number       1

loop_
  _space_group_symop_operation_xyz
  'x, y, z'

loop_
  _atom_site_type_symbol
  _atom_site_label
  _atom_site_symmetry_multiplicity
  _atom_site_fract_x
  _atom_site_fract_y
  _atom_site_fract_z
  _atom_site_occupancy
  Bi  Bi1       1.0  0.38362  0.28412  0.01634  1.0000
  Bi  Bi2       1.0  0.61636  0.71591  0.98368  1.0000
  H   H1        1.0  0.64583  0.23116  0.61406  1.0000
  H   H2        1.0  0.35416  0.76887  0.38592  1.0000
  H   H3        1.0  0.89292  0.25705  0.88491  1.0000
  H   H4        1.0  0.10708  0.74300  0.11507  1.0000
  H   H5        1.0  0.32346  0.25379  0.60318  1.0000
  H   H6        1.0  0.67655  0.74617  0.39686  1.0000
  C   C1        1.0  0.84589  0.21443  0.43924  1.0000
  C   C2        1.0  0.15415  0.78558  0.56076  1.0000
  C   C3        1.0  0.79222  0.23121  0.60233  1.0000
  C   C4        1.0  0.20777  0.76878  0.39765  1.0000
  C   C5        1.0  0.93009  0.24785  0.75599  1.0000
  C   C6        1.0  0.06988  0.75210  0.24398  1.0000
  C   C7        1.0  0.17029  0.24343  0.59742  1.0000
  C   C8        1.0  0.82971  0.75656  0.40257  1.0000
  C   C9        1.0  0.04025  0.22415  0.43711  1.0000
  C   C10       1.0  0.95976  0.77586  0.56287  1.0000
  C   C11       1.0  0.68932  0.17580  0.26997  1.0000
  C   C12       1.0  0.31072  0.82421  0.73002  1.0000
  C   C13       1.0  0.10686  0.20971  0.26629  1.0000
  C   C14       1.0  0.89316  0.79031  0.73372  1.0000
  N   N1        1.0  0.11353  0.25033  0.75061  1.0000
  N   N2        1.0  0.88645  0.74965  0.24938  1.0000
  O   O1        1.0  0.41755  0.57905  0.12457  1.0000
  O   O2        1.0  0.58239  0.42093  0.87541  1.0000
  O   O3        1.0  0.67172  0.32578  0.23030  1.0000
  O   O4        1.0  0.32828  0.67422  0.76972  1.0000
  O   O5        1.0  0.29215  0.23309  0.28451  1.0000
  O   O6        1.0  0.70784  0.76688  0.71556  1.0000
  O   O7        1.0  0.57612  0.00086  0.19110  1.0000
  O   O8        1.0  0.42390  0.99913  0.80887  1.0000
  O   O9        1.0  0.98360  0.17766  0.12144  1.0000
  O   O10       1.0  0.01643  0.82237  0.87859  1.0000
