data_image0
_chemical_formula_structural       Zn2H28C36N4O10
_chemical_formula_sum              "Zn2 H28 C36 N4 O10"
_cell_length_a       5.77719
_cell_length_b       8.36125
_cell_length_c       16.9061
_cell_angle_alpha    89.5796
_cell_angle_beta     99.8612
_cell_angle_gamma    89.9941

_space_group_name_H-M_alt    "P 1"
_space_group_IT_number       1

loop_
  _space_group_symop_operation_xyz
  'x, y, z'

loop_
  _atom_site_type_symbol
  _atom_site_label
  _atom_site_symmetry_multiplicity
  _atom_site_fract_x
  _atom_site_fract_y
  _atom_site_fract_z
  _atom_site_occupancy
  Zn  Zn1       1.0  0.42730  0.85691  0.68856  1.0000
  Zn  Zn2       1.0  0.26123  0.35697  0.68855  1.0000
  H   H1        1.0  0.47671  0.65709  0.36752  1.0000
  H   H2        1.0  0.89026  0.15710  0.36757  1.0000
  H   H3        1.0  0.14998  0.81202  0.94613  1.0000
  H   H4        1.0  0.79663  0.31174  0.94615  1.0000
  H   H5        1.0  0.30682  0.97053  0.43195  1.0000
  H   H6        1.0  0.12473  0.47083  0.43178  1.0000
  H   H7        1.0  0.26799  0.05330  0.28836  1.0000
  H   H8        1.0  0.01932  0.55333  0.28816  1.0000
  H   H9        1.0  0.92531  0.96951  0.18813  1.0000
  H   H10       1.0  0.26195  0.46938  0.18806  1.0000
  H   H11       1.0  0.60569  0.80301  0.22933  1.0000
  H   H12       1.0  0.62307  0.30307  0.22930  1.0000
  H   H13       1.0  0.62281  0.64235  0.51511  1.0000
  H   H14       1.0  0.89192  0.14236  0.51516  1.0000
  H   H15       1.0  0.96379  0.77729  0.80346  1.0000
  H   H16       1.0  0.83958  0.27703  0.80349  1.0000
  H   H17       1.0  0.07806  0.71173  0.10133  1.0000
  H   H18       1.0  0.02390  0.21109  0.10134  1.0000
  H   H19       1.0  0.80442  0.54506  0.16721  1.0000
  H   H20       1.0  0.36333  0.04411  0.16707  1.0000
  H   H21       1.0  0.46430  0.40793  0.08578  1.0000
  H   H22       1.0  0.62239  0.90750  0.08566  1.0000
  H   H23       1.0  0.38311  0.43609  0.93708  1.0000
  H   H24       1.0  0.55497  0.93630  0.93702  1.0000
  H   H25       1.0  0.71596  0.07701  0.66370  1.0000
  H   H26       1.0  0.94731  0.57700  0.66381  1.0000
  H   H27       1.0  0.84138  0.90159  0.66425  1.0000
  H   H28       1.0  0.82257  0.40152  0.66437  1.0000
  C   C1        1.0  0.97890  0.83928  0.41221  1.0000
  C   C2        1.0  0.43290  0.33958  0.41216  1.0000
  C   C3        1.0  0.15661  0.93295  0.38802  1.0000
  C   C4        1.0  0.23088  0.43315  0.38787  1.0000
  C   C5        1.0  0.13295  0.97847  0.30743  1.0000
  C   C6        1.0  0.17366  0.47858  0.30727  1.0000
  C   C7        1.0  0.93718  0.93156  0.25053  1.0000
  C   C8        1.0  0.31272  0.43160  0.25047  1.0000
  C   C9        1.0  0.75827  0.83853  0.27292  1.0000
  C   C10       1.0  0.51413  0.33862  0.27288  1.0000
  C   C11       1.0  0.78160  0.79395  0.35371  1.0000
  C   C12       1.0  0.57176  0.29417  0.35371  1.0000
  C   C13       1.0  0.71943  0.70068  0.47344  1.0000
  C   C14       1.0  0.75359  0.20074  0.47344  1.0000
  C   C15       1.0  0.93503  0.77861  0.48846  1.0000
  C   C16       1.0  0.55313  0.27893  0.48843  1.0000
  C   C17       1.0  0.07851  0.79801  0.56736  1.0000
  C   C18       1.0  0.48850  0.29818  0.56732  1.0000
  C   C19       1.0  0.54885  0.55971  0.78180  1.0000
  C   C20       1.0  0.23321  0.05974  0.78180  1.0000
  C   C21       1.0  0.69655  0.62738  0.85202  1.0000
  C   C22       1.0  0.15594  0.12746  0.85203  1.0000
  C   C23       1.0  0.89117  0.72520  0.85274  1.0000
  C   C24       1.0  0.96185  0.22508  0.85274  1.0000
  C   C25       1.0  0.88172  0.66505  0.98226  1.0000
  C   C26       1.0  0.10116  0.16484  0.98224  1.0000
  C   C27       1.0  0.92785  0.65167  0.06594  1.0000
  C   C28       1.0  0.13868  0.15118  0.06590  1.0000
  C   C29       1.0  0.77448  0.55812  0.10205  1.0000
  C   C30       1.0  0.32823  0.05758  0.10195  1.0000
  C   C31       1.0  0.57990  0.48146  0.05604  1.0000
  C   C32       1.0  0.47680  0.98100  0.05595  1.0000
  C   C33       1.0  0.53297  0.49585  0.97261  1.0000
  C   C34       1.0  0.44042  0.99577  0.97255  1.0000
  C   C35       1.0  0.68630  0.58779  0.93453  1.0000
  C   C36       1.0  0.24894  0.08779  0.93452  1.0000
  N   N1        1.0  0.63130  0.70809  0.39341  1.0000
  N   N2        1.0  0.76176  0.20826  0.39345  1.0000
  N   N3        1.0  0.00100  0.74617  0.93012  1.0000
  N   N4        1.0  0.92957  0.24595  0.93012  1.0000
  O   O1        1.0  0.28517  0.85818  0.57198  1.0000
  O   O2        1.0  0.28655  0.35845  0.57194  1.0000
  O   O3        1.0  0.99683  0.75909  0.63098  1.0000
  O   O4        1.0  0.63378  0.25906  0.63096  1.0000
  O   O5        1.0  0.51235  0.62846  0.71261  1.0000
  O   O6        1.0  0.20056  0.12849  0.71261  1.0000
  O   O7        1.0  0.73319  0.96930  0.69005  1.0000
  O   O8        1.0  0.95667  0.46924  0.69011  1.0000
  O   O9        1.0  0.45927  0.42152  0.79100  1.0000
  O   O10       1.0  0.33200  0.92152  0.79103  1.0000
