data_image0
_chemical_formula_structural       Zn4H48C32N24
_chemical_formula_sum              "Zn4 H48 C32 N24"
_cell_length_a       9.44081
_cell_length_b       9.44082
_cell_length_c       12.962
_cell_angle_alpha    90
_cell_angle_beta     90
_cell_angle_gamma    90.0348

_space_group_name_H-M_alt    "P 1"
_space_group_IT_number       1

loop_
  _space_group_symop_operation_xyz
  'x, y, z'

loop_
  _atom_site_type_symbol
  _atom_site_label
  _atom_site_symmetry_multiplicity
  _atom_site_fract_x
  _atom_site_fract_y
  _atom_site_fract_z
  _atom_site_occupancy
  Zn  Zn1       1.0  0.33663  0.66337  0.25000  1.0000
  Zn  Zn2       1.0  0.66337  0.33663  0.75000  1.0000
  Zn  Zn3       1.0  0.83667  0.83667  0.00000  1.0000
  Zn  Zn4       1.0  0.16333  0.16333  0.50000  1.0000
  H   H1        1.0  0.31312  0.99374  0.32008  1.0000
  H   H2        1.0  0.68688  0.00626  0.82008  1.0000
  H   H3        1.0  0.50633  0.81330  0.07034  1.0000
  H   H4        1.0  0.49367  0.18670  0.57034  1.0000
  H   H5        1.0  0.18670  0.49367  0.42966  1.0000
  H   H6        1.0  0.81330  0.50633  0.92966  1.0000
  H   H7        1.0  0.99374  0.31312  0.67992  1.0000
  H   H8        1.0  0.00626  0.68688  0.17992  1.0000
  H   H9        1.0  0.13762  0.89124  0.66625  1.0000
  H   H10       1.0  0.86238  0.10876  0.16625  1.0000
  H   H11       1.0  0.60847  0.63739  0.41644  1.0000
  H   H12       1.0  0.39153  0.36261  0.91644  1.0000
  H   H13       1.0  0.36261  0.39153  0.08356  1.0000
  H   H14       1.0  0.63739  0.60847  0.58356  1.0000
  H   H15       1.0  0.89124  0.13762  0.33375  1.0000
  H   H16       1.0  0.10876  0.86238  0.83375  1.0000
  H   H17       1.0  0.97820  0.89278  0.59737  1.0000
  H   H18       1.0  0.02180  0.10722  0.09737  1.0000
  H   H19       1.0  0.60704  0.47801  0.34752  1.0000
  H   H20       1.0  0.39296  0.52199  0.84752  1.0000
  H   H21       1.0  0.52199  0.39296  0.15248  1.0000
  H   H22       1.0  0.47801  0.60704  0.65248  1.0000
  H   H23       1.0  0.89278  0.97820  0.40263  1.0000
  H   H24       1.0  0.10722  0.02180  0.90263  1.0000
  H   H25       1.0  0.98338  0.68603  0.71617  1.0000
  H   H26       1.0  0.01662  0.31397  0.21617  1.0000
  H   H27       1.0  0.81396  0.48355  0.46630  1.0000
  H   H28       1.0  0.18604  0.51645  0.96630  1.0000
  H   H29       1.0  0.51645  0.18604  0.03370  1.0000
  H   H30       1.0  0.48355  0.81396  0.53370  1.0000
  H   H31       1.0  0.68603  0.98338  0.28383  1.0000
  H   H32       1.0  0.31397  0.01662  0.78383  1.0000
  H   H33       1.0  0.14216  0.62183  0.65807  1.0000
  H   H34       1.0  0.85784  0.37817  0.15807  1.0000
  H   H35       1.0  0.87787  0.64249  0.40813  1.0000
  H   H36       1.0  0.12213  0.35751  0.90813  1.0000
  H   H37       1.0  0.35751  0.12213  0.09187  1.0000
  H   H38       1.0  0.64249  0.87787  0.59187  1.0000
  H   H39       1.0  0.62183  0.14217  0.34193  1.0000
  H   H40       1.0  0.37817  0.85783  0.84193  1.0000
  H   H41       1.0  0.98254  0.62403  0.58692  1.0000
  H   H42       1.0  0.01746  0.37597  0.08692  1.0000
  H   H43       1.0  0.87573  0.48288  0.33698  1.0000
  H   H44       1.0  0.12427  0.51712  0.83698  1.0000
  H   H45       1.0  0.51712  0.12427  0.16302  1.0000
  H   H46       1.0  0.48288  0.87573  0.66302  1.0000
  H   H47       1.0  0.62403  0.98254  0.41308  1.0000
  H   H48       1.0  0.37597  0.01746  0.91308  1.0000
  C   C1        1.0  0.15907  0.83837  0.50868  1.0000
  C   C2        1.0  0.84093  0.16163  0.00868  1.0000
  C   C3        1.0  0.66150  0.65906  0.25886  1.0000
  C   C4        1.0  0.33851  0.34094  0.75886  1.0000
  C   C5        1.0  0.34094  0.33851  0.24114  1.0000
  C   C6        1.0  0.65906  0.66149  0.74114  1.0000
  C   C7        1.0  0.83837  0.15907  0.49132  1.0000
  C   C8        1.0  0.16163  0.84093  0.99132  1.0000
  C   C9        1.0  0.26903  0.92019  0.37624  1.0000
  C   C10       1.0  0.73097  0.07981  0.87624  1.0000
  C   C11       1.0  0.57987  0.76914  0.12645  1.0000
  C   C12       1.0  0.42013  0.23086  0.62645  1.0000
  C   C13       1.0  0.23086  0.42014  0.37355  1.0000
  C   C14       1.0  0.76914  0.57986  0.87355  1.0000
  C   C15       1.0  0.92019  0.26903  0.62376  1.0000
  C   C16       1.0  0.07981  0.73097  0.12376  1.0000
  C   C17       1.0  0.07736  0.83257  0.60726  1.0000
  C   C18       1.0  0.92264  0.16743  0.10726  1.0000
  C   C19       1.0  0.66720  0.57727  0.35743  1.0000
  C   C20       1.0  0.33280  0.42273  0.85743  1.0000
  C   C21       1.0  0.42273  0.33280  0.14257  1.0000
  C   C22       1.0  0.57727  0.66720  0.64257  1.0000
  C   C23       1.0  0.83257  0.07736  0.39274  1.0000
  C   C24       1.0  0.16743  0.92264  0.89274  1.0000
  C   C25       1.0  0.04483  0.68257  0.64432  1.0000
  C   C26       1.0  0.95517  0.31743  0.14433  1.0000
  C   C27       1.0  0.81723  0.54501  0.39445  1.0000
  C   C28       1.0  0.18277  0.45499  0.89445  1.0000
  C   C29       1.0  0.45499  0.18277  0.10555  1.0000
  C   C30       1.0  0.54501  0.81723  0.60555  1.0000
  C   C31       1.0  0.68257  0.04483  0.35567  1.0000
  C   C32       1.0  0.31743  0.95517  0.85567  1.0000
  N   N1        1.0  0.27180  0.77939  0.37048  1.0000
  N   N2        1.0  0.72820  0.22061  0.87048  1.0000
  N   N3        1.0  0.72067  0.77178  0.12064  1.0000
  N   N4        1.0  0.27933  0.22822  0.62063  1.0000
  N   N5        1.0  0.22822  0.27933  0.37937  1.0000
  N   N6        1.0  0.77178  0.72067  0.87937  1.0000
  N   N7        1.0  0.77939  0.27180  0.62952  1.0000
  N   N8        1.0  0.22061  0.72820  0.12952  1.0000
  N   N9        1.0  0.20122  0.72592  0.45529  1.0000
  N   N10       1.0  0.79878  0.27408  0.95529  1.0000
  N   N11       1.0  0.77402  0.70111  0.20544  1.0000
  N   N12       1.0  0.22598  0.29889  0.70544  1.0000
  N   N13       1.0  0.29889  0.22599  0.29456  1.0000
  N   N14       1.0  0.70111  0.77401  0.79456  1.0000
  N   N15       1.0  0.72592  0.20122  0.54471  1.0000
  N   N16       1.0  0.27408  0.79878  0.04471  1.0000
  N   N17       1.0  0.19943  0.96256  0.46195  1.0000
  N   N18       1.0  0.80057  0.03744  0.96195  1.0000
  N   N19       1.0  0.53739  0.69956  0.21215  1.0000
  N   N20       1.0  0.46261  0.30044  0.71215  1.0000
  N   N21       1.0  0.30044  0.46261  0.28785  1.0000
  N   N22       1.0  0.69956  0.53739  0.78785  1.0000
  N   N23       1.0  0.96256  0.19943  0.53805  1.0000
  N   N24       1.0  0.03744  0.80057  0.03805  1.0000
