data_image0
_chemical_formula_structural       Cu8H4C4I4N16
_chemical_formula_sum              "Cu8 H4 C4 I4 N16"
_cell_length_a       5.95651
_cell_length_b       6.87383
_cell_length_c       12.9545
_cell_angle_alpha    89.9984
_cell_angle_beta     90.0006
_cell_angle_gamma    90.0001

_space_group_name_H-M_alt    "P 1"
_space_group_IT_number       1

loop_
  _space_group_symop_operation_xyz
  'x, y, z'

loop_
  _atom_site_type_symbol
  _atom_site_label
  _atom_site_symmetry_multiplicity
  _atom_site_fract_x
  _atom_site_fract_y
  _atom_site_fract_z
  _atom_site_occupancy
  Cu  Cu1       1.0  0.28838  0.00001  0.00000  1.0000
  Cu  Cu2       1.0  0.71162  0.50001  0.50000  1.0000
  Cu  Cu3       1.0  0.71161  1.00000  1.00000  1.0000
  Cu  Cu4       1.0  0.28839  0.50001  0.50000  1.0000
  Cu  Cu5       1.0  0.49999  0.44207  0.12224  1.0000
  Cu  Cu6       1.0  0.50000  0.55792  0.87777  1.0000
  Cu  Cu7       1.0  0.50001  0.05791  0.62224  1.0000
  Cu  Cu8       1.0  0.50001  0.94210  0.37775  1.0000
  H   H1        1.0  0.99999  0.62191  0.16921  1.0000
  H   H2        1.0  0.00000  0.37807  0.83080  1.0000
  H   H3        1.0  0.00001  0.87805  0.66921  1.0000
  H   H4        1.0  0.00001  0.12195  0.33077  1.0000
  C   C1        1.0  0.99998  0.47988  0.13286  1.0000
  C   C2        1.0  1.00000  0.52011  0.86715  1.0000
  C   C3        1.0  0.00001  0.02010  0.63287  1.0000
  C   C4        1.0  1.00000  0.97992  0.36713  1.0000
  I   I1        1.0  0.50000  0.83348  0.15576  1.0000
  I   I2        1.0  0.49999  0.16652  0.84423  1.0000
  I   I3        1.0  0.50001  0.66650  0.65577  1.0000
  I   I4        1.0  0.50000  0.33352  0.34423  1.0000
  N   N1        1.0  0.11073  0.21388  0.06288  1.0000
  N   N2        1.0  0.11075  0.78611  0.93712  1.0000
  N   N3        1.0  0.88927  0.28612  0.56287  1.0000
  N   N4        1.0  0.88927  0.71390  0.43712  1.0000
  N   N5        1.0  0.88926  0.78611  0.93712  1.0000
  N   N6        1.0  0.88925  0.21388  0.06288  1.0000
  N   N7        1.0  0.11075  0.71390  0.43712  1.0000
  N   N8        1.0  0.11076  0.28611  0.56287  1.0000
  N   N9        1.0  0.18493  0.38034  0.10637  1.0000
  N   N10       1.0  0.18493  0.61965  0.89364  1.0000
  N   N11       1.0  0.81507  0.11965  0.60637  1.0000
  N   N12       1.0  0.81506  0.88036  0.39362  1.0000
  N   N13       1.0  0.81505  0.61963  0.89363  1.0000
  N   N14       1.0  0.81504  0.38034  0.10637  1.0000
  N   N15       1.0  0.18496  0.88036  0.39362  1.0000
  N   N16       1.0  0.18493  0.11966  0.60637  1.0000
