data_image0
_chemical_formula_structural       Cu8H4C4Br4N16
_chemical_formula_sum              "Cu8 H4 C4 Br4 N16"
_cell_length_a       5.95294
_cell_length_b       6.61575
_cell_length_c       12.4058
_cell_angle_alpha    89.9977
_cell_angle_beta     89.9997
_cell_angle_gamma    89.9981

_space_group_name_H-M_alt    "P 1"
_space_group_IT_number       1

loop_
  _space_group_symop_operation_xyz
  'x, y, z'

loop_
  _atom_site_type_symbol
  _atom_site_label
  _atom_site_symmetry_multiplicity
  _atom_site_fract_x
  _atom_site_fract_y
  _atom_site_fract_z
  _atom_site_occupancy
  Cu  Cu1       1.0  0.71488  0.49998  0.50000  1.0000
  Cu  Cu2       1.0  0.28513  0.50000  0.50000  1.0000
  Cu  Cu3       1.0  0.71485  0.00001  0.00000  1.0000
  Cu  Cu4       1.0  0.28513  0.00002  1.00000  1.0000
  Cu  Cu5       1.0  0.50001  0.55010  0.87154  1.0000
  Cu  Cu6       1.0  0.49999  0.44990  0.12847  1.0000
  Cu  Cu7       1.0  0.50001  0.05015  0.62848  1.0000
  Cu  Cu8       1.0  0.49999  0.94985  0.37152  1.0000
  H   H1        1.0  0.00001  0.85825  0.68093  1.0000
  H   H2        1.0  0.99998  0.14173  0.31905  1.0000
  H   H3        1.0  0.00003  0.35829  0.81906  1.0000
  H   H4        1.0  0.00000  0.64169  0.18095  1.0000
  C   C1        1.0  0.99998  0.00529  0.64256  1.0000
  C   C2        1.0  0.00000  0.99471  0.35742  1.0000
  C   C3        1.0  0.99998  0.50534  0.85744  1.0000
  C   C4        1.0  0.00003  0.49466  0.14257  1.0000
  Br  Br1       1.0  0.50000  0.15866  0.84898  1.0000
  Br  Br2       1.0  0.49998  0.84131  0.15101  1.0000
  Br  Br3       1.0  0.50001  0.65870  0.65099  1.0000
  Br  Br4       1.0  0.50001  0.34134  0.34900  1.0000
  N   N1        1.0  0.88905  0.28063  0.56802  1.0000
  N   N2        1.0  0.88903  0.71937  0.43198  1.0000
  N   N3        1.0  0.11095  0.71937  0.43199  1.0000
  N   N4        1.0  0.11097  0.28064  0.56803  1.0000
  N   N5        1.0  0.81494  0.10838  0.61438  1.0000
  N   N6        1.0  0.81490  0.89160  0.38562  1.0000
  N   N7        1.0  0.18507  0.89160  0.38562  1.0000
  N   N8        1.0  0.18510  0.10842  0.61437  1.0000
  N   N9        1.0  0.88904  0.78062  0.93198  1.0000
  N   N10       1.0  0.88905  0.21937  0.06803  1.0000
  N   N11       1.0  0.11095  0.21936  0.06803  1.0000
  N   N12       1.0  0.11097  0.78064  0.93198  1.0000
  N   N13       1.0  0.81493  0.60838  0.88562  1.0000
  N   N14       1.0  0.81489  0.39160  0.11439  1.0000
  N   N15       1.0  0.18507  0.39157  0.11438  1.0000
  N   N16       1.0  0.18510  0.60845  0.88563  1.0000
