data_image0
_chemical_formula_structural       Cu12H24C16N32Cl4
_chemical_formula_sum              "Cu12 H24 C16 N32 Cl4"
_cell_length_a       9.87058
_cell_length_b       9.86866
_cell_length_c       12.2167
_cell_angle_alpha    113.821
_cell_angle_beta     113.822
_cell_angle_gamma    90.0104

_space_group_name_H-M_alt    "P 1"
_space_group_IT_number       1

loop_
  _space_group_symop_operation_xyz
  'x, y, z'

loop_
  _atom_site_type_symbol
  _atom_site_label
  _atom_site_symmetry_multiplicity
  _atom_site_fract_x
  _atom_site_fract_y
  _atom_site_fract_z
  _atom_site_occupancy
  Cu  Cu1       1.0  0.05683  0.80677  0.11343  1.0000
  Cu  Cu2       1.0  0.30671  0.55677  0.61349  1.0000
  Cu  Cu3       1.0  0.94317  0.19323  0.88657  1.0000
  Cu  Cu4       1.0  0.69329  0.44323  0.38651  1.0000
  Cu  Cu5       1.0  0.19549  0.64269  0.32711  1.0000
  Cu  Cu6       1.0  0.13159  0.18452  0.32714  1.0000
  Cu  Cu7       1.0  0.68447  0.69545  0.82700  1.0000
  Cu  Cu8       1.0  0.14267  0.63159  0.82700  1.0000
  Cu  Cu9       1.0  0.80451  0.35731  0.67289  1.0000
  Cu  Cu10      1.0  0.86841  0.81548  0.67286  1.0000
  Cu  Cu11      1.0  0.31552  0.30454  0.17300  1.0000
  Cu  Cu12      1.0  0.85734  0.36841  0.17299  1.0000
  H   H1        1.0  0.25889  0.35927  0.80414  1.0000
  H   H2        1.0  0.54522  0.94483  0.80415  1.0000
  H   H3        1.0  0.44493  0.75895  0.30418  1.0000
  H   H4        1.0  0.85910  0.04527  0.30418  1.0000
  H   H5        1.0  0.74111  0.64073  0.19586  1.0000
  H   H6        1.0  0.45478  0.05518  0.19585  1.0000
  H   H7        1.0  0.55507  0.24105  0.69581  1.0000
  H   H8        1.0  0.14090  0.95473  0.69582  1.0000
  H   H9        1.0  0.21268  0.21690  0.84534  1.0000
  H   H10       1.0  0.63268  0.12839  0.84536  1.0000
  H   H11       1.0  0.62843  0.71275  0.34537  1.0000
  H   H12       1.0  0.71677  0.13265  0.34538  1.0000
  H   H13       1.0  0.78733  0.78310  0.15466  1.0000
  H   H14       1.0  0.36732  0.87161  0.15464  1.0000
  H   H15       1.0  0.37156  0.28725  0.65463  1.0000
  H   H16       1.0  0.28323  0.86735  0.65463  1.0000
  H   H17       1.0  0.39883  0.32673  0.93578  1.0000
  H   H18       1.0  0.53705  0.10904  0.93587  1.0000
  H   H19       1.0  0.60910  0.89894  0.43582  1.0000
  H   H20       1.0  0.82659  0.03700  0.43587  1.0000
  H   H21       1.0  0.60117  0.67327  0.06422  1.0000
  H   H22       1.0  0.46295  0.89097  0.06413  1.0000
  H   H23       1.0  0.39089  0.10106  0.56418  1.0000
  H   H24       1.0  0.17341  0.96300  0.56413  1.0000
  C   C1        1.0  0.27894  0.32983  0.88595  1.0000
  C   C2        1.0  0.60704  0.05607  0.88596  1.0000
  C   C3        1.0  0.55617  0.77902  0.38599  1.0000
  C   C4        1.0  0.82967  0.10705  0.38599  1.0000
  C   C5        1.0  0.72107  0.67017  0.11405  1.0000
  C   C6        1.0  0.39296  0.94393  0.11404  1.0000
  C   C7        1.0  0.44383  0.22098  0.61401  1.0000
  C   C8        1.0  0.17033  0.89295  0.61401  1.0000
  C   C9        1.0  0.23362  0.44309  0.98202  1.0000
  C   C10       1.0  0.74848  0.03883  0.98193  1.0000
  C   C11       1.0  0.53892  0.73366  0.48204  1.0000
  C   C12       1.0  0.94295  0.24849  0.48197  1.0000
  C   C13       1.0  0.76639  0.55691  0.01798  1.0000
  C   C14       1.0  0.25151  0.96117  0.01807  1.0000
  C   C15       1.0  0.46108  0.26635  0.51797  1.0000
  C   C16       1.0  0.05704  0.75151  0.51803  1.0000
  N   N1        1.0  0.17444  0.56039  0.96686  1.0000
  N   N2        1.0  0.79260  0.90640  0.96670  1.0000
  N   N3        1.0  0.40647  0.67439  0.46681  1.0000
  N   N4        1.0  0.06014  0.29257  0.46669  1.0000
  N   N5        1.0  0.82556  0.43960  0.03314  1.0000
  N   N6        1.0  0.20739  0.09360  0.03330  1.0000
  N   N7        1.0  0.59353  0.32561  0.53319  1.0000
  N   N8        1.0  0.93986  0.70743  0.53331  1.0000
  N   N9        1.0  0.14461  0.63366  0.07210  1.0000
  N   N10       1.0  0.92759  0.93842  0.07204  1.0000
  N   N11       1.0  0.43847  0.64450  0.57206  1.0000
  N   N12       1.0  0.13354  0.42758  0.57202  1.0000
  N   N13       1.0  0.85540  0.36634  0.92790  1.0000
  N   N14       1.0  0.07241  0.06158  0.92796  1.0000
  N   N15       1.0  0.56153  0.35550  0.42794  1.0000
  N   N16       1.0  0.86646  0.57242  0.42798  1.0000
  N   N17       1.0  0.18687  0.56453  0.15080  1.0000
  N   N18       1.0  0.96384  0.08623  0.15085  1.0000
  N   N19       1.0  0.58628  0.68686  0.65079  1.0000
  N   N20       1.0  0.06460  0.46387  0.65086  1.0000
  N   N21       1.0  0.81313  0.43547  0.84920  1.0000
  N   N22       1.0  0.03616  0.91377  0.84915  1.0000
  N   N23       1.0  0.41372  0.31315  0.34921  1.0000
  N   N24       1.0  0.93539  0.53612  0.34914  1.0000
  N   N25       1.0  0.24251  0.44425  0.09594  1.0000
  N   N26       1.0  0.85333  0.15160  0.09596  1.0000
  N   N27       1.0  0.65166  0.74260  0.59597  1.0000
  N   N28       1.0  0.94434  0.35338  0.59602  1.0000
  N   N29       1.0  0.75749  0.55575  0.90406  1.0000
  N   N30       1.0  0.14666  0.84840  0.90403  1.0000
  N   N31       1.0  0.34834  0.25740  0.40403  1.0000
  N   N32       1.0  0.05566  0.64662  0.40398  1.0000
  Cl  Cl1       1.0  0.17237  0.92239  0.34502  1.0000
  Cl  Cl2       1.0  0.42271  0.67257  0.84518  1.0000
  Cl  Cl3       1.0  0.82763  0.07761  0.65498  1.0000
  Cl  Cl4       1.0  0.57729  0.32743  0.15482  1.0000
