data_image0
_chemical_formula_structural       K4H28C16O16
_chemical_formula_sum              "K4 H28 C16 O16"
_cell_length_a       3.99848
_cell_length_b       7.1575
_cell_length_c       23.9534
_cell_angle_alpha    89.9999
_cell_angle_beta     90.0006
_cell_angle_gamma    98.3308

_space_group_name_H-M_alt    "P 1"
_space_group_IT_number       1

loop_
  _space_group_symop_operation_xyz
  'x, y, z'

loop_
  _atom_site_type_symbol
  _atom_site_label
  _atom_site_symmetry_multiplicity
  _atom_site_fract_x
  _atom_site_fract_y
  _atom_site_fract_z
  _atom_site_occupancy
  K   K1        1.0  0.52260  0.74893  0.78315  1.0000
  K   K2        1.0  0.97739  0.75107  0.28315  1.0000
  K   K3        1.0  0.47737  0.25109  0.21685  1.0000
  K   K4        1.0  0.02260  0.24893  0.71684  1.0000
  H   H1        1.0  0.25527  0.46360  0.87517  1.0000
  H   H2        1.0  0.24472  0.03639  0.37517  1.0000
  H   H3        1.0  0.74473  0.53639  0.12483  1.0000
  H   H4        1.0  0.75528  0.96360  0.62483  1.0000
  H   H5        1.0  0.17687  0.53795  0.61564  1.0000
  H   H6        1.0  0.32313  0.96205  0.11564  1.0000
  H   H7        1.0  0.82311  0.46205  0.38436  1.0000
  H   H8        1.0  0.67688  0.03795  0.88436  1.0000
  H   H9        1.0  0.19827  0.77586  0.59061  1.0000
  H   H10       1.0  0.30174  0.72414  0.09061  1.0000
  H   H11       1.0  0.80172  0.22413  0.40939  1.0000
  H   H12       1.0  0.69827  0.27586  0.90939  1.0000
  H   H13       1.0  0.80925  0.62169  0.58834  1.0000
  H   H14       1.0  0.69076  0.87831  0.08835  1.0000
  H   H15       1.0  0.19074  0.37831  0.41166  1.0000
  H   H16       1.0  0.30925  0.12169  0.91166  1.0000
  H   H17       1.0  0.18622  0.79917  0.99099  1.0000
  H   H18       1.0  0.31379  0.70082  0.49098  1.0000
  H   H19       1.0  0.81379  0.20083  0.00902  1.0000
  H   H20       1.0  0.68621  0.29918  0.50901  1.0000
  H   H21       1.0  0.79964  0.64596  0.99048  1.0000
  H   H22       1.0  0.70036  0.85404  0.49048  1.0000
  H   H23       1.0  0.20036  0.35404  0.00952  1.0000
  H   H24       1.0  0.29964  0.14596  0.50952  1.0000
  H   H25       1.0  0.82305  0.87690  0.95980  1.0000
  H   H26       1.0  0.67696  0.62310  0.45980  1.0000
  H   H27       1.0  0.17696  0.12310  0.04020  1.0000
  H   H28       1.0  0.32305  0.37689  0.54020  1.0000
  C   C1        1.0  0.95221  0.72487  0.67020  1.0000
  C   C2        1.0  0.54779  0.77513  0.17020  1.0000
  C   C3        1.0  0.04778  0.27513  0.32980  1.0000
  C   C4        1.0  0.45221  0.22488  0.82980  1.0000
  C   C5        1.0  0.04209  0.66019  0.61260  1.0000
  C   C6        1.0  0.45791  0.83982  0.11260  1.0000
  C   C7        1.0  0.95790  0.33981  0.38740  1.0000
  C   C8        1.0  0.54209  0.16018  0.88740  1.0000
  C   C9        1.0  0.05105  0.67693  0.91113  1.0000
  C   C10       1.0  0.44895  0.82306  0.41112  1.0000
  C   C11       1.0  0.94897  0.32307  0.08888  1.0000
  C   C12       1.0  0.55105  0.17694  0.58888  1.0000
  C   C13       1.0  0.95657  0.75572  0.96628  1.0000
  C   C14       1.0  0.54343  0.74427  0.46628  1.0000
  C   C15       1.0  0.04344  0.24428  0.03373  1.0000
  C   C16       1.0  0.45657  0.25572  0.53372  1.0000
  O   O1        1.0  0.00099  0.62774  0.71255  1.0000
  O   O2        1.0  0.49901  0.87227  0.21255  1.0000
  O   O3        1.0  0.99900  0.37227  0.28745  1.0000
  O   O4        1.0  0.50099  0.12773  0.78745  1.0000
  O   O5        1.0  0.82280  0.88007  0.67401  1.0000
  O   O6        1.0  0.67719  0.61994  0.17401  1.0000
  O   O7        1.0  0.17719  0.11993  0.32599  1.0000
  O   O8        1.0  0.32281  0.38006  0.82599  1.0000
  O   O9        1.0  0.99517  0.75012  0.86557  1.0000
  O   O10       1.0  0.50483  0.74988  0.36557  1.0000
  O   O11       1.0  0.00483  0.24988  0.13443  1.0000
  O   O12       1.0  0.49517  0.25011  0.63443  1.0000
  O   O13       1.0  0.19975  0.52508  0.91597  1.0000
  O   O14       1.0  0.30025  0.97492  0.41597  1.0000
  O   O15       1.0  0.80026  0.47493  0.08403  1.0000
  O   O16       1.0  0.69976  0.02508  0.58403  1.0000
