data_image0
_chemical_formula_structural       K4H12C16O16
_chemical_formula_sum              "K4 H12 C16 O16"
_cell_length_a       4.44362
_cell_length_b       7.88295
_cell_length_c       16.1104
_cell_angle_alpha    89.9997
_cell_angle_beta     90.0002
_cell_angle_gamma    89.9999

_space_group_name_H-M_alt    "P 1"
_space_group_IT_number       1

loop_
  _space_group_symop_operation_xyz
  'x, y, z'

loop_
  _atom_site_type_symbol
  _atom_site_label
  _atom_site_symmetry_multiplicity
  _atom_site_fract_x
  _atom_site_fract_y
  _atom_site_fract_z
  _atom_site_occupancy
  K   K1        1.0  0.75946  0.24820  0.99907  1.0000
  K   K2        1.0  0.24054  0.75179  0.49907  1.0000
  K   K3        1.0  0.24055  0.74821  0.99907  1.0000
  K   K4        1.0  0.75946  0.25179  0.49907  1.0000
  H   H1        1.0  0.58137  0.56612  0.82198  1.0000
  H   H2        1.0  0.41863  0.43389  0.32198  1.0000
  H   H3        1.0  0.41863  0.06611  0.82198  1.0000
  H   H4        1.0  0.58137  0.93388  0.32198  1.0000
  H   H5        1.0  0.58262  0.56819  0.67689  1.0000
  H   H6        1.0  0.41738  0.43181  0.17689  1.0000
  H   H7        1.0  0.41738  0.06819  0.67689  1.0000
  H   H8        1.0  0.58261  0.93181  0.17689  1.0000
  H   H9        1.0  0.00641  0.28899  0.74886  1.0000
  H   H10       1.0  0.99359  0.71101  0.24886  1.0000
  H   H11       1.0  0.99359  0.78899  0.74886  1.0000
  H   H12       1.0  0.00641  0.21101  0.24886  1.0000
  C   C1        1.0  0.21842  0.39476  0.85053  1.0000
  C   C2        1.0  0.78158  0.60524  0.35053  1.0000
  C   C3        1.0  0.78158  0.89476  0.85053  1.0000
  C   C4        1.0  0.21842  0.10524  0.35053  1.0000
  C   C5        1.0  0.41312  0.48817  0.79089  1.0000
  C   C6        1.0  0.58687  0.51183  0.29089  1.0000
  C   C7        1.0  0.58687  0.98817  0.79089  1.0000
  C   C8        1.0  0.41313  0.01183  0.29089  1.0000
  C   C9        1.0  0.41387  0.48939  0.70738  1.0000
  C   C10       1.0  0.58612  0.51061  0.20738  1.0000
  C   C11       1.0  0.58612  0.98939  0.70738  1.0000
  C   C12       1.0  0.41387  0.01061  0.20738  1.0000
  C   C13       1.0  0.21967  0.39732  0.64716  1.0000
  C   C14       1.0  0.78033  0.60268  0.14716  1.0000
  C   C15       1.0  0.78032  0.89732  0.64716  1.0000
  C   C16       1.0  0.21968  0.10268  0.14716  1.0000
  O   O1        1.0  0.26107  0.41822  0.92671  1.0000
  O   O2        1.0  0.73893  0.58177  0.42671  1.0000
  O   O3        1.0  0.73893  0.91823  0.92671  1.0000
  O   O4        1.0  0.26108  0.08178  0.42671  1.0000
  O   O5        1.0  0.01286  0.29033  0.82343  1.0000
  O   O6        1.0  0.98714  0.70967  0.32343  1.0000
  O   O7        1.0  0.98714  0.79033  0.82343  1.0000
  O   O8        1.0  0.01286  0.20967  0.32343  1.0000
  O   O9        1.0  0.01412  0.29239  0.67367  1.0000
  O   O10       1.0  0.98588  0.70761  0.17368  1.0000
  O   O11       1.0  0.98588  0.79239  0.67368  1.0000
  O   O12       1.0  0.01412  0.20760  0.17367  1.0000
  O   O13       1.0  0.26362  0.42262  0.57116  1.0000
  O   O14       1.0  0.73639  0.57737  0.07116  1.0000
  O   O15       1.0  0.73639  0.92262  0.57116  1.0000
  O   O16       1.0  0.26362  0.07737  0.07116  1.0000
