data_image0
_chemical_formula_structural       K4H4C8O16
_chemical_formula_sum              "K4 H4 C8 O16"
_cell_length_a       4.25402
_cell_length_b       7.69344
_cell_length_c       12.9654
_cell_angle_alpha    89.9998
_cell_angle_beta     90
_cell_angle_gamma    101.691

_space_group_name_H-M_alt    "P 1"
_space_group_IT_number       1

loop_
  _space_group_symop_operation_xyz
  'x, y, z'

loop_
  _atom_site_type_symbol
  _atom_site_label
  _atom_site_symmetry_multiplicity
  _atom_site_fract_x
  _atom_site_fract_y
  _atom_site_fract_z
  _atom_site_occupancy
  K   K1        1.0  0.18535  0.77142  0.93152  1.0000
  K   K2        1.0  0.81467  0.72858  0.43152  1.0000
  K   K3        1.0  0.81466  0.22858  0.06848  1.0000
  K   K4        1.0  0.18535  0.27142  0.56848  1.0000
  H   H1        1.0  0.86421  0.02180  0.77424  1.0000
  H   H2        1.0  0.13579  0.47820  0.27425  1.0000
  H   H3        1.0  0.13578  0.97820  0.22576  1.0000
  H   H4        1.0  0.86421  0.52180  0.72576  1.0000
  C   C1        1.0  0.59920  0.87245  0.67187  1.0000
  C   C2        1.0  0.40081  0.62756  0.17187  1.0000
  C   C3        1.0  0.40081  0.12756  0.32813  1.0000
  C   C4        1.0  0.59919  0.37244  0.82813  1.0000
  C   C5        1.0  0.31461  0.71331  0.65306  1.0000
  C   C6        1.0  0.68539  0.78669  0.15306  1.0000
  C   C7        1.0  0.68539  0.28669  0.34694  1.0000
  C   C8        1.0  0.31461  0.21331  0.84694  1.0000
  O   O1        1.0  0.65832  0.91398  0.76964  1.0000
  O   O2        1.0  0.34168  0.58602  0.26964  1.0000
  O   O3        1.0  0.34168  0.08601  0.23036  1.0000
  O   O4        1.0  0.65832  0.41399  0.73036  1.0000
  O   O5        1.0  0.13105  0.66649  0.73018  1.0000
  O   O6        1.0  0.86895  0.83351  0.23018  1.0000
  O   O7        1.0  0.86895  0.33351  0.26982  1.0000
  O   O8        1.0  0.13106  0.16649  0.76982  1.0000
  O   O9        1.0  0.75109  0.94956  0.59826  1.0000
  O   O10       1.0  0.24890  0.55044  0.09826  1.0000
  O   O11       1.0  0.24891  0.05044  0.40173  1.0000
  O   O12       1.0  0.75109  0.44956  0.90174  1.0000
  O   O13       1.0  0.28915  0.64610  0.56459  1.0000
  O   O14       1.0  0.71085  0.85390  0.06459  1.0000
  O   O15       1.0  0.71084  0.35390  0.43541  1.0000
  O   O16       1.0  0.28916  0.14610  0.93541  1.0000
