data_image0
_chemical_formula_structural       K4H20C32O16
_chemical_formula_sum              "K4 H20 C32 O16"
_cell_length_a       6.42588
_cell_length_b       9.57142
_cell_length_c       13.2824
_cell_angle_alpha    90
_cell_angle_beta     90.0001
_cell_angle_gamma    90.0001

_space_group_name_H-M_alt    "P 1"
_space_group_IT_number       1

loop_
  _space_group_symop_operation_xyz
  'x, y, z'

loop_
  _atom_site_type_symbol
  _atom_site_label
  _atom_site_symmetry_multiplicity
  _atom_site_fract_x
  _atom_site_fract_y
  _atom_site_fract_z
  _atom_site_occupancy
  K   K1        1.0  0.32214  0.90259  0.46237  1.0000
  K   K2        1.0  0.82214  0.09741  0.53763  1.0000
  K   K3        1.0  0.32214  0.40259  0.53763  1.0000
  K   K4        1.0  0.82215  0.59741  0.46237  1.0000
  H   H1        1.0  0.31662  0.26347  0.80435  1.0000
  H   H2        1.0  0.81662  0.73653  0.19565  1.0000
  H   H3        1.0  0.31662  0.76347  0.19565  1.0000
  H   H4        1.0  0.81662  0.23653  0.80435  1.0000
  H   H5        1.0  0.16303  0.25352  0.97515  1.0000
  H   H6        1.0  0.66303  0.74648  0.02485  1.0000
  H   H7        1.0  0.16303  0.75352  0.02485  1.0000
  H   H8        1.0  0.66303  0.24648  0.97515  1.0000
  H   H9        1.0  0.95832  0.04455  0.02876  1.0000
  H   H10       1.0  0.45832  0.95545  0.97124  1.0000
  H   H11       1.0  0.95832  0.54455  0.97124  1.0000
  H   H12       1.0  0.45832  0.45545  0.02876  1.0000
  H   H13       1.0  0.90884  0.84706  0.90837  1.0000
  H   H14       1.0  0.40884  0.15294  0.09163  1.0000
  H   H15       1.0  0.90884  0.34706  0.09163  1.0000
  H   H16       1.0  0.40884  0.65294  0.90837  1.0000
  H   H17       1.0  0.02356  0.61686  0.71360  1.0000
  H   H18       1.0  0.52356  0.38314  0.28640  1.0000
  H   H19       1.0  0.02356  0.11686  0.28640  1.0000
  H   H20       1.0  0.52356  0.88314  0.71360  1.0000
  C   C1        1.0  0.09228  0.94102  0.79124  1.0000
  C   C2        1.0  0.59228  0.05898  0.20876  1.0000
  C   C3        1.0  0.09228  0.44102  0.20876  1.0000
  C   C4        1.0  0.59228  0.55898  0.79124  1.0000
  C   C5        1.0  0.20619  0.05956  0.76113  1.0000
  C   C6        1.0  0.70619  0.94044  0.23887  1.0000
  C   C7        1.0  0.20619  0.55956  0.23887  1.0000
  C   C8        1.0  0.70618  0.44044  0.76113  1.0000
  C   C9        1.0  0.22893  0.17162  0.82775  1.0000
  C   C10       1.0  0.72893  0.82838  0.17225  1.0000
  C   C11       1.0  0.22893  0.67162  0.17225  1.0000
  C   C12       1.0  0.72893  0.32838  0.82775  1.0000
  C   C13       1.0  0.14229  0.16564  0.92393  1.0000
  C   C14       1.0  0.64229  0.83436  0.07607  1.0000
  C   C15       1.0  0.14229  0.66564  0.07607  1.0000
  C   C16       1.0  0.64229  0.33436  0.92393  1.0000
  C   C17       1.0  0.02775  0.04875  0.95391  1.0000
  C   C18       1.0  0.52775  0.95125  0.04609  1.0000
  C   C19       1.0  0.02774  0.54875  0.04609  1.0000
  C   C20       1.0  0.52775  0.45125  0.95391  1.0000
  C   C21       1.0  0.00228  0.93735  0.88740  1.0000
  C   C22       1.0  0.50228  0.06265  0.11260  1.0000
  C   C23       1.0  0.00228  0.43735  0.11260  1.0000
  C   C24       1.0  0.50228  0.56265  0.88740  1.0000
  C   C25       1.0  0.06268  0.82207  0.71990  1.0000
  C   C26       1.0  0.56268  0.17793  0.28010  1.0000
  C   C27       1.0  0.06268  0.32207  0.28010  1.0000
  C   C28       1.0  0.56268  0.67793  0.71990  1.0000
  C   C29       1.0  0.30959  0.06934  0.65957  1.0000
  C   C30       1.0  0.80959  0.93066  0.34043  1.0000
  C   C31       1.0  0.30959  0.56934  0.34043  1.0000
  C   C32       1.0  0.80959  0.43066  0.65957  1.0000
  O   O1        1.0  0.05198  0.69909  0.76494  1.0000
  O   O2        1.0  0.55198  0.30091  0.23506  1.0000
  O   O3        1.0  0.05198  0.19909  0.23506  1.0000
  O   O4        1.0  0.55198  0.80091  0.76494  1.0000
  O   O5        1.0  0.05007  0.83988  0.62742  1.0000
  O   O6        1.0  0.55007  0.16012  0.37258  1.0000
  O   O7        1.0  0.05007  0.33988  0.37258  1.0000
  O   O8        1.0  0.55007  0.66012  0.62742  1.0000
  O   O9        1.0  0.22834  0.14728  0.59416  1.0000
  O   O10       1.0  0.72834  0.85272  0.40584  1.0000
  O   O11       1.0  0.22834  0.64728  0.40584  1.0000
  O   O12       1.0  0.72834  0.35272  0.59416  1.0000
  O   O13       1.0  0.47859  0.99995  0.64568  1.0000
  O   O14       1.0  0.97859  0.00005  0.35432  1.0000
  O   O15       1.0  0.47859  0.49995  0.35432  1.0000
  O   O16       1.0  0.97859  0.50005  0.64568  1.0000
