data_image0
_chemical_formula_structural       Cu4Re4H16C16N8O16
_chemical_formula_sum              "Cu4 Re4 H16 C16 N8 O16"
_cell_length_a       7.90999
_cell_length_b       8.37953
_cell_length_c       11.9417
_cell_angle_alpha    89.9997
_cell_angle_beta     90
_cell_angle_gamma    101.94

_space_group_name_H-M_alt    "P 1"
_space_group_IT_number       1

loop_
  _space_group_symop_operation_xyz
  'x, y, z'

loop_
  _atom_site_type_symbol
  _atom_site_label
  _atom_site_symmetry_multiplicity
  _atom_site_fract_x
  _atom_site_fract_y
  _atom_site_fract_z
  _atom_site_occupancy
  Cu  Cu1       1.0  0.66131  0.16933  0.03752  1.0000
  Cu  Cu2       1.0  0.83869  0.33067  0.53752  1.0000
  Cu  Cu3       1.0  0.33869  0.83066  0.96248  1.0000
  Cu  Cu4       1.0  0.16130  0.66934  0.46247  1.0000
  Re  Re1       1.0  0.37114  0.95974  0.25314  1.0000
  Re  Re2       1.0  0.12887  0.54026  0.75313  1.0000
  Re  Re3       1.0  0.62886  0.04025  0.74686  1.0000
  Re  Re4       1.0  0.87114  0.45975  0.24686  1.0000
  H   H1        1.0  0.70238  0.42162  0.86804  1.0000
  H   H2        1.0  0.79762  0.07837  0.36805  1.0000
  H   H3        1.0  0.29763  0.57836  0.13196  1.0000
  H   H4        1.0  0.20238  0.92162  0.63196  1.0000
  H   H5        1.0  0.41362  0.32607  0.16214  1.0000
  H   H6        1.0  0.08639  0.17392  0.66215  1.0000
  H   H7        1.0  0.58639  0.67392  0.83786  1.0000
  H   H8        1.0  0.91361  0.82608  0.33786  1.0000
  H   H9        1.0  0.74423  0.85369  0.09738  1.0000
  H   H10       1.0  0.75576  0.64631  0.59738  1.0000
  H   H11       1.0  0.25576  0.14632  0.90262  1.0000
  H   H12       1.0  0.24422  0.35369  0.40262  1.0000
  H   H13       1.0  0.01021  0.28350  0.94925  1.0000
  H   H14       1.0  0.48977  0.21650  0.44925  1.0000
  H   H15       1.0  0.98978  0.71649  0.05075  1.0000
  H   H16       1.0  0.51021  0.78351  0.55075  1.0000
  C   C1        1.0  0.61045  0.45560  0.92643  1.0000
  C   C2        1.0  0.88955  0.04439  0.42644  1.0000
  C   C3        1.0  0.38956  0.54439  0.07357  1.0000
  C   C4        1.0  0.11045  0.95561  0.57357  1.0000
  C   C5        1.0  0.45279  0.40386  0.08969  1.0000
  C   C6        1.0  0.04722  0.09613  0.58969  1.0000
  C   C7        1.0  0.54721  0.59613  0.91031  1.0000
  C   C8        1.0  0.95279  0.90387  0.41032  1.0000
  C   C9        1.0  0.85824  0.91873  0.05325  1.0000
  C   C10       1.0  0.64176  0.58127  0.55325  1.0000
  C   C11       1.0  0.14176  0.08127  0.94675  1.0000
  C   C12       1.0  0.35823  0.41873  0.44675  1.0000
  C   C13       1.0  0.00565  0.15673  0.97133  1.0000
  C   C14       1.0  0.49434  0.34327  0.47133  1.0000
  C   C15       1.0  0.99435  0.84326  0.02867  1.0000
  C   C16       1.0  0.50565  0.65674  0.52866  1.0000
  N   N1        1.0  0.56434  0.35808  0.01642  1.0000
  N   N2        1.0  0.93565  0.14192  0.51642  1.0000
  N   N3        1.0  0.43565  0.64191  0.98358  1.0000
  N   N4        1.0  0.06434  0.85809  0.48358  1.0000
  N   N5        1.0  0.86250  0.07538  0.02447  1.0000
  N   N6        1.0  0.63750  0.42462  0.52447  1.0000
  N   N7        1.0  0.13751  0.92462  0.97553  1.0000
  N   N8        1.0  0.36250  0.57538  0.47553  1.0000
  O   O1        1.0  0.78478  0.22287  0.75103  1.0000
  O   O2        1.0  0.71523  0.27714  0.25103  1.0000
  O   O3        1.0  0.21523  0.77714  0.24897  1.0000
  O   O4        1.0  0.28479  0.72288  0.74897  1.0000
  O   O5        1.0  0.51303  0.01962  0.87607  1.0000
  O   O6        1.0  0.98697  0.48037  0.37607  1.0000
  O   O7        1.0  0.48696  0.98037  0.12393  1.0000
  O   O8        1.0  0.01303  0.51963  0.62393  1.0000
  O   O9        1.0  0.49111  0.04872  0.63367  1.0000
  O   O10       1.0  0.00889  0.45129  0.13368  1.0000
  O   O11       1.0  0.50890  0.95128  0.36632  1.0000
  O   O12       1.0  0.99110  0.54873  0.86632  1.0000
  O   O13       1.0  0.73324  0.87662  0.72911  1.0000
  O   O14       1.0  0.76677  0.62338  0.22911  1.0000
  O   O15       1.0  0.26677  0.12337  0.27089  1.0000
  O   O16       1.0  0.23324  0.37662  0.77089  1.0000
