data_image0
_chemical_formula_structural       Tb4H24C20O32
_chemical_formula_sum              "Tb4 H24 C20 O32"
_cell_length_a       9.53721
_cell_length_b       9.53728
_cell_length_c       13.7706
_cell_angle_alpha    100.003
_cell_angle_beta     100.006
_cell_angle_gamma    119.784

_space_group_name_H-M_alt    "P 1"
_space_group_IT_number       1

loop_
  _space_group_symop_operation_xyz
  'x, y, z'

loop_
  _atom_site_type_symbol
  _atom_site_label
  _atom_site_symmetry_multiplicity
  _atom_site_fract_x
  _atom_site_fract_y
  _atom_site_fract_z
  _atom_site_occupancy
  Tb  Tb1       1.0  0.74787  0.99780  0.99557  1.0000
  Tb  Tb2       1.0  0.50217  0.75211  0.50442  1.0000
  Tb  Tb3       1.0  0.25213  0.00220  0.00444  1.0000
  Tb  Tb4       1.0  0.49781  0.24787  0.49558  1.0000
  H   H1        1.0  0.90855  0.47538  0.06636  1.0000
  H   H2        1.0  0.90940  0.84264  0.43384  1.0000
  H   H3        1.0  0.02461  0.59146  0.43363  1.0000
  H   H4        1.0  0.65736  0.59059  0.06617  1.0000
  H   H5        1.0  0.09146  0.52463  0.93365  1.0000
  H   H6        1.0  0.09059  0.15735  0.56616  1.0000
  H   H7        1.0  0.97538  0.40853  0.56636  1.0000
  H   H8        1.0  0.34265  0.40942  0.93385  1.0000
  H   H9        1.0  0.98353  0.25007  0.21557  1.0000
  H   H10       1.0  0.53517  0.76873  0.28480  1.0000
  H   H11       1.0  0.25006  0.51654  0.28441  1.0000
  H   H12       1.0  0.73136  0.96495  0.21518  1.0000
  H   H13       1.0  0.01653  0.75002  0.78444  1.0000
  H   H14       1.0  0.46490  0.23131  0.71519  1.0000
  H   H15       1.0  0.75002  0.48351  0.71559  1.0000
  H   H16       1.0  0.26868  0.03513  0.78481  1.0000
  H   H17       1.0  0.09031  0.19717  0.15948  1.0000
  H   H18       1.0  0.53893  0.93182  0.34086  1.0000
  H   H19       1.0  0.30281  0.40968  0.34052  1.0000
  H   H20       1.0  0.56819  0.96108  0.15914  1.0000
  H   H21       1.0  0.90968  0.80282  0.84053  1.0000
  H   H22       1.0  0.46105  0.06816  0.65914  1.0000
  H   H23       1.0  0.69718  0.59031  0.65948  1.0000
  H   H24       1.0  0.43180  0.03892  0.84086  1.0000
  C   C1        1.0  0.64490  0.29817  0.06067  1.0000
  C   C2        1.0  0.73806  0.58463  0.43960  1.0000
  C   C3        1.0  0.20182  0.85510  0.43932  1.0000
  C   C4        1.0  0.91537  0.76193  0.06040  1.0000
  C   C5        1.0  0.35509  0.70183  0.93934  1.0000
  C   C6        1.0  0.26193  0.41534  0.56039  1.0000
  C   C7        1.0  0.79817  0.14490  0.56068  1.0000
  C   C8        1.0  0.08464  0.23807  0.93961  1.0000
  C   C9        1.0  0.79048  0.46697  0.06745  1.0000
  C   C10       1.0  0.89994  0.72347  0.43266  1.0000
  C   C11       1.0  0.03303  0.70953  0.43255  1.0000
  C   C12       1.0  0.77654  0.60006  0.06734  1.0000
  C   C13       1.0  0.20953  0.53305  0.93256  1.0000
  C   C14       1.0  0.10006  0.27652  0.56734  1.0000
  C   C15       1.0  0.96696  0.29046  0.56745  1.0000
  C   C16       1.0  0.22347  0.39995  0.93267  1.0000
  C   C17       1.0  0.67181  0.82815  0.74999  1.0000
  C   C18       1.0  0.57822  0.92172  0.75000  1.0000
  C   C19       1.0  0.32819  0.17186  0.25001  1.0000
  C   C20       1.0  0.42177  0.07828  0.25000  1.0000
  O   O1        1.0  0.66920  0.17676  0.04949  1.0000
  O   O2        1.0  0.62766  0.61988  0.45070  1.0000
  O   O3        1.0  0.32323  0.83080  0.45050  1.0000
  O   O4        1.0  0.88011  0.87232  0.04927  1.0000
  O   O5        1.0  0.33080  0.82323  0.95051  1.0000
  O   O6        1.0  0.37234  0.38011  0.54930  1.0000
  O   O7        1.0  0.67676  0.16920  0.54951  1.0000
  O   O8        1.0  0.11989  0.12768  0.95071  1.0000
  O   O9        1.0  0.50385  0.27819  0.06303  1.0000
  O   O10       1.0  0.71594  0.44135  0.43739  1.0000
  O   O11       1.0  0.22182  0.99615  0.43697  1.0000
  O   O12       1.0  0.05866  0.78407  0.06263  1.0000
  O   O13       1.0  0.49616  0.72182  0.93698  1.0000
  O   O14       1.0  0.28405  0.55864  0.56261  1.0000
  O   O15       1.0  0.77817  0.00383  0.56302  1.0000
  O   O16       1.0  0.94133  0.21592  0.93737  1.0000
  O   O17       1.0  0.75661  0.84310  0.83708  1.0000
  O   O18       1.0  0.50544  0.91876  0.66286  1.0000
  O   O19       1.0  0.65688  0.74338  0.66292  1.0000
  O   O20       1.0  0.58119  0.99450  0.83712  1.0000
  O   O21       1.0  0.24340  0.15690  0.16292  1.0000
  O   O22       1.0  0.49455  0.08124  0.33713  1.0000
  O   O23       1.0  0.34312  0.25662  0.33708  1.0000
  O   O24       1.0  0.41881  0.00550  0.16288  1.0000
  O   O25       1.0  0.99617  0.21794  0.14829  1.0000
  O   O26       1.0  0.57131  0.84914  0.35203  1.0000
  O   O27       1.0  0.28200  0.50380  0.35169  1.0000
  O   O28       1.0  0.65084  0.92865  0.14796  1.0000
  O   O29       1.0  0.00382  0.78203  0.85171  1.0000
  O   O30       1.0  0.42865  0.15083  0.64796  1.0000
  O   O31       1.0  0.71797  0.49618  0.64831  1.0000
  O   O32       1.0  0.34914  0.07132  0.85204  1.0000
