data_image0
_chemical_formula_structural       Mo4H48C32Cl16O16
_chemical_formula_sum              "Mo4 H48 C32 Cl16 O16"
_cell_length_a       7.8443
_cell_length_b       12.0732
_cell_length_c       15.8294
_cell_angle_alpha    90.0119
_cell_angle_beta     90.0226
_cell_angle_gamma    89.9372

_space_group_name_H-M_alt    "P 1"
_space_group_IT_number       1

loop_
  _space_group_symop_operation_xyz
  'x, y, z'

loop_
  _atom_site_type_symbol
  _atom_site_label
  _atom_site_symmetry_multiplicity
  _atom_site_fract_x
  _atom_site_fract_y
  _atom_site_fract_z
  _atom_site_occupancy
  Mo  Mo1       1.0  0.37193  0.12665  0.24998  1.0000
  Mo  Mo2       1.0  0.62801  0.87315  0.75004  1.0000
  Mo  Mo3       1.0  0.62827  0.62663  0.24955  1.0000
  Mo  Mo4       1.0  0.36973  0.37459  0.75013  1.0000
  H   H1        1.0  0.56422  0.07444  0.42665  1.0000
  H   H2        1.0  0.43571  0.92552  0.92652  1.0000
  H   H3        1.0  0.43573  0.57442  0.07330  1.0000
  H   H4        1.0  0.56593  0.42644  0.57345  1.0000
  H   H5        1.0  0.43573  0.92552  0.57339  1.0000
  H   H6        1.0  0.56406  0.07446  0.07337  1.0000
  H   H7        1.0  0.56501  0.42580  0.92636  1.0000
  H   H8        1.0  0.43578  0.57454  0.42645  1.0000
  H   H9        1.0  0.11155  0.75343  0.42346  1.0000
  H   H10       1.0  0.88831  0.24666  0.92326  1.0000
  H   H11       1.0  0.88860  0.25307  0.07643  1.0000
  H   H12       1.0  0.11148  0.74681  0.57694  1.0000
  H   H13       1.0  0.88831  0.24665  0.57679  1.0000
  H   H14       1.0  0.11147  0.75336  0.07654  1.0000
  H   H15       1.0  0.11158  0.74682  0.92315  1.0000
  H   H16       1.0  0.88860  0.25306  0.42370  1.0000
  H   H17       1.0  0.15938  0.83348  0.33198  1.0000
  H   H18       1.0  0.84054  0.16624  0.83181  1.0000
  H   H19       1.0  0.84067  0.33324  0.16793  1.0000
  H   H20       1.0  0.15899  0.66636  0.66834  1.0000
  H   H21       1.0  0.84078  0.16629  0.66825  1.0000
  H   H22       1.0  0.15954  0.83353  0.16801  1.0000
  H   H23       1.0  0.15872  0.66639  0.83168  1.0000
  H   H24       1.0  0.84049  0.33314  0.33218  1.0000
  H   H25       1.0  0.91369  0.90331  0.47494  1.0000
  H   H26       1.0  0.08585  0.09680  0.97510  1.0000
  H   H27       1.0  0.08625  0.40290  0.02498  1.0000
  H   H28       1.0  0.91451  0.59709  0.52466  1.0000
  H   H29       1.0  0.08589  0.09682  0.52497  1.0000
  H   H30       1.0  0.91357  0.90325  0.02506  1.0000
  H   H31       1.0  0.91460  0.59712  0.97535  1.0000
  H   H32       1.0  0.08646  0.40298  0.47507  1.0000
  H   H33       1.0  0.85263  0.85772  0.37255  1.0000
  H   H34       1.0  0.14697  0.14199  0.87268  1.0000
  H   H35       1.0  0.14733  0.35708  0.12730  1.0000
  H   H36       1.0  0.85247  0.64259  0.62693  1.0000
  H   H37       1.0  0.14718  0.14207  0.62744  1.0000
  H   H38       1.0  0.85287  0.85772  0.12748  1.0000
  H   H39       1.0  0.85245  0.64261  0.87307  1.0000
  H   H40       1.0  0.14736  0.35702  0.37275  1.0000
  H   H41       1.0  0.96291  0.98522  0.38371  1.0000
  H   H42       1.0  0.03669  0.01466  0.88391  1.0000
  H   H43       1.0  0.03696  0.48470  0.11635  1.0000
  H   H44       1.0  0.96308  0.51496  0.61588  1.0000
  H   H45       1.0  0.03687  0.01471  0.61611  1.0000
  H   H46       1.0  0.96302  0.98521  0.11631  1.0000
  H   H47       1.0  0.96302  0.51499  0.88410  1.0000
  H   H48       1.0  0.03692  0.48464  0.38369  1.0000
  C   C1        1.0  0.34207  0.97054  0.41154  1.0000
  C   C2        1.0  0.65767  0.02948  0.91151  1.0000
  C   C3        1.0  0.65788  0.47065  0.08829  1.0000
  C   C4        1.0  0.34322  0.52972  0.58858  1.0000
  C   C5        1.0  0.65776  0.02946  0.58854  1.0000
  C   C6        1.0  0.34204  0.97053  0.08837  1.0000
  C   C7        1.0  0.34293  0.52952  0.91145  1.0000
  C   C8        1.0  0.65800  0.47055  0.41144  1.0000
  C   C9        1.0  0.48465  0.01482  0.45960  1.0000
  C   C10       1.0  0.51513  0.98527  0.95947  1.0000
  C   C11       1.0  0.51566  0.51490  0.04036  1.0000
  C   C12       1.0  0.48581  0.48595  0.54059  1.0000
  C   C13       1.0  0.51518  0.98527  0.54052  1.0000
  C   C14       1.0  0.48454  0.01481  0.04038  1.0000
  C   C15       1.0  0.48524  0.48549  0.95918  1.0000
  C   C16       1.0  0.51584  0.51514  0.45949  1.0000
  C   C17       1.0  0.11795  0.83766  0.39801  1.0000
  C   C18       1.0  0.88166  0.16235  0.89793  1.0000
  C   C19       1.0  0.88203  0.33736  0.10189  1.0000
  C   C20       1.0  0.11797  0.66243  0.60222  1.0000
  C   C21       1.0  0.88182  0.16236  0.60214  1.0000
  C   C22       1.0  0.11805  0.83762  0.10196  1.0000
  C   C23       1.0  0.11796  0.66245  0.89782  1.0000
  C   C24       1.0  0.88211  0.33730  0.39818  1.0000
  C   C25       1.0  0.95275  0.90055  0.40837  1.0000
  C   C26       1.0  0.04679  0.09937  0.90852  1.0000
  C   C27       1.0  0.04722  0.40005  0.09155  1.0000
  C   C28       1.0  0.95293  0.59973  0.59133  1.0000
  C   C29       1.0  0.04697  0.09943  0.59156  1.0000
  C   C30       1.0  0.95285  0.90053  0.09162  1.0000
  C   C31       1.0  0.95291  0.59976  0.90869  1.0000
  C   C32       1.0  0.04730  0.40001  0.40850  1.0000
  Cl  Cl1       1.0  0.07847  0.16405  0.25008  1.0000
  Cl  Cl2       1.0  0.92148  0.83536  0.74980  1.0000
  Cl  Cl3       1.0  0.92159  0.66407  0.25068  1.0000
  Cl  Cl4       1.0  0.07791  0.33592  0.75105  1.0000
  Cl  Cl5       1.0  0.63543  0.03818  0.25011  1.0000
  Cl  Cl6       1.0  0.36502  0.96271  0.74969  1.0000
  Cl  Cl7       1.0  0.36441  0.53895  0.25028  1.0000
  Cl  Cl8       1.0  0.63556  0.45900  0.74969  1.0000
  Cl  Cl9       1.0  0.43843  0.25149  0.14473  1.0000
  Cl  Cl10      1.0  0.56059  0.74818  0.64467  1.0000
  Cl  Cl11      1.0  0.56221  0.75200  0.35504  1.0000
  Cl  Cl12      1.0  0.43523  0.24910  0.85480  1.0000
  Cl  Cl13      1.0  0.56081  0.74826  0.85522  1.0000
  Cl  Cl14      1.0  0.43837  0.25167  0.35535  1.0000
  Cl  Cl15      1.0  0.43763  0.25014  0.64531  1.0000
  Cl  Cl16      1.0  0.56275  0.75179  0.14450  1.0000
  O   O1        1.0  0.29924  0.00632  0.33996  1.0000
  O   O2        1.0  0.70118  0.99340  0.84009  1.0000
  O   O3        1.0  0.70119  0.50665  0.15989  1.0000
  O   O4        1.0  0.30064  0.49319  0.66017  1.0000
  O   O5        1.0  0.70113  0.99353  0.66002  1.0000
  O   O6        1.0  0.29914  0.00636  0.15994  1.0000
  O   O7        1.0  0.29975  0.49336  0.83966  1.0000
  O   O8        1.0  0.70043  0.50553  0.33957  1.0000
  O   O9        1.0  0.25602  0.88886  0.44753  1.0000
  O   O10       1.0  0.74326  0.11165  0.94734  1.0000
  O   O11       1.0  0.74397  0.38855  0.05242  1.0000
  O   O12       1.0  0.25632  0.61140  0.55287  1.0000
  O   O13       1.0  0.74348  0.11152  0.55270  1.0000
  O   O14       1.0  0.25612  0.88866  0.05244  1.0000
  O   O15       1.0  0.25642  0.61143  0.94711  1.0000
  O   O16       1.0  0.74426  0.38883  0.44764  1.0000
