data_image0
_chemical_formula_structural       Na2H20C24S2N2O22
_chemical_formula_sum              "Na2 H20 C24 S2 N2 O22"
_cell_length_a       6.90369
_cell_length_b       10.103
_cell_length_c       12.5269
_cell_angle_alpha    71.8777
_cell_angle_beta     87.2053
_cell_angle_gamma    73.6561

_space_group_name_H-M_alt    "P 1"
_space_group_IT_number       1

loop_
  _space_group_symop_operation_xyz
  'x, y, z'

loop_
  _atom_site_type_symbol
  _atom_site_label
  _atom_site_symmetry_multiplicity
  _atom_site_fract_x
  _atom_site_fract_y
  _atom_site_fract_z
  _atom_site_occupancy
  Na  Na1       1.0  0.30657  0.81130  0.62583  1.0000
  Na  Na2       1.0  0.69344  0.18869  0.37417  1.0000
  H   H1        1.0  0.63718  0.41022  0.50151  1.0000
  H   H2        1.0  0.36282  0.58979  0.49849  1.0000
  H   H3        1.0  0.89492  0.00761  0.23141  1.0000
  H   H4        1.0  0.10508  0.99238  0.76859  1.0000
  H   H5        1.0  0.73196  0.19101  0.75145  1.0000
  H   H6        1.0  0.26804  0.80900  0.24855  1.0000
  H   H7        1.0  0.79876  0.06924  0.95551  1.0000
  H   H8        1.0  0.20125  0.93075  0.04448  1.0000
  H   H9        1.0  0.74774  0.45559  0.10968  1.0000
  H   H10       1.0  0.25226  0.54440  0.89032  1.0000
  H   H11       1.0  0.79066  0.81643  0.82803  1.0000
  H   H12       1.0  0.20933  0.18358  0.17197  1.0000
  H   H13       1.0  0.41319  0.84904  0.40526  1.0000
  H   H14       1.0  0.58681  0.15096  0.59474  1.0000
  H   H15       1.0  0.32343  0.00774  0.41426  1.0000
  H   H16       1.0  0.67657  0.99227  0.58574  1.0000
  H   H17       1.0  0.94368  0.07219  0.61443  1.0000
  H   H18       1.0  0.05632  0.92782  0.38557  1.0000
  H   H19       1.0  0.09848  0.16226  0.60717  1.0000
  H   H20       1.0  0.90152  0.83773  0.39283  1.0000
  C   C1        1.0  0.77639  0.62782  0.78663  1.0000
  C   C2        1.0  0.22361  0.37218  0.21337  1.0000
  C   C3        1.0  0.75009  0.48542  0.82652  1.0000
  C   C4        1.0  0.24991  0.51458  0.17348  1.0000
  C   C5        1.0  0.72429  0.40140  0.75741  1.0000
  C   C6        1.0  0.27571  0.59860  0.24259  1.0000
  C   C7        1.0  0.63825  0.46189  0.63942  1.0000
  C   C8        1.0  0.36176  0.53812  0.36057  1.0000
  C   C9        1.0  0.74741  0.25408  0.80517  1.0000
  C   C10       1.0  0.25260  0.74592  0.19483  1.0000
  C   C11       1.0  0.78053  0.18508  0.92131  1.0000
  C   C12       1.0  0.21948  0.81492  0.07869  1.0000
  C   C13       1.0  0.77352  0.26658  0.99232  1.0000
  C   C14       1.0  0.22649  0.73342  0.00768  1.0000
  C   C15       1.0  0.77752  0.19198  0.11575  1.0000
  C   C16       1.0  0.22248  0.80801  0.88425  1.0000
  C   C17       1.0  0.75661  0.41859  0.94719  1.0000
  C   C18       1.0  0.24339  0.58141  0.05281  1.0000
  C   C19       1.0  0.75196  0.50274  0.01926  1.0000
  C   C20       1.0  0.24805  0.49726  0.98074  1.0000
  C   C21       1.0  0.75034  0.64564  0.97393  1.0000
  C   C22       1.0  0.24966  0.35436  0.02608  1.0000
  C   C23       1.0  0.77253  0.70756  0.85887  1.0000
  C   C24       1.0  0.22746  0.29244  0.14113  1.0000
  S   S1        1.0  0.83114  0.71653  0.64423  1.0000
  S   S2        1.0  0.16885  0.28348  0.35577  1.0000
  N   N1        1.0  0.73064  0.73489  0.04898  1.0000
  N   N2        1.0  0.26935  0.26511  0.95102  1.0000
  O   O1        1.0  0.88726  0.61023  0.58412  1.0000
  O   O2        1.0  0.11274  0.38978  0.41588  1.0000
  O   O3        1.0  0.64044  0.83308  0.59835  1.0000
  O   O4        1.0  0.35955  0.16693  0.40165  1.0000
  O   O5        1.0  0.99128  0.78024  0.65661  1.0000
  O   O6        1.0  0.00871  0.21976  0.34339  1.0000
  O   O7        1.0  0.48575  0.56894  0.60988  1.0000
  O   O8        1.0  0.51425  0.43106  0.39012  1.0000
  O   O9        1.0  0.71643  0.37831  0.57656  1.0000
  O   O10       1.0  0.28357  0.62170  0.42343  1.0000
  O   O11       1.0  0.89752  0.05700  0.14622  1.0000
  O   O12       1.0  0.10248  0.94299  0.85378  1.0000
  O   O13       1.0  0.67541  0.24988  0.18134  1.0000
  O   O14       1.0  0.32461  0.75011  0.81866  1.0000
  O   O15       1.0  0.74753  0.67338  0.15199  1.0000
  O   O16       1.0  0.25246  0.32662  0.84801  1.0000
  O   O17       1.0  0.69432  0.86805  0.00401  1.0000
  O   O18       1.0  0.30566  0.13196  0.99599  1.0000
  O   O19       1.0  0.29327  0.91275  0.42540  1.0000
  O   O20       1.0  0.70673  0.08725  0.57460  1.0000
  O   O21       1.0  0.08508  0.06395  0.63733  1.0000
  O   O22       1.0  0.91492  0.93604  0.36266  1.0000
