data_image0
_chemical_formula_structural       Gd2Zn2H32C52N4Cl2O22
_chemical_formula_sum              "Gd2 Zn2 H32 C52 N4 Cl2 O22"
_cell_length_a       8.279
_cell_length_b       12.8413
_cell_length_c       13.3042
_cell_angle_alpha    106.681
_cell_angle_beta     104.513
_cell_angle_gamma    93.5733

_space_group_name_H-M_alt    "P 1"
_space_group_IT_number       1

loop_
  _space_group_symop_operation_xyz
  'x, y, z'

loop_
  _atom_site_type_symbol
  _atom_site_label
  _atom_site_symmetry_multiplicity
  _atom_site_fract_x
  _atom_site_fract_y
  _atom_site_fract_z
  _atom_site_occupancy
  Gd  Gd1       1.0  0.75395  0.51004  0.51054  1.0000
  Gd  Gd2       1.0  0.24605  0.48997  0.48946  1.0000
  Zn  Zn1       1.0  0.67649  0.78127  0.33397  1.0000
  Zn  Zn2       1.0  0.32351  0.21873  0.66603  1.0000
  H   H1        1.0  0.99758  0.41733  0.64050  1.0000
  H   H2        1.0  0.00242  0.58267  0.35950  1.0000
  H   H3        1.0  0.85845  0.41656  0.70525  1.0000
  H   H4        1.0  0.14155  0.58344  0.29475  1.0000
  H   H5        1.0  0.57244  0.25572  0.94169  1.0000
  H   H6        1.0  0.42755  0.74428  0.05830  1.0000
  H   H7        1.0  0.35311  0.14599  0.97848  1.0000
  H   H8        1.0  0.64688  0.85401  0.02152  1.0000
  H   H9        1.0  0.26134  0.22045  0.14934  1.0000
  H   H10       1.0  0.73866  0.77955  0.85067  1.0000
  H   H11       1.0  0.70590  0.49933  0.89419  1.0000
  H   H12       1.0  0.29410  0.50067  0.10580  1.0000
  H   H13       1.0  0.95278  0.30848  0.08937  1.0000
  H   H14       1.0  0.04721  0.69151  0.91062  1.0000
  H   H15       1.0  0.08951  0.22849  0.93812  1.0000
  H   H16       1.0  0.91049  0.77151  0.06188  1.0000
  H   H17       1.0  0.02219  0.28752  0.77346  1.0000
  H   H18       1.0  0.97781  0.71248  0.22654  1.0000
  H   H19       1.0  0.95763  0.01633  0.89692  1.0000
  H   H20       1.0  0.04237  0.98367  0.10309  1.0000
  H   H21       1.0  0.23981  0.95481  0.95227  1.0000
  H   H22       1.0  0.76019  0.04519  0.04774  1.0000
  H   H23       1.0  0.32677  0.80699  0.81616  1.0000
  H   H24       1.0  0.67324  0.19301  0.18384  1.0000
  H   H25       1.0  0.48426  0.04146  0.71784  1.0000
  H   H26       1.0  0.51574  0.95854  0.28216  1.0000
  H   H27       1.0  0.92764  0.01705  0.60102  1.0000
  H   H28       1.0  0.07237  0.98295  0.39898  1.0000
  H   H29       1.0  0.84861  0.16788  0.52342  1.0000
  H   H30       1.0  0.15139  0.83212  0.47658  1.0000
  H   H31       1.0  0.58820  0.25079  0.54740  1.0000
  H   H32       1.0  0.41180  0.74921  0.45260  1.0000
  C   C1        1.0  0.43674  0.36926  0.20715  1.0000
  C   C2        1.0  0.56326  0.63074  0.79285  1.0000
  C   C3        1.0  0.56672  0.43054  0.18895  1.0000
  C   C4        1.0  0.43328  0.56946  0.81104  1.0000
  C   C5        1.0  0.61506  0.38815  0.09300  1.0000
  C   C6        1.0  0.38494  0.61185  0.90699  1.0000
  C   C7        1.0  0.53762  0.28643  0.01737  1.0000
  C   C8        1.0  0.46237  0.71357  0.98263  1.0000
  C   C9        1.0  0.41253  0.22500  0.03862  1.0000
  C   C10       1.0  0.58747  0.77500  0.96138  1.0000
  C   C11       1.0  0.36089  0.26614  0.13223  1.0000
  C   C12       1.0  0.63911  0.73386  0.86777  1.0000
  C   C13       1.0  0.37033  0.41234  0.30273  1.0000
  C   C14       1.0  0.62967  0.58766  0.69727  1.0000
  C   C15       1.0  0.65472  0.54141  0.26646  1.0000
  C   C16       1.0  0.34528  0.45859  0.73354  1.0000
  C   C17       1.0  0.78907  0.43857  0.90498  1.0000
  C   C18       1.0  0.21093  0.56143  0.09502  1.0000
  C   C19       1.0  0.81662  0.40649  0.99866  1.0000
  C   C20       1.0  0.18338  0.59351  0.00134  1.0000
  C   C21       1.0  0.92640  0.33079  0.01429  1.0000
  C   C22       1.0  0.07359  0.66921  0.98570  1.0000
  C   C23       1.0  0.00144  0.28720  0.93174  1.0000
  C   C24       1.0  0.99855  0.71280  0.06826  1.0000
  C   C25       1.0  0.96550  0.32156  0.83922  1.0000
  C   C26       1.0  0.03450  0.67844  0.16078  1.0000
  C   C27       1.0  0.09473  0.78242  0.69052  1.0000
  C   C28       1.0  0.90527  0.21758  0.30948  1.0000
  C   C29       1.0  0.93624  0.81602  0.65944  1.0000
  C   C30       1.0  0.06376  0.18399  0.34056  1.0000
  C   C31       1.0  0.89202  0.90129  0.73507  1.0000
  C   C32       1.0  0.10798  0.09871  0.26493  1.0000
  C   C33       1.0  0.99836  0.95057  0.84048  1.0000
  C   C34       1.0  0.00165  0.04943  0.15953  1.0000
  C   C35       1.0  0.15503  0.91641  0.87031  1.0000
  C   C36       1.0  0.84497  0.08359  0.12969  1.0000
  C   C37       1.0  0.20425  0.83395  0.79489  1.0000
  C   C38       1.0  0.79575  0.16605  0.20512  1.0000
  C   C39       1.0  0.14329  0.68657  0.61619  1.0000
  C   C40       1.0  0.85671  0.31343  0.38381  1.0000
  C   C41       1.0  0.81818  0.76983  0.54534  1.0000
  C   C42       1.0  0.18183  0.23017  0.45466  1.0000
  C   C43       1.0  0.56838  0.06757  0.67543  1.0000
  C   C44       1.0  0.43162  0.93243  0.32457  1.0000
  C   C45       1.0  0.71029  0.01752  0.66446  1.0000
  C   C46       1.0  0.28971  0.98248  0.33554  1.0000
  C   C47       1.0  0.81472  0.05339  0.60962  1.0000
  C   C48       1.0  0.18528  0.94661  0.39038  1.0000
  C   C49       1.0  0.76991  0.13775  0.56639  1.0000
  C   C50       1.0  0.23009  0.86224  0.43360  1.0000
  C   C51       1.0  0.62668  0.18466  0.57981  1.0000
  C   C52       1.0  0.37332  0.81534  0.42019  1.0000
  N   N1        1.0  0.86290  0.39648  0.82615  1.0000
  N   N2        1.0  0.13711  0.60351  0.17385  1.0000
  N   N3        1.0  0.52880  0.14994  0.63443  1.0000
  N   N4        1.0  0.47120  0.85006  0.36557  1.0000
  Cl  Cl1       1.0  0.77299  0.87442  0.23869  1.0000
  Cl  Cl2       1.0  0.22701  0.12558  0.76131  1.0000
  O   O1        1.0  0.21976  0.38137  0.29603  1.0000
  O   O2        1.0  0.78024  0.61863  0.70397  1.0000
  O   O3        1.0  0.46630  0.48356  0.39264  1.0000
  O   O4        1.0  0.53370  0.51644  0.60736  1.0000
  O   O5        1.0  0.78202  0.54394  0.34457  1.0000
  O   O6        1.0  0.21798  0.45606  0.65543  1.0000
  O   O7        1.0  0.59694  0.62438  0.24558  1.0000
  O   O8        1.0  0.40306  0.37562  0.75443  1.0000
  O   O9        1.0  0.73807  0.45482  0.07758  1.0000
  O   O10       1.0  0.26192  0.54518  0.92242  1.0000
  O   O11       1.0  0.29409  0.68123  0.61391  1.0000
  O   O12       1.0  0.70592  0.31878  0.38610  1.0000
  O   O13       1.0  0.02619  0.60580  0.55526  1.0000
  O   O14       1.0  0.97381  0.39420  0.44474  1.0000
  O   O15       1.0  0.69780  0.69366  0.52162  1.0000
  O   O16       1.0  0.30220  0.30634  0.47838  1.0000
  O   O17       1.0  0.84935  0.81705  0.47842  1.0000
  O   O18       1.0  0.15065  0.18296  0.52158  1.0000
  O   O19       1.0  0.73226  0.93256  0.70813  1.0000
  O   O20       1.0  0.26774  0.06745  0.29187  1.0000
  O   O21       1.0  0.87474  0.41144  0.63064  1.0000
  O   O22       1.0  0.12526  0.58857  0.36936  1.0000
