data_image0
_chemical_formula_structural       Pr2Zn2H32C52N4Cl2O22
_chemical_formula_sum              "Pr2 Zn2 H32 C52 N4 Cl2 O22"
_cell_length_a       8.47935
_cell_length_b       12.7399
_cell_length_c       13.3348
_cell_angle_alpha    107.622
_cell_angle_beta     104.928
_cell_angle_gamma    93.3669

_space_group_name_H-M_alt    "P 1"
_space_group_IT_number       1

loop_
  _space_group_symop_operation_xyz
  'x, y, z'

loop_
  _atom_site_type_symbol
  _atom_site_label
  _atom_site_symmetry_multiplicity
  _atom_site_fract_x
  _atom_site_fract_y
  _atom_site_fract_z
  _atom_site_occupancy
  Pr  Pr1       1.0  0.24482  0.49114  0.98759  1.0000
  Pr  Pr2       1.0  0.75518  0.50886  0.01241  1.0000
  Zn  Zn1       1.0  0.32081  0.21491  0.16148  1.0000
  Zn  Zn2       1.0  0.67919  0.78509  0.83852  1.0000
  H   H1        1.0  0.13150  0.58837  0.78902  1.0000
  H   H2        1.0  0.86850  0.41164  0.21098  1.0000
  H   H3        1.0  0.99575  0.58587  0.85369  1.0000
  H   H4        1.0  0.00425  0.41414  0.14631  1.0000
  H   H5        1.0  0.67872  0.18492  0.67671  1.0000
  H   H6        1.0  0.32128  0.81508  0.32329  1.0000
  H   H7        1.0  0.76563  0.03863  0.53697  1.0000
  H   H8        1.0  0.23436  0.96137  0.46303  1.0000
  H   H9        1.0  0.04251  0.97757  0.59180  1.0000
  H   H10       1.0  0.95749  0.02243  0.40820  1.0000
  H   H11       1.0  0.51400  0.95929  0.78200  1.0000
  H   H12       1.0  0.48600  0.04071  0.21800  1.0000
  H   H13       1.0  0.07403  0.97667  0.89026  1.0000
  H   H14       1.0  0.92597  0.02333  0.10974  1.0000
  H   H15       1.0  0.16011  0.83131  0.97404  1.0000
  H   H16       1.0  0.83988  0.16869  0.02596  1.0000
  H   H17       1.0  0.42149  0.75388  0.95665  1.0000
  H   H18       1.0  0.57851  0.24612  0.04335  1.0000
  H   H19       1.0  0.73005  0.78553  0.35981  1.0000
  H   H20       1.0  0.26995  0.21447  0.64019  1.0000
  H   H21       1.0  0.63607  0.86191  0.52891  1.0000
  H   H22       1.0  0.36393  0.13809  0.47109  1.0000
  H   H23       1.0  0.42019  0.75021  0.56179  1.0000
  H   H24       1.0  0.57981  0.24979  0.43821  1.0000
  H   H25       1.0  0.29166  0.50704  0.60855  1.0000
  H   H26       1.0  0.70834  0.49296  0.39145  1.0000
  H   H27       1.0  0.04547  0.68885  0.40480  1.0000
  H   H28       1.0  0.95453  0.31115  0.59520  1.0000
  H   H29       1.0  0.90356  0.76957  0.55121  1.0000
  H   H30       1.0  0.09643  0.23042  0.44878  1.0000
  H   H31       1.0  0.96790  0.71575  0.71852  1.0000
  H   H32       1.0  0.03209  0.28424  0.28148  1.0000
  C   C1        1.0  0.10530  0.09145  0.75648  1.0000
  C   C2        1.0  0.89469  0.90855  0.24352  1.0000
  C   C3        1.0  0.06128  0.17605  0.83441  1.0000
  C   C4        1.0  0.93872  0.82395  0.16559  1.0000
  C   C5        1.0  0.90561  0.20920  0.80362  1.0000
  C   C6        1.0  0.09439  0.79080  0.19638  1.0000
  C   C7        1.0  0.79881  0.15806  0.69769  1.0000
  C   C8        1.0  0.20119  0.84194  0.30231  1.0000
  C   C9        1.0  0.84778  0.07645  0.62027  1.0000
  C   C10       1.0  0.15222  0.92355  0.37974  1.0000
  C   C11       1.0  0.00152  0.04261  0.64970  1.0000
  C   C12       1.0  0.99848  0.95739  0.35030  1.0000
  C   C13       1.0  0.17786  0.22309  0.94938  1.0000
  C   C14       1.0  0.82214  0.77691  0.05062  1.0000
  C   C15       1.0  0.85642  0.30502  0.87954  1.0000
  C   C16       1.0  0.14359  0.69498  0.12046  1.0000
  C   C17       1.0  0.43215  0.93243  0.82354  1.0000
  C   C18       1.0  0.56785  0.06758  0.17647  1.0000
  C   C19       1.0  0.28889  0.97904  0.83008  1.0000
  C   C20       1.0  0.71111  0.02096  0.16992  1.0000
  C   C21       1.0  0.18770  0.94310  0.88463  1.0000
  C   C22       1.0  0.81230  0.05690  0.11537  1.0000
  C   C23       1.0  0.23627  0.86169  0.93136  1.0000
  C   C24       1.0  0.76372  0.13831  0.06864  1.0000
  C   C25       1.0  0.38002  0.81773  0.92158  1.0000
  C   C26       1.0  0.61998  0.18227  0.07842  1.0000
  C   C27       1.0  0.38335  0.61443  0.41018  1.0000
  C   C28       1.0  0.61665  0.38557  0.58981  1.0000
  C   C29       1.0  0.43335  0.57073  0.31522  1.0000
  C   C30       1.0  0.56665  0.42927  0.68478  1.0000
  C   C31       1.0  0.56103  0.63325  0.29929  1.0000
  C   C32       1.0  0.43897  0.36675  0.70071  1.0000
  C   C33       1.0  0.63248  0.73882  0.37525  1.0000
  C   C34       1.0  0.36752  0.26118  0.62474  1.0000
  C   C35       1.0  0.57943  0.78115  0.46787  1.0000
  C   C36       1.0  0.42057  0.21885  0.53213  1.0000
  C   C37       1.0  0.45655  0.71858  0.48688  1.0000
  C   C38       1.0  0.54346  0.28141  0.51312  1.0000
  C   C39       1.0  0.34722  0.45792  0.23594  1.0000
  C   C40       1.0  0.65278  0.54208  0.76406  1.0000
  C   C41       1.0  0.62766  0.58997  0.20426  1.0000
  C   C42       1.0  0.37234  0.41003  0.79574  1.0000
  C   C43       1.0  0.20760  0.56602  0.59482  1.0000
  C   C44       1.0  0.79240  0.43398  0.40519  1.0000
  C   C45       1.0  0.18185  0.59558  0.50011  1.0000
  C   C46       1.0  0.81815  0.40442  0.49989  1.0000
  C   C47       1.0  0.07097  0.66888  0.48087  1.0000
  C   C48       1.0  0.92903  0.33111  0.51912  1.0000
  C   C49       1.0  0.99296  0.71295  0.56098  1.0000
  C   C50       1.0  0.00704  0.28704  0.43902  1.0000
  C   C51       1.0  0.02705  0.68133  0.65472  1.0000
  C   C52       1.0  0.97295  0.31866  0.34528  1.0000
  N   N1        1.0  0.47557  0.85285  0.86786  1.0000
  N   N2        1.0  0.52443  0.14715  0.13214  1.0000
  N   N3        1.0  0.13079  0.60856  0.67107  1.0000
  N   N4        1.0  0.86921  0.39144  0.32893  1.0000
  Cl  Cl1       1.0  0.22664  0.12210  0.25595  1.0000
  Cl  Cl2       1.0  0.77335  0.87789  0.74405  1.0000
  O   O1        1.0  0.26201  0.06026  0.78173  1.0000
  O   O2        1.0  0.73799  0.93974  0.21827  1.0000
  O   O3        1.0  0.14637  0.17899  0.01758  1.0000
  O   O4        1.0  0.85363  0.82101  0.98242  1.0000
  O   O5        1.0  0.29880  0.29751  0.97182  1.0000
  O   O6        1.0  0.70120  0.70249  0.02818  1.0000
  O   O7        1.0  0.97058  0.38773  0.94244  1.0000
  O   O8        1.0  0.02942  0.61227  0.05756  1.0000
  O   O9        1.0  0.70835  0.30808  0.88043  1.0000
  O   O10       1.0  0.29165  0.69193  0.11957  1.0000
  O   O11       1.0  0.26272  0.54643  0.42356  1.0000
  O   O12       1.0  0.73729  0.45357  0.57644  1.0000
  O   O13       1.0  0.40646  0.37384  0.25357  1.0000
  O   O14       1.0  0.59355  0.62616  0.74643  1.0000
  O   O15       1.0  0.21958  0.45507  0.15934  1.0000
  O   O16       1.0  0.78043  0.54493  0.84066  1.0000
  O   O17       1.0  0.53285  0.51849  0.11255  1.0000
  O   O18       1.0  0.46715  0.48151  0.88745  1.0000
  O   O19       1.0  0.77566  0.62135  0.21334  1.0000
  O   O20       1.0  0.22434  0.37865  0.78666  1.0000
  O   O21       1.0  0.11559  0.59113  0.86316  1.0000
  O   O22       1.0  0.88442  0.40887  0.13684  1.0000
