data_image0
_chemical_formula_structural       Ho2Zn2H32C52N4Cl2O22
_chemical_formula_sum              "Ho2 Zn2 H32 C52 N4 Cl2 O22"
_cell_length_a       9.61092
_cell_length_b       12.3652
_cell_length_c       12.6834
_cell_angle_alpha    74.02
_cell_angle_beta     84.2215
_cell_angle_gamma    71.6973

_space_group_name_H-M_alt    "P 1"
_space_group_IT_number       1

loop_
  _space_group_symop_operation_xyz
  'x, y, z'

loop_
  _atom_site_type_symbol
  _atom_site_label
  _atom_site_symmetry_multiplicity
  _atom_site_fract_x
  _atom_site_fract_y
  _atom_site_fract_z
  _atom_site_occupancy
  Ho  Ho1       1.0  0.70594  0.02855  0.96935  1.0000
  Ho  Ho2       1.0  0.29406  0.97145  0.03065  1.0000
  Zn  Zn1       1.0  0.83633  0.84814  0.68879  1.0000
  Zn  Zn2       1.0  0.16367  0.15186  0.31121  1.0000
  H   H1        1.0  0.56355  0.24332  0.06258  1.0000
  H   H2        1.0  0.43645  0.75668  0.93742  1.0000
  H   H3        1.0  0.44844  0.17568  0.04800  1.0000
  H   H4        1.0  0.55155  0.82432  0.95200  1.0000
  H   H5        1.0  0.83700  0.71078  0.28430  1.0000
  H   H6        1.0  0.16300  0.28922  0.71570  1.0000
  H   H7        1.0  0.80893  0.54700  0.44426  1.0000
  H   H8        1.0  0.19108  0.45300  0.55574  1.0000
  H   H9        1.0  0.56008  0.55687  0.53046  1.0000
  H   H10       1.0  0.43992  0.44313  0.46954  1.0000
  H   H11       1.0  0.04891  0.75966  0.53069  1.0000
  H   H12       1.0  0.95109  0.24034  0.46931  1.0000
  H   H13       1.0  0.44699  0.84203  0.56049  1.0000
  H   H14       1.0  0.55301  0.15797  0.43951  1.0000
  H   H15       1.0  0.30927  0.95777  0.69303  1.0000
  H   H16       1.0  0.69073  0.04223  0.30697  1.0000
  H   H17       1.0  0.04811  0.96523  0.74143  1.0000
  H   H18       1.0  0.95189  0.03477  0.25857  1.0000
  H   H19       1.0  0.16535  0.67348  0.20750  1.0000
  H   H20       1.0  0.83464  0.32652  0.79250  1.0000
  H   H21       1.0  0.10836  0.48195  0.29644  1.0000
  H   H22       1.0  0.89163  0.51805  0.70356  1.0000
  H   H23       1.0  0.92248  0.43007  0.21517  1.0000
  H   H24       1.0  0.07752  0.56993  0.78483  1.0000
  H   H25       1.0  0.73908  0.37386  0.99677  1.0000
  H   H26       1.0  0.26092  0.62614  0.00323  1.0000
  H   H27       1.0  0.59352  0.62344  0.19436  1.0000
  H   H28       1.0  0.40648  0.37656  0.80564  1.0000
  H   H29       1.0  0.41145  0.51662  0.28461  1.0000
  H   H30       1.0  0.58855  0.48338  0.71539  1.0000
  H   H31       1.0  0.40615  0.33966  0.22786  1.0000
  H   H32       1.0  0.59385  0.66034  0.77214  1.0000
  C   C1        1.0  0.45582  0.72168  0.41843  1.0000
  C   C2        1.0  0.54418  0.27833  0.58157  1.0000
  C   C3        1.0  0.46873  0.81221  0.32735  1.0000
  C   C4        1.0  0.53127  0.18779  0.67265  1.0000
  C   C5        1.0  0.60824  0.80619  0.27869  1.0000
  C   C6        1.0  0.39176  0.19381  0.72131  1.0000
  C   C7        1.0  0.73023  0.71194  0.32253  1.0000
  C   C8        1.0  0.26978  0.28806  0.67747  1.0000
  C   C9        1.0  0.71393  0.62098  0.41143  1.0000
  C   C10       1.0  0.28607  0.37902  0.58857  1.0000
  C   C11       1.0  0.57601  0.62557  0.45976  1.0000
  C   C12       1.0  0.42399  0.37443  0.54024  1.0000
  C   C13       1.0  0.33635  0.91692  0.28924  1.0000
  C   C14       1.0  0.66365  0.08308  0.71076  1.0000
  C   C15       1.0  0.62814  0.89470  0.17619  1.0000
  C   C16       1.0  0.37186  0.10530  0.82381  1.0000
  C   C17       1.0  0.11066  0.80197  0.56529  1.0000
  C   C18       1.0  0.88934  0.19802  0.43471  1.0000
  C   C19       1.0  0.25745  0.79164  0.53656  1.0000
  C   C20       1.0  0.74255  0.20836  0.46344  1.0000
  C   C21       1.0  0.33241  0.84806  0.58183  1.0000
  C   C22       1.0  0.66759  0.15194  0.41817  1.0000
  C   C23       1.0  0.25595  0.91228  0.65547  1.0000
  C   C24       1.0  0.74405  0.08772  0.34453  1.0000
  C   C25       1.0  0.11022  0.91803  0.68240  1.0000
  C   C26       1.0  0.88978  0.08196  0.31760  1.0000
  C   C27       1.0  0.87425  0.58893  0.08356  1.0000
  C   C28       1.0  0.12575  0.41107  0.91644  1.0000
  C   C29       1.0  0.90689  0.69377  0.03238  1.0000
  C   C30       1.0  0.09311  0.30623  0.96762  1.0000
  C   C31       1.0  0.01185  0.72373  0.07841  1.0000
  C   C32       1.0  0.98815  0.27627  0.92159  1.0000
  C   C33       1.0  0.08389  0.64811  0.17392  1.0000
  C   C34       1.0  0.91611  0.35189  0.82608  1.0000
  C   C35       1.0  0.05088  0.54331  0.22353  1.0000
  C   C36       1.0  0.94912  0.45669  0.77647  1.0000
  C   C37       1.0  0.94560  0.51335  0.17881  1.0000
  C   C38       1.0  0.05440  0.48665  0.82119  1.0000
  C   C39       1.0  0.83502  0.77044  0.92641  1.0000
  C   C40       1.0  0.16498  0.22955  0.07359  1.0000
  C   C41       1.0  0.04677  0.83606  0.02242  1.0000
  C   C42       1.0  0.95322  0.16394  0.97758  1.0000
  C   C43       1.0  0.66963  0.40611  0.06177  1.0000
  C   C44       1.0  0.33037  0.59389  0.93823  1.0000
  C   C45       1.0  0.68110  0.50393  0.09065  1.0000
  C   C46       1.0  0.31890  0.49607  0.90935  1.0000
  C   C47       1.0  0.58846  0.54566  0.17224  1.0000
  C   C48       1.0  0.41153  0.45434  0.82776  1.0000
  C   C49       1.0  0.48806  0.48605  0.22211  1.0000
  C   C50       1.0  0.51194  0.51395  0.77789  1.0000
  C   C51       1.0  0.48346  0.38814  0.18980  1.0000
  C   C52       1.0  0.51653  0.61187  0.81019  1.0000
  N   N1        1.0  0.03969  0.86347  0.63713  1.0000
  N   N2        1.0  0.96031  0.13653  0.36287  1.0000
  N   N3        1.0  0.57285  0.34952  0.11074  1.0000
  N   N4        1.0  0.42715  0.65048  0.88926  1.0000
  Cl  Cl1       1.0  0.76541  0.74538  0.59801  1.0000
  Cl  Cl2       1.0  0.23458  0.25462  0.40199  1.0000
  O   O1        1.0  0.31694  0.72323  0.46456  1.0000
  O   O2        1.0  0.68306  0.27677  0.53544  1.0000
  O   O3        1.0  0.31814  0.99833  0.33715  1.0000
  O   O4        1.0  0.68185  0.00168  0.66284  1.0000
  O   O5        1.0  0.25443  0.91690  0.21734  1.0000
  O   O6        1.0  0.74557  0.08310  0.78265  1.0000
  O   O7        1.0  0.52409  0.94302  0.10647  1.0000
  O   O8        1.0  0.47590  0.05698  0.89353  1.0000
  O   O9        1.0  0.74912  0.91816  0.15544  1.0000
  O   O10       1.0  0.25087  0.08184  0.84457  1.0000
  O   O11       1.0  0.77678  0.56095  0.02963  1.0000
  O   O12       1.0  0.22322  0.43905  0.97037  1.0000
  O   O13       1.0  0.90035  0.74898  0.83941  1.0000
  O   O14       1.0  0.09966  0.25102  0.16059  1.0000
  O   O15       1.0  0.71333  0.85044  0.92913  1.0000
  O   O16       1.0  0.28667  0.14956  0.07087  1.0000
  O   O17       1.0  0.95044  0.91885  0.96187  1.0000
  O   O18       1.0  0.04956  0.08115  0.03814  1.0000
  O   O19       1.0  0.17409  0.83961  0.03662  1.0000
  O   O20       1.0  0.82592  0.16039  0.96338  1.0000
  O   O21       1.0  0.54943  0.18027  0.02977  1.0000
  O   O22       1.0  0.45057  0.81973  0.97023  1.0000
