data_image0
_chemical_formula_structural       Nd2Zn2H32C52N4Cl2O22
_chemical_formula_sum              "Nd2 Zn2 H32 C52 N4 Cl2 O22"
_cell_length_a       8.43148
_cell_length_b       12.7558
_cell_length_c       13.3128
_cell_angle_alpha    107.382
_cell_angle_beta     104.917
_cell_angle_gamma    93.501

_space_group_name_H-M_alt    "P 1"
_space_group_IT_number       1

loop_
  _space_group_symop_operation_xyz
  'x, y, z'

loop_
  _atom_site_type_symbol
  _atom_site_label
  _atom_site_symmetry_multiplicity
  _atom_site_fract_x
  _atom_site_fract_y
  _atom_site_fract_z
  _atom_site_occupancy
  Nd  Nd1       1.0  0.75495  0.00894  0.51207  1.0000
  Nd  Nd2       1.0  0.24506  0.99106  0.48793  1.0000
  Zn  Zn1       1.0  0.67856  0.28454  0.33749  1.0000
  Zn  Zn2       1.0  0.32144  0.71546  0.66252  1.0000
  H   H1        1.0  0.86609  0.91150  0.70905  1.0000
  H   H2        1.0  0.13391  0.08850  0.29095  1.0000
  H   H3        1.0  0.00273  0.91448  0.64450  1.0000
  H   H4        1.0  0.99727  0.08552  0.35550  1.0000
  H   H5        1.0  0.32311  0.31303  0.82264  1.0000
  H   H6        1.0  0.67690  0.68697  0.17736  1.0000
  H   H7        1.0  0.23673  0.45951  0.96199  1.0000
  H   H8        1.0  0.76327  0.54049  0.03801  1.0000
  H   H9        1.0  0.95891  0.52131  0.90678  1.0000
  H   H10       1.0  0.04109  0.47869  0.09322  1.0000
  H   H11       1.0  0.48593  0.54102  0.71853  1.0000
  H   H12       1.0  0.51407  0.45899  0.28147  1.0000
  H   H13       1.0  0.92635  0.52177  0.60791  1.0000
  H   H14       1.0  0.07365  0.47823  0.39209  1.0000
  H   H15       1.0  0.84100  0.66764  0.52437  1.0000
  H   H16       1.0  0.15900  0.33236  0.47563  1.0000
  H   H17       1.0  0.57990  0.74642  0.54326  1.0000
  H   H18       1.0  0.42010  0.25357  0.45673  1.0000
  H   H19       1.0  0.26779  0.71559  0.14212  1.0000
  H   H20       1.0  0.73221  0.28441  0.85788  1.0000
  H   H21       1.0  0.36172  0.63915  0.97273  1.0000
  H   H22       1.0  0.63828  0.36085  0.02727  1.0000
  H   H23       1.0  0.57841  0.75058  0.93871  1.0000
  H   H24       1.0  0.42160  0.24942  0.06129  1.0000
  H   H25       1.0  0.70679  0.99288  0.89038  1.0000
  H   H26       1.0  0.29321  0.00713  0.10962  1.0000
  H   H27       1.0  0.95471  0.81113  0.09461  1.0000
  H   H28       1.0  0.04528  0.18887  0.90539  1.0000
  H   H29       1.0  0.09560  0.72996  0.94733  1.0000
  H   H30       1.0  0.90440  0.27004  0.05266  1.0000
  H   H31       1.0  0.03065  0.78422  0.77975  1.0000
  H   H32       1.0  0.96934  0.21578  0.22024  1.0000
  C   C1        1.0  0.89473  0.40706  0.74235  1.0000
  C   C2        1.0  0.10526  0.59294  0.25765  1.0000
  C   C3        1.0  0.93847  0.32233  0.66471  1.0000
  C   C4        1.0  0.06152  0.67767  0.33529  1.0000
  C   C5        1.0  0.09484  0.28907  0.69564  1.0000
  C   C6        1.0  0.90516  0.71093  0.30436  1.0000
  C   C7        1.0  0.20249  0.34003  0.80151  1.0000
  C   C8        1.0  0.79751  0.65997  0.19849  1.0000
  C   C9        1.0  0.15374  0.42179  0.87873  1.0000
  C   C10       1.0  0.84626  0.57821  0.12127  1.0000
  C   C11       1.0  0.99940  0.45590  0.84909  1.0000
  C   C12       1.0  0.00059  0.54410  0.15091  1.0000
  C   C13       1.0  0.82136  0.27544  0.54966  1.0000
  C   C14       1.0  0.17865  0.72456  0.45035  1.0000
  C   C15       1.0  0.14371  0.19333  0.61982  1.0000
  C   C16       1.0  0.85629  0.80667  0.38018  1.0000
  C   C17       1.0  0.56822  0.56757  0.67661  1.0000
  C   C18       1.0  0.43178  0.43243  0.32339  1.0000
  C   C19       1.0  0.71112  0.52013  0.66903  1.0000
  C   C20       1.0  0.28888  0.47987  0.33097  1.0000
  C   C21       1.0  0.81275  0.55584  0.61404  1.0000
  C   C22       1.0  0.18725  0.44416  0.38596  1.0000
  C   C23       1.0  0.76465  0.63759  0.56754  1.0000
  C   C24       1.0  0.23535  0.36241  0.43246  1.0000
  C   C25       1.0  0.62110  0.68231  0.57819  1.0000
  C   C26       1.0  0.37890  0.31769  0.42181  1.0000
  C   C27       1.0  0.61659  0.88600  0.09030  1.0000
  C   C28       1.0  0.38341  0.11400  0.90970  1.0000
  C   C29       1.0  0.56703  0.92956  0.18555  1.0000
  C   C30       1.0  0.43296  0.07044  0.81445  1.0000
  C   C31       1.0  0.43859  0.86732  0.20198  1.0000
  C   C32       1.0  0.56141  0.13268  0.79802  1.0000
  C   C33       1.0  0.36608  0.76205  0.12634  1.0000
  C   C34       1.0  0.63392  0.23795  0.87366  1.0000
  C   C35       1.0  0.41899  0.71974  0.03353  1.0000
  C   C36       1.0  0.58100  0.28026  0.96647  1.0000
  C   C37       1.0  0.54244  0.78210  0.01389  1.0000
  C   C38       1.0  0.45756  0.21790  0.98611  1.0000
  C   C39       1.0  0.65362  0.04210  0.26454  1.0000
  C   C40       1.0  0.34638  0.95790  0.73546  1.0000
  C   C41       1.0  0.37188  0.91090  0.29707  1.0000
  C   C42       1.0  0.62812  0.08910  0.70293  1.0000
  C   C43       1.0  0.79135  0.93408  0.90419  1.0000
  C   C44       1.0  0.20865  0.06592  0.09581  1.0000
  C   C45       1.0  0.81804  0.90474  0.99929  1.0000
  C   C46       1.0  0.18196  0.09526  0.00071  1.0000
  C   C47       1.0  0.92892  0.83120  0.01839  1.0000
  C   C48       1.0  0.07108  0.16879  0.98161  1.0000
  C   C49       1.0  0.00640  0.78695  0.93785  1.0000
  C   C50       1.0  0.99360  0.21305  0.06214  1.0000
  C   C51       1.0  0.97172  0.81859  0.84385  1.0000
  C   C52       1.0  0.02827  0.18140  0.15614  1.0000
  N   N1        1.0  0.52544  0.64756  0.63260  1.0000
  N   N2        1.0  0.47456  0.35244  0.36740  1.0000
  N   N3        1.0  0.86778  0.89147  0.82756  1.0000
  N   N4        1.0  0.13222  0.10853  0.17244  1.0000
  Cl  Cl1       1.0  0.77362  0.37784  0.24310  1.0000
  Cl  Cl2       1.0  0.22638  0.62216  0.75690  1.0000
  O   O1        1.0  0.85306  0.32023  0.48169  1.0000
  O   O2        1.0  0.14694  0.67977  0.51831  1.0000
  O   O3        1.0  0.70017  0.20061  0.52677  1.0000
  O   O4        1.0  0.29983  0.79939  0.47323  1.0000
  O   O5        1.0  0.02878  0.11083  0.55730  1.0000
  O   O6        1.0  0.97122  0.88916  0.44270  1.0000
  O   O7        1.0  0.29242  0.18982  0.61855  1.0000
  O   O8        1.0  0.70759  0.81018  0.38145  1.0000
  O   O9        1.0  0.73733  0.43833  0.71681  1.0000
  O   O10       1.0  0.26267  0.56167  0.28319  1.0000
  O   O11       1.0  0.59440  0.12587  0.24613  1.0000
  O   O12       1.0  0.40559  0.87413  0.75387  1.0000
  O   O13       1.0  0.78143  0.04505  0.34165  1.0000
  O   O14       1.0  0.21857  0.95495  0.65835  1.0000
  O   O15       1.0  0.46719  0.98249  0.38851  1.0000
  O   O16       1.0  0.53282  0.01752  0.61149  1.0000
  O   O17       1.0  0.22308  0.87965  0.28836  1.0000
  O   O18       1.0  0.77692  0.12036  0.71164  1.0000
  O   O19       1.0  0.73765  0.95384  0.07630  1.0000
  O   O20       1.0  0.26236  0.04615  0.92370  1.0000
  O   O21       1.0  0.88209  0.90876  0.63484  1.0000
  O   O22       1.0  0.11791  0.09124  0.36516  1.0000
