data_image0
_chemical_formula_structural       Er2Zn2H32C52N4Cl2O22
_chemical_formula_sum              "Er2 Zn2 H32 C52 N4 Cl2 O22"
_cell_length_a       9.58439
_cell_length_b       12.3471
_cell_length_c       12.6274
_cell_angle_alpha    73.9263
_cell_angle_beta     84.2766
_cell_angle_gamma    71.6116

_space_group_name_H-M_alt    "P 1"
_space_group_IT_number       1

loop_
  _space_group_symop_operation_xyz
  'x, y, z'

loop_
  _atom_site_type_symbol
  _atom_site_label
  _atom_site_symmetry_multiplicity
  _atom_site_fract_x
  _atom_site_fract_y
  _atom_site_fract_z
  _atom_site_occupancy
  Er  Er1       1.0  0.79435  0.47113  0.03127  1.0000
  Er  Er2       1.0  0.20564  0.52888  0.96874  1.0000
  Zn  Zn1       1.0  0.66420  0.65180  0.31280  1.0000
  Zn  Zn2       1.0  0.33580  0.34820  0.68720  1.0000
  H   H1        1.0  0.93802  0.25564  0.94031  1.0000
  H   H2        1.0  0.06199  0.74437  0.05969  1.0000
  H   H3        1.0  0.05277  0.32329  0.95570  1.0000
  H   H4        1.0  0.94722  0.67672  0.04431  1.0000
  H   H5        1.0  0.06535  0.05223  0.52857  1.0000
  H   H6        1.0  0.93465  0.94775  0.47142  1.0000
  H   H7        1.0  0.34018  0.21091  0.28265  1.0000
  H   H8        1.0  0.65982  0.78909  0.71735  1.0000
  H   H9        1.0  0.31359  0.04368  0.44069  1.0000
  H   H10       1.0  0.68642  0.95631  0.55930  1.0000
  H   H11       1.0  0.55066  0.25759  0.53025  1.0000
  H   H12       1.0  0.44932  0.74240  0.46975  1.0000
  H   H13       1.0  0.94985  0.33900  0.56235  1.0000
  H   H14       1.0  0.05015  0.66098  0.43765  1.0000
  H   H15       1.0  0.81031  0.45641  0.69375  1.0000
  H   H16       1.0  0.18969  0.54357  0.30625  1.0000
  H   H17       1.0  0.54781  0.46553  0.74036  1.0000
  H   H18       1.0  0.45220  0.53445  0.25965  1.0000
  H   H19       1.0  0.33239  0.82718  0.79184  1.0000
  H   H20       1.0  0.66760  0.17283  0.20817  1.0000
  H   H21       1.0  0.38993  0.01857  0.70157  1.0000
  H   H22       1.0  0.61009  0.98142  0.29844  1.0000
  H   H23       1.0  0.57743  0.07018  0.78228  1.0000
  H   H24       1.0  0.42258  0.92981  0.21771  1.0000
  H   H25       1.0  0.76232  0.12557  0.00401  1.0000
  H   H26       1.0  0.23770  0.87442  0.99599  1.0000
  H   H27       1.0  0.90515  0.87859  0.80276  1.0000
  H   H28       1.0  0.09484  0.12141  0.19722  1.0000
  H   H29       1.0  0.08819  0.98524  0.71283  1.0000
  H   H30       1.0  0.91182  0.01476  0.28715  1.0000
  H   H31       1.0  0.09605  0.16036  0.77212  1.0000
  H   H32       1.0  0.90396  0.83964  0.22787  1.0000
  C   C1        1.0  0.45281  0.66373  0.97773  1.0000
  C   C2        1.0  0.54717  0.33628  0.02228  1.0000
  C   C3        1.0  0.08028  0.12246  0.45846  1.0000
  C   C4        1.0  0.91972  0.87753  0.54153  1.0000
  C   C5        1.0  0.97108  0.31150  0.32804  1.0000
  C   C6        1.0  0.02893  0.68849  0.67196  1.0000
  C   C7        1.0  0.11048  0.30639  0.27871  1.0000
  C   C8        1.0  0.88952  0.69361  0.72129  1.0000
  C   C9        1.0  0.23342  0.21141  0.32127  1.0000
  C   C10       1.0  0.76658  0.78859  0.67872  1.0000
  C   C11       1.0  0.21804  0.11863  0.40930  1.0000
  C   C12       1.0  0.78196  0.88136  0.59070  1.0000
  C   C13       1.0  0.95913  0.21940  0.41862  1.0000
  C   C14       1.0  0.04088  0.78060  0.58138  1.0000
  C   C15       1.0  0.83793  0.41652  0.29026  1.0000
  C   C16       1.0  0.16210  0.58349  0.70975  1.0000
  C   C17       1.0  0.12928  0.39610  0.17617  1.0000
  C   C18       1.0  0.87072  0.60391  0.82383  1.0000
  C   C19       1.0  0.61232  0.30009  0.56508  1.0000
  C   C20       1.0  0.38768  0.69990  0.43492  1.0000
  C   C21       1.0  0.75990  0.28906  0.53718  1.0000
  C   C22       1.0  0.24009  0.71094  0.46281  1.0000
  C   C23       1.0  0.83468  0.34555  0.58288  1.0000
  C   C24       1.0  0.16532  0.65443  0.41713  1.0000
  C   C25       1.0  0.75722  0.41071  0.65587  1.0000
  C   C26       1.0  0.24278  0.58927  0.34414  1.0000
  C   C27       1.0  0.61063  0.41736  0.68187  1.0000
  C   C28       1.0  0.38937  0.58263  0.31813  1.0000
  C   C29       1.0  0.62542  0.91150  0.91549  1.0000
  C   C30       1.0  0.37457  0.08850  0.08452  1.0000
  C   C31       1.0  0.59272  0.80651  0.96731  1.0000
  C   C32       1.0  0.40727  0.19350  0.03270  1.0000
  C   C33       1.0  0.48715  0.77659  0.92138  1.0000
  C   C34       1.0  0.51285  0.22342  0.07862  1.0000
  C   C35       1.0  0.41445  0.85240  0.82530  1.0000
  C   C36       1.0  0.58555  0.14760  0.17471  1.0000
  C   C37       1.0  0.44778  0.95720  0.77500  1.0000
  C   C38       1.0  0.55223  0.04280  0.22501  1.0000
  C   C39       1.0  0.55388  0.98703  0.81948  1.0000
  C   C40       1.0  0.44613  0.01298  0.18052  1.0000
  C   C41       1.0  0.66539  0.72958  0.07376  1.0000
  C   C42       1.0  0.33459  0.27043  0.92625  1.0000
  C   C43       1.0  0.83148  0.09390  0.93832  1.0000
  C   C44       1.0  0.16853  0.90609  0.06168  1.0000
  C   C45       1.0  0.81909  0.99678  0.90836  1.0000
  C   C46       1.0  0.18091  0.00323  0.09163  1.0000
  C   C47       1.0  0.91105  0.95583  0.82571  1.0000
  C   C48       1.0  0.08894  0.04418  0.17428  1.0000
  C   C49       1.0  0.01205  0.01533  0.77610  1.0000
  C   C50       1.0  0.98795  0.98467  0.22389  1.0000
  C   C51       1.0  0.01792  0.11229  0.80980  1.0000
  C   C52       1.0  0.98210  0.88770  0.19018  1.0000
  N   N1        1.0  0.54030  0.36251  0.63639  1.0000
  N   N2        1.0  0.45970  0.63748  0.36361  1.0000
  N   N3        1.0  0.92897  0.15030  0.88974  1.0000
  N   N4        1.0  0.07105  0.84968  0.11025  1.0000
  Cl  Cl1       1.0  0.73519  0.75308  0.40565  1.0000
  Cl  Cl2       1.0  0.26481  0.24692  0.59434  1.0000
  O   O1        1.0  0.81949  0.49788  0.33846  1.0000
  O   O2        1.0  0.18053  0.50213  0.66153  1.0000
  O   O3        1.0  0.75572  0.41686  0.21783  1.0000
  O   O4        1.0  0.24429  0.58317  0.78216  1.0000
  O   O5        1.0  0.02466  0.44450  0.10620  1.0000
  O   O6        1.0  0.97533  0.55552  0.89381  1.0000
  O   O7        1.0  0.25012  0.42032  0.15524  1.0000
  O   O8        1.0  0.74987  0.57968  0.84478  1.0000
  O   O9        1.0  0.82045  0.21985  0.46562  1.0000
  O   O10       1.0  0.17955  0.78017  0.53436  1.0000
  O   O11       1.0  0.60105  0.75162  0.16120  1.0000
  O   O12       1.0  0.39892  0.24838  0.83880  1.0000
  O   O13       1.0  0.78685  0.64869  0.07102  1.0000
  O   O14       1.0  0.21314  0.35132  0.92899  1.0000
  O   O15       1.0  0.54981  0.58083  0.03869  1.0000
  O   O16       1.0  0.45019  0.41918  0.96132  1.0000
  O   O17       1.0  0.72329  0.93952  0.96950  1.0000
  O   O18       1.0  0.27672  0.06048  0.03051  1.0000
  O   O19       1.0  0.95205  0.31769  0.97469  1.0000
  O   O20       1.0  0.04794  0.68232  0.02532  1.0000
  O   O21       1.0  0.32531  0.66004  0.96315  1.0000
  O   O22       1.0  0.67469  0.33997  0.03686  1.0000
