data_image0
_chemical_formula_structural       Dy2Zn2H32C52N4Cl2O22
_chemical_formula_sum              "Dy2 Zn2 H32 C52 N4 Cl2 O22"
_cell_length_a       8.29288
_cell_length_b       12.7659
_cell_length_c       13.2098
_cell_angle_alpha    107.02
_cell_angle_beta     104.476
_cell_angle_gamma    93.6235

_space_group_name_H-M_alt    "P 1"
_space_group_IT_number       1

loop_
  _space_group_symop_operation_xyz
  'x, y, z'

loop_
  _atom_site_type_symbol
  _atom_site_label
  _atom_site_symmetry_multiplicity
  _atom_site_fract_x
  _atom_site_fract_y
  _atom_site_fract_z
  _atom_site_occupancy
  Dy  Dy1       1.0  0.24635  0.48940  0.48894  1.0000
  Dy  Dy2       1.0  0.75365  0.51060  0.51106  1.0000
  Zn  Zn1       1.0  0.32122  0.21703  0.66400  1.0000
  Zn  Zn2       1.0  0.67878  0.78297  0.33600  1.0000
  H   H1        1.0  0.00270  0.58268  0.36292  1.0000
  H   H2        1.0  0.99730  0.41732  0.63708  1.0000
  H   H3        1.0  0.14007  0.58520  0.29675  1.0000
  H   H4        1.0  0.85994  0.41480  0.70325  1.0000
  H   H5        1.0  0.26488  0.21632  0.14779  1.0000
  H   H6        1.0  0.73512  0.78368  0.85221  1.0000
  H   H7        1.0  0.35837  0.14093  0.97618  1.0000
  H   H8        1.0  0.64164  0.85907  0.02383  1.0000
  H   H9        1.0  0.57570  0.25265  0.93905  1.0000
  H   H10       1.0  0.42431  0.74735  0.06095  1.0000
  H   H11       1.0  0.70533  0.49546  0.88954  1.0000
  H   H12       1.0  0.29466  0.50454  0.11046  1.0000
  H   H13       1.0  0.95750  0.31164  0.09215  1.0000
  H   H14       1.0  0.04251  0.68836  0.90786  1.0000
  H   H15       1.0  0.09720  0.23024  0.94135  1.0000
  H   H16       1.0  0.90281  0.76977  0.05865  1.0000
  H   H17       1.0  0.02951  0.28558  0.77364  1.0000
  H   H18       1.0  0.97049  0.71443  0.22636  1.0000
  H   H19       1.0  0.67272  0.19220  0.17944  1.0000
  H   H20       1.0  0.32727  0.80780  0.82056  1.0000
  H   H21       1.0  0.75814  0.04333  0.04082  1.0000
  H   H22       1.0  0.24185  0.95666  0.95918  1.0000
  H   H23       1.0  0.03887  0.98034  0.09571  1.0000
  H   H24       1.0  0.96112  0.01965  0.90429  1.0000
  H   H25       1.0  0.51598  0.95827  0.28062  1.0000
  H   H26       1.0  0.48402  0.04174  0.71938  1.0000
  H   H27       1.0  0.41498  0.75114  0.45535  1.0000
  H   H28       1.0  0.58503  0.24886  0.54466  1.0000
  H   H29       1.0  0.15218  0.83230  0.47664  1.0000
  H   H30       1.0  0.84782  0.16771  0.52336  1.0000
  H   H31       1.0  0.06998  0.98049  0.39456  1.0000
  H   H32       1.0  0.93001  0.01951  0.60544  1.0000
  C   C1        1.0  0.61587  0.38702  0.09132  1.0000
  C   C2        1.0  0.38413  0.61299  0.90868  1.0000
  C   C3        1.0  0.56733  0.42963  0.18805  1.0000
  C   C4        1.0  0.43266  0.57038  0.81195  1.0000
  C   C5        1.0  0.43805  0.36748  0.20618  1.0000
  C   C6        1.0  0.56195  0.63252  0.79382  1.0000
  C   C7        1.0  0.36376  0.26287  0.13074  1.0000
  C   C8        1.0  0.63624  0.73713  0.86926  1.0000
  C   C9        1.0  0.41631  0.22122  0.03661  1.0000
  C   C10       1.0  0.58370  0.77878  0.96339  1.0000
  C   C11       1.0  0.54018  0.28377  0.01517  1.0000
  C   C12       1.0  0.45983  0.71624  0.98483  1.0000
  C   C13       1.0  0.65515  0.54150  0.26670  1.0000
  C   C14       1.0  0.34486  0.45850  0.73330  1.0000
  C   C15       1.0  0.37106  0.41172  0.30222  1.0000
  C   C16       1.0  0.62894  0.58828  0.69778  1.0000
  C   C17       1.0  0.79046  0.43607  0.90216  1.0000
  C   C18       1.0  0.20954  0.56393  0.09784  1.0000
  C   C19       1.0  0.81845  0.40607  0.99763  1.0000
  C   C20       1.0  0.18155  0.59393  0.00237  1.0000
  C   C21       1.0  0.93053  0.33207  0.01555  1.0000
  C   C22       1.0  0.06947  0.66793  0.98445  1.0000
  C   C23       1.0  0.00744  0.28787  0.93332  1.0000
  C   C24       1.0  0.99256  0.71214  0.06668  1.0000
  C   C25       1.0  0.97109  0.32014  0.83897  1.0000
  C   C26       1.0  0.02891  0.67986  0.16103  1.0000
  C   C27       1.0  0.10565  0.09625  0.25950  1.0000
  C   C28       1.0  0.89434  0.90375  0.74050  1.0000
  C   C29       1.0  0.06248  0.18247  0.33633  1.0000
  C   C30       1.0  0.93752  0.81753  0.66366  1.0000
  C   C31       1.0  0.90461  0.21667  0.30571  1.0000
  C   C32       1.0  0.09539  0.78333  0.69429  1.0000
  C   C33       1.0  0.79475  0.16490  0.20044  1.0000
  C   C34       1.0  0.20525  0.83509  0.79956  1.0000
  C   C35       1.0  0.84303  0.08171  0.12365  1.0000
  C   C36       1.0  0.15696  0.91828  0.87635  1.0000
  C   C37       1.0  0.99902  0.04684  0.15312  1.0000
  C   C38       1.0  0.00096  0.95315  0.84688  1.0000
  C   C39       1.0  0.18066  0.22934  0.45144  1.0000
  C   C40       1.0  0.81933  0.77065  0.54856  1.0000
  C   C41       1.0  0.85834  0.31395  0.38162  1.0000
  C   C42       1.0  0.14166  0.68605  0.61837  1.0000
  C   C43       1.0  0.28832  0.98091  0.33217  1.0000
  C   C44       1.0  0.71168  0.01909  0.66784  1.0000
  C   C45       1.0  0.43194  0.93221  0.32329  1.0000
  C   C46       1.0  0.56807  0.06780  0.67672  1.0000
  C   C47       1.0  0.37523  0.81641  0.42141  1.0000
  C   C48       1.0  0.62478  0.18359  0.57859  1.0000
  C   C49       1.0  0.23058  0.86221  0.43311  1.0000
  C   C50       1.0  0.76942  0.13780  0.56689  1.0000
  C   C51       1.0  0.18418  0.94522  0.38754  1.0000
  C   C52       1.0  0.81583  0.05478  0.61246  1.0000
  N   N1        1.0  0.86619  0.39355  0.82375  1.0000
  N   N2        1.0  0.13380  0.60645  0.17624  1.0000
  N   N3        1.0  0.47304  0.85109  0.36644  1.0000
  N   N4        1.0  0.52696  0.14892  0.63357  1.0000
  Cl  Cl1       1.0  0.22525  0.12173  0.75856  1.0000
  Cl  Cl2       1.0  0.77475  0.87827  0.24145  1.0000
  O   O1        1.0  0.73794  0.45485  0.07605  1.0000
  O   O2        1.0  0.26206  0.54516  0.92395  1.0000
  O   O3        1.0  0.78087  0.54435  0.34634  1.0000
  O   O4        1.0  0.21913  0.45566  0.65366  1.0000
  O   O5        1.0  0.59911  0.62504  0.24519  1.0000
  O   O6        1.0  0.40089  0.37496  0.75481  1.0000
  O   O7        1.0  0.46646  0.48344  0.39348  1.0000
  O   O8        1.0  0.53354  0.51655  0.60651  1.0000
  O   O9        1.0  0.21995  0.38152  0.29455  1.0000
  O   O10       1.0  0.78005  0.61848  0.70545  1.0000
  O   O11       1.0  0.26485  0.06438  0.28586  1.0000
  O   O12       1.0  0.73514  0.93562  0.71414  1.0000
  O   O13       1.0  0.14907  0.18191  0.51856  1.0000
  O   O14       1.0  0.85092  0.81809  0.48144  1.0000
  O   O15       1.0  0.30124  0.30612  0.47588  1.0000
  O   O16       1.0  0.69875  0.69387  0.52412  1.0000
  O   O17       1.0  0.97667  0.39464  0.44285  1.0000
  O   O18       1.0  0.02333  0.60535  0.55715  1.0000
  O   O19       1.0  0.70835  0.32046  0.38500  1.0000
  O   O20       1.0  0.29165  0.67954  0.61500  1.0000
  O   O21       1.0  0.12506  0.58832  0.37199  1.0000
  O   O22       1.0  0.87494  0.41168  0.62801  1.0000
