data_image0
_chemical_formula_structural       Cu2H32C40I2N12
_chemical_formula_sum              "Cu2 H32 C40 I2 N12"
_cell_length_a       8.01684
_cell_length_b       10.1055
_cell_length_c       12.0503
_cell_angle_alpha    90.6183
_cell_angle_beta     109.427
_cell_angle_gamma    89.9855

_space_group_name_H-M_alt    "P 1"
_space_group_IT_number       1

loop_
  _space_group_symop_operation_xyz
  'x, y, z'

loop_
  _atom_site_type_symbol
  _atom_site_label
  _atom_site_symmetry_multiplicity
  _atom_site_fract_x
  _atom_site_fract_y
  _atom_site_fract_z
  _atom_site_occupancy
  Cu  Cu1       1.0  0.29352  0.74988  0.00002  1.0000
  Cu  Cu2       1.0  0.70648  0.25012  0.99998  1.0000
  H   H1        1.0  0.71042  0.69150  0.10329  1.0000
  H   H2        1.0  0.60663  0.80852  0.89681  1.0000
  H   H3        1.0  0.28958  0.30850  0.89671  1.0000
  H   H4        1.0  0.39337  0.19148  0.10319  1.0000
  H   H5        1.0  0.28068  0.47529  0.13667  1.0000
  H   H6        1.0  0.14341  0.02486  0.86325  1.0000
  H   H7        1.0  0.71932  0.52471  0.86333  1.0000
  H   H8        1.0  0.85659  0.97514  0.13675  1.0000
  H   H9        1.0  0.95279  0.53247  0.20225  1.0000
  H   H10       1.0  0.75010  0.96756  0.79792  1.0000
  H   H11       1.0  0.04721  0.46753  0.79775  1.0000
  H   H12       1.0  0.24990  0.03244  0.20208  1.0000
  H   H13       1.0  0.88838  0.36871  0.21402  1.0000
  H   H14       1.0  0.67365  0.13132  0.78601  1.0000
  H   H15       1.0  0.11162  0.63129  0.78598  1.0000
  H   H16       1.0  0.32635  0.86868  0.21399  1.0000
  H   H17       1.0  0.82009  0.23525  0.30169  1.0000
  H   H18       1.0  0.51775  0.26465  0.69824  1.0000
  H   H19       1.0  0.17991  0.76475  0.69831  1.0000
  H   H20       1.0  0.48224  0.73535  0.30176  1.0000
  H   H21       1.0  0.82277  0.04603  0.42672  1.0000
  H   H22       1.0  0.39570  0.45394  0.57326  1.0000
  H   H23       1.0  0.17723  0.95397  0.57328  1.0000
  H   H24       1.0  0.60430  0.54606  0.42674  1.0000
  H   H25       1.0  0.93188  0.07180  0.64515  1.0000
  H   H26       1.0  0.28697  0.42828  0.35476  1.0000
  H   H27       1.0  0.06812  0.92820  0.35485  1.0000
  H   H28       1.0  0.71303  0.57172  0.64524  1.0000
  H   H29       1.0  0.03434  0.28506  0.73735  1.0000
  H   H30       1.0  0.29708  0.21493  0.26262  1.0000
  H   H31       1.0  0.96566  0.71494  0.26265  1.0000
  H   H32       1.0  0.70292  0.78507  0.73738  1.0000
  C   C1        1.0  0.62865  0.61843  0.12630  1.0000
  C   C2        1.0  0.50185  0.88161  0.87377  1.0000
  C   C3        1.0  0.37135  0.38157  0.87370  1.0000
  C   C4        1.0  0.49816  0.11839  0.12623  1.0000
  C   C5        1.0  0.41442  0.50612  0.14577  1.0000
  C   C6        1.0  0.26809  0.99394  0.85424  1.0000
  C   C7        1.0  0.58558  0.49388  0.85423  1.0000
  C   C8        1.0  0.73191  0.00606  0.14576  1.0000
  C   C9        1.0  0.87729  0.47054  0.24311  1.0000
  C   C10       1.0  0.63370  0.02947  0.75699  1.0000
  C   C11       1.0  0.12271  0.52946  0.75690  1.0000
  C   C12       1.0  0.36630  0.97053  0.24301  1.0000
  C   C13       1.0  0.94095  0.48499  0.37541  1.0000
  C   C14       1.0  0.56540  0.01499  0.62460  1.0000
  C   C15       1.0  0.05905  0.51501  0.62459  1.0000
  C   C16       1.0  0.43460  0.98500  0.37540  1.0000
  C   C17       1.0  0.87077  0.24846  0.39670  1.0000
  C   C18       1.0  0.47378  0.25150  0.60325  1.0000
  C   C19       1.0  0.12923  0.75155  0.60330  1.0000
  C   C20       1.0  0.52621  0.74849  0.39675  1.0000
  C   C21       1.0  0.87064  0.14209  0.46642  1.0000
  C   C22       1.0  0.40411  0.35791  0.53354  1.0000
  C   C23       1.0  0.12937  0.85791  0.53358  1.0000
  C   C24       1.0  0.59589  0.64210  0.46645  1.0000
  C   C25       1.0  0.93196  0.15696  0.59049  1.0000
  C   C26       1.0  0.34162  0.34311  0.40945  1.0000
  C   C27       1.0  0.06804  0.84304  0.40951  1.0000
  C   C28       1.0  0.65838  0.65689  0.59055  1.0000
  C   C29       1.0  0.99062  0.27754  0.64176  1.0000
  C   C30       1.0  0.34898  0.22250  0.35821  1.0000
  C   C31       1.0  0.00938  0.72246  0.35824  1.0000
  C   C32       1.0  0.65102  0.77750  0.64179  1.0000
  C   C33       1.0  0.93434  0.37553  0.44582  1.0000
  C   C34       1.0  0.48842  0.12445  0.55416  1.0000
  C   C35       1.0  0.06566  0.62447  0.55418  1.0000
  C   C36       1.0  0.51158  0.87555  0.44584  1.0000
  C   C37       1.0  0.00470  0.60918  0.42721  1.0000
  C   C38       1.0  0.57743  0.89080  0.57280  1.0000
  C   C39       1.0  0.99531  0.39082  0.57279  1.0000
  C   C40       1.0  0.42257  0.10920  0.42720  1.0000
  I   I1        1.0  0.97749  0.74997  0.99974  1.0000
  I   I2        1.0  0.02251  0.25004  0.00026  1.0000
  N   N1        1.0  0.45183  0.61904  0.09636  1.0000
  N   N2        1.0  0.35500  0.88108  0.90372  1.0000
  N   N3        1.0  0.54817  0.38096  0.90364  1.0000
  N   N4        1.0  0.64500  0.11892  0.09628  1.0000
  N   N5        1.0  0.69185  0.51011  0.18960  1.0000
  N   N6        1.0  0.50164  0.98982  0.81034  1.0000
  N   N7        1.0  0.30815  0.48989  0.81040  1.0000
  N   N8        1.0  0.49836  0.01018  0.18966  1.0000
  N   N9        1.0  0.55717  0.43700  0.20324  1.0000
  N   N10       1.0  0.35332  0.06297  0.79669  1.0000
  N   N11       1.0  0.44283  0.56300  0.79676  1.0000
  N   N12       1.0  0.64668  0.93704  0.20331  1.0000
