data_image0
_chemical_formula_structural       Zn2H32C40N16O12
_chemical_formula_sum              "Zn2 H32 C40 N16 O12"
_cell_length_a       5.13516
_cell_length_b       12.8221
_cell_length_c       15.8419
_cell_angle_alpha    97.8795
_cell_angle_beta     90.02
_cell_angle_gamma    101.497

_space_group_name_H-M_alt    "P 1"
_space_group_IT_number       1

loop_
  _space_group_symop_operation_xyz
  'x, y, z'

loop_
  _atom_site_type_symbol
  _atom_site_label
  _atom_site_symmetry_multiplicity
  _atom_site_fract_x
  _atom_site_fract_y
  _atom_site_fract_z
  _atom_site_occupancy
  Zn  Zn1       1.0  0.66037  0.00010  0.25013  1.0000
  Zn  Zn2       1.0  0.33963  0.99990  0.74986  1.0000
  H   H1        1.0  0.08274  0.19855  0.18540  1.0000
  H   H2        1.0  0.88586  0.80159  0.31474  1.0000
  H   H3        1.0  0.91722  0.80145  0.81460  1.0000
  H   H4        1.0  0.11416  0.19842  0.68527  1.0000
  H   H5        1.0  0.97489  0.10468  0.42980  1.0000
  H   H6        1.0  0.86913  0.89537  0.07031  1.0000
  H   H7        1.0  0.02513  0.89531  0.57020  1.0000
  H   H8        1.0  0.13084  0.10462  0.92968  1.0000
  H   H9        1.0  0.64788  0.25009  0.43148  1.0000
  H   H10       1.0  0.39741  0.74981  0.06823  1.0000
  H   H11       1.0  0.35213  0.74991  0.56851  1.0000
  H   H12       1.0  0.60260  0.25019  0.93177  1.0000
  H   H13       1.0  0.39151  0.22348  0.50289  1.0000
  H   H14       1.0  0.16694  0.77646  0.99700  1.0000
  H   H15       1.0  0.60851  0.77652  0.49710  1.0000
  H   H16       1.0  0.83304  0.22354  0.00300  1.0000
  H   H17       1.0  0.82160  0.34126  0.35038  1.0000
  H   H18       1.0  0.48029  0.65865  0.14950  1.0000
  H   H19       1.0  0.17838  0.65873  0.64961  1.0000
  H   H20       1.0  0.51972  0.34135  0.85051  1.0000
  H   H21       1.0  0.17301  0.46875  0.29401  1.0000
  H   H22       1.0  0.70486  0.53111  0.20580  1.0000
  H   H23       1.0  0.82700  0.53124  0.70599  1.0000
  H   H24       1.0  0.29516  0.46890  0.79420  1.0000
  H   H25       1.0  0.22975  0.66569  0.34399  1.0000
  H   H26       1.0  0.56507  0.33417  0.15591  1.0000
  H   H27       1.0  0.77027  0.33432  0.65600  1.0000
  H   H28       1.0  0.43494  0.66584  0.84410  1.0000
  H   H29       1.0  0.93508  0.73279  0.44951  1.0000
  H   H30       1.0  0.20310  0.26714  0.05055  1.0000
  H   H31       1.0  0.06491  0.26721  0.55048  1.0000
  H   H32       1.0  0.79691  0.73287  0.94946  1.0000
  C   C1        1.0  0.11199  0.19411  0.25234  1.0000
  C   C2        1.0  0.91901  0.80604  0.24778  1.0000
  C   C3        1.0  0.88799  0.80590  0.74766  1.0000
  C   C4        1.0  0.08101  0.19397  0.75222  1.0000
  C   C5        1.0  0.04912  0.14508  0.37619  1.0000
  C   C6        1.0  0.90368  0.85497  0.12390  1.0000
  C   C7        1.0  0.95088  0.85492  0.62381  1.0000
  C   C8        1.0  0.09630  0.14503  0.87609  1.0000
  C   C9        1.0  0.45484  0.26849  0.45003  1.0000
  C   C10       1.0  0.18590  0.73150  0.04986  1.0000
  C   C11       1.0  0.54517  0.73151  0.54997  1.0000
  C   C12       1.0  0.81410  0.26850  0.95015  1.0000
  C   C13       1.0  0.47532  0.38776  0.47436  1.0000
  C   C14       1.0  0.08736  0.61225  0.02558  1.0000
  C   C15       1.0  0.52465  0.61225  0.52564  1.0000
  C   C16       1.0  0.91263  0.38775  0.97443  1.0000
  C   C17       1.0  0.67130  0.46070  0.43793  1.0000
  C   C18       1.0  0.21060  0.53927  0.06204  1.0000
  C   C19       1.0  0.32867  0.53930  0.56207  1.0000
  C   C20       1.0  0.78938  0.46073  0.93797  1.0000
  C   C21       1.0  0.84643  0.42625  0.37468  1.0000
  C   C22       1.0  0.42029  0.57367  0.12523  1.0000
  C   C23       1.0  0.15357  0.57375  0.62532  1.0000
  C   C24       1.0  0.57972  0.42633  0.87477  1.0000
  C   C25       1.0  0.04124  0.49774  0.34159  1.0000
  C   C26       1.0  0.54396  0.50214  0.15829  1.0000
  C   C27       1.0  0.95876  0.50226  0.65840  1.0000
  C   C28       1.0  0.45604  0.49787  0.84173  1.0000
  C   C29       1.0  0.07284  0.60942  0.36990  1.0000
  C   C30       1.0  0.46414  0.39046  0.13002  1.0000
  C   C31       1.0  0.92717  0.39058  0.63010  1.0000
  C   C32       1.0  0.53588  0.60955  0.86998  1.0000
  C   C33       1.0  0.90505  0.64655  0.42901  1.0000
  C   C34       1.0  0.25900  0.35337  0.07102  1.0000
  C   C35       1.0  0.09494  0.35345  0.57099  1.0000
  C   C36       1.0  0.74099  0.64663  0.92900  1.0000
  C   C37       1.0  0.30157  0.42498  0.53512  1.0000
  C   C38       1.0  0.87635  0.57504  0.96487  1.0000
  C   C39       1.0  0.69844  0.57502  0.46488  1.0000
  C   C40       1.0  0.12366  0.42496  0.03514  1.0000
  N   N1        1.0  0.94358  0.12547  0.29659  1.0000
  N   N2        1.0  0.81849  0.87465  0.20358  1.0000
  N   N3        1.0  0.05642  0.87453  0.70341  1.0000
  N   N4        1.0  0.18151  0.12534  0.79642  1.0000
  N   N5        1.0  0.26756  0.22247  0.37844  1.0000
  N   N6        1.0  0.04513  0.77758  0.12156  1.0000
  N   N7        1.0  0.73244  0.77753  0.62155  1.0000
  N   N8        1.0  0.95487  0.22242  0.87844  1.0000
  N   N9        1.0  0.31153  0.25444  0.30019  1.0000
  N   N10       1.0  0.05794  0.74563  0.19980  1.0000
  N   N11       1.0  0.68846  0.74556  0.69981  1.0000
  N   N12       1.0  0.94208  0.25438  0.80020  1.0000
  N   N13       1.0  0.47128  0.07326  0.10403  1.0000
  N   N14       1.0  0.39893  0.92657  0.39618  1.0000
  N   N15       1.0  0.52870  0.92672  0.89597  1.0000
  N   N16       1.0  0.60107  0.07344  0.60382  1.0000
  O   O1        1.0  0.39238  0.00820  0.16027  1.0000
  O   O2        1.0  0.38492  0.99191  0.34014  1.0000
  O   O3        1.0  0.60760  0.99179  0.83973  1.0000
  O   O4        1.0  0.61506  0.00810  0.65986  1.0000
  O   O5        1.0  0.70603  0.12504  0.10931  1.0000
  O   O6        1.0  0.58214  0.87481  0.39082  1.0000
  O   O7        1.0  0.29396  0.87494  0.89068  1.0000
  O   O8        1.0  0.41787  0.12520  0.60918  1.0000
  O   O9        1.0  0.30579  0.08007  0.04875  1.0000
  O   O10       1.0  0.22653  0.91951  0.45137  1.0000
  O   O11       1.0  0.69420  0.91992  0.95125  1.0000
  O   O12       1.0  0.77348  0.08050  0.54863  1.0000
