data_image0
_chemical_formula_structural       Hg2H32C40Br4N12
_chemical_formula_sum              "Hg2 H32 C40 Br4 N12"
_cell_length_a       5.14154
_cell_length_b       12.425
_cell_length_c       15.7847
_cell_angle_alpha    94.3742
_cell_angle_beta     89.9948
_cell_angle_gamma    101.946

_space_group_name_H-M_alt    "P 1"
_space_group_IT_number       1

loop_
  _space_group_symop_operation_xyz
  'x, y, z'

loop_
  _atom_site_type_symbol
  _atom_site_label
  _atom_site_symmetry_multiplicity
  _atom_site_fract_x
  _atom_site_fract_y
  _atom_site_fract_z
  _atom_site_occupancy
  Hg  Hg1       1.0  0.51037  0.99997  0.75007  1.0000
  Hg  Hg2       1.0  0.48962  0.00003  0.24993  1.0000
  H   H1        1.0  0.84674  0.90227  0.56221  1.0000
  H   H2        1.0  0.94458  0.09769  0.93773  1.0000
  H   H3        1.0  0.15326  0.09773  0.43779  1.0000
  H   H4        1.0  0.05542  0.90231  0.06227  1.0000
  H   H5        1.0  0.81822  0.78183  0.80471  1.0000
  H   H6        1.0  0.03650  0.21825  0.69528  1.0000
  H   H7        1.0  0.18178  0.21817  0.19529  1.0000
  H   H8        1.0  0.96350  0.78175  0.30472  1.0000
  H   H9        1.0  0.38351  0.75706  0.56724  1.0000
  H   H10       1.0  0.62651  0.24292  0.93274  1.0000
  H   H11       1.0  0.61650  0.24294  0.43276  1.0000
  H   H12       1.0  0.37349  0.75708  0.06726  1.0000
  H   H13       1.0  0.15870  0.78605  0.49315  1.0000
  H   H14       1.0  0.37268  0.21388  0.00683  1.0000
  H   H15       1.0  0.84130  0.21395  0.50685  1.0000
  H   H16       1.0  0.62732  0.78612  0.99317  1.0000
  H   H17       1.0  0.46636  0.65903  0.64844  1.0000
  H   H18       1.0  0.80753  0.34097  0.85160  1.0000
  H   H19       1.0  0.53364  0.34097  0.35156  1.0000
  H   H20       1.0  0.19247  0.65903  0.14840  1.0000
  H   H21       1.0  0.69571  0.52733  0.70708  1.0000
  H   H22       1.0  0.16840  0.47270  0.79287  1.0000
  H   H23       1.0  0.30429  0.47267  0.29292  1.0000
  H   H24       1.0  0.83160  0.52730  0.20713  1.0000
  H   H25       1.0  0.56392  0.32597  0.65993  1.0000
  H   H26       1.0  0.23786  0.67407  0.83999  1.0000
  H   H27       1.0  0.43608  0.67403  0.34007  1.0000
  H   H28       1.0  0.76214  0.32593  0.16001  1.0000
  H   H29       1.0  0.21059  0.26018  0.55509  1.0000
  H   H30       1.0  0.95045  0.73987  0.94485  1.0000
  H   H31       1.0  0.78941  0.73982  0.44491  1.0000
  H   H32       1.0  0.04955  0.26013  0.05515  1.0000
  C   C1        1.0  0.87353  0.85614  0.61613  1.0000
  C   C2        1.0  0.01755  0.14384  0.88382  1.0000
  C   C3        1.0  0.12647  0.14386  0.38387  1.0000
  C   C4        1.0  0.98244  0.85616  0.11618  1.0000
  C   C5        1.0  0.86411  0.79391  0.73865  1.0000
  C   C6        1.0  0.07033  0.20616  0.76133  1.0000
  C   C7        1.0  0.13589  0.20609  0.26135  1.0000
  C   C8        1.0  0.92967  0.79384  0.23867  1.0000
  C   C9        1.0  0.17411  0.73707  0.54710  1.0000
  C   C10       1.0  0.43713  0.26292  0.95289  1.0000
  C   C11       1.0  0.82589  0.26293  0.45290  1.0000
  C   C12       1.0  0.56287  0.73708  0.04711  1.0000
  C   C13       1.0  0.08202  0.61491  0.52407  1.0000
  C   C14       1.0  0.46721  0.38508  0.97596  1.0000
  C   C15       1.0  0.91798  0.38509  0.47593  1.0000
  C   C16       1.0  0.53279  0.61492  0.02404  1.0000
  C   C17       1.0  0.20640  0.53893  0.56196  1.0000
  C   C18       1.0  0.66751  0.46108  0.93805  1.0000
  C   C19       1.0  0.79361  0.46107  0.43804  1.0000
  C   C20       1.0  0.33249  0.53892  0.06195  1.0000
  C   C21       1.0  0.41166  0.57260  0.62525  1.0000
  C   C22       1.0  0.83912  0.42740  0.87476  1.0000
  C   C23       1.0  0.58834  0.42740  0.37475  1.0000
  C   C24       1.0  0.16088  0.57260  0.12524  1.0000
  C   C25       1.0  0.53807  0.49864  0.65954  1.0000
  C   C26       1.0  0.03942  0.50139  0.84043  1.0000
  C   C27       1.0  0.46194  0.50136  0.34046  1.0000
  C   C28       1.0  0.96058  0.49861  0.15957  1.0000
  C   C29       1.0  0.46394  0.38489  0.63281  1.0000
  C   C30       1.0  0.07894  0.61514  0.86713  1.0000
  C   C31       1.0  0.53607  0.61511  0.36719  1.0000
  C   C32       1.0  0.92106  0.38486  0.13287  1.0000
  C   C33       1.0  0.26252  0.34825  0.57391  1.0000
  C   C34       1.0  0.91419  0.65179  0.92604  1.0000
  C   C35       1.0  0.73748  0.65175  0.42609  1.0000
  C   C36       1.0  0.08581  0.34821  0.07396  1.0000
  C   C37       1.0  0.87477  0.57782  0.46345  1.0000
  C   C38       1.0  0.29699  0.42215  0.03658  1.0000
  C   C39       1.0  0.12523  0.42218  0.53655  1.0000
  C   C40       1.0  0.70301  0.57785  0.96342  1.0000
  Br  Br1       1.0  0.44068  0.07076  0.60691  1.0000
  Br  Br2       1.0  0.37042  0.92954  0.89339  1.0000
  Br  Br3       1.0  0.55932  0.92924  0.39309  1.0000
  Br  Br4       1.0  0.62958  0.07046  0.10661  1.0000
  N   N1        1.0  0.76954  0.86715  0.69323  1.0000
  N   N2        1.0  0.90258  0.13285  0.80673  1.0000
  N   N3        1.0  0.23046  0.13285  0.30677  1.0000
  N   N4        1.0  0.09742  0.86715  0.19327  1.0000
  N   N5        1.0  0.02186  0.77869  0.61621  1.0000
  N   N6        1.0  0.24328  0.22135  0.88377  1.0000
  N   N7        1.0  0.97813  0.22131  0.38379  1.0000
  N   N8        1.0  0.75672  0.77865  0.11623  1.0000
  N   N9        1.0  0.01911  0.73834  0.69405  1.0000
  N   N10       1.0  0.28086  0.26175  0.80595  1.0000
  N   N11       1.0  0.98089  0.26166  0.30595  1.0000
  N   N12       1.0  0.71914  0.73825  0.19405  1.0000
