data_image0
_chemical_formula_structural       Ag2H30C34S2N8O10
_chemical_formula_sum              "Ag2 H30 C34 S2 N8 O10"
_cell_length_a       8.29328
_cell_length_b       10.2716
_cell_length_c       11.3845
_cell_angle_alpha    79.3782
_cell_angle_beta     77.7098
_cell_angle_gamma    83.4297

_space_group_name_H-M_alt    "P 1"
_space_group_IT_number       1

loop_
  _space_group_symop_operation_xyz
  'x, y, z'

loop_
  _atom_site_type_symbol
  _atom_site_label
  _atom_site_symmetry_multiplicity
  _atom_site_fract_x
  _atom_site_fract_y
  _atom_site_fract_z
  _atom_site_occupancy
  Ag  Ag1       1.0  0.32936  0.41214  0.53794  1.0000
  Ag  Ag2       1.0  0.67063  0.58788  0.46206  1.0000
  H   H1        1.0  0.79682  0.01902  0.08392  1.0000
  H   H2        1.0  0.20318  0.98099  0.91608  1.0000
  H   H3        1.0  0.68655  0.17303  0.05730  1.0000
  H   H4        1.0  0.31345  0.82699  0.94268  1.0000
  H   H5        1.0  0.84866  0.80927  0.99504  1.0000
  H   H6        1.0  0.15134  0.19072  0.00496  1.0000
  H   H7        1.0  0.96446  0.65421  0.02972  1.0000
  H   H8        1.0  0.03555  0.34578  0.97029  1.0000
  H   H9        1.0  0.44042  0.45322  0.76957  1.0000
  H   H10       1.0  0.55958  0.54679  0.23041  1.0000
  H   H11       1.0  0.58695  0.31756  0.92657  1.0000
  H   H12       1.0  0.41304  0.68245  0.07343  1.0000
  H   H13       1.0  0.55698  0.97443  0.76400  1.0000
  H   H14       1.0  0.44303  0.02557  0.23599  1.0000
  H   H15       1.0  0.41050  0.12362  0.61505  1.0000
  H   H16       1.0  0.58949  0.87638  0.38495  1.0000
  H   H17       1.0  0.20014  0.36989  0.31130  1.0000
  H   H18       1.0  0.79986  0.63011  0.68870  1.0000
  H   H19       1.0  0.04869  0.50457  0.15859  1.0000
  H   H20       1.0  0.95133  0.49542  0.84140  1.0000
  H   H21       1.0  0.03465  0.83906  0.34165  1.0000
  H   H22       1.0  0.96534  0.16094  0.65835  1.0000
  H   H23       1.0  0.18572  0.68771  0.49138  1.0000
  H   H24       1.0  0.81426  0.31229  0.50862  1.0000
  H   H25       1.0  0.65775  0.01801  0.51812  1.0000
  H   H26       1.0  0.34226  0.98196  0.48188  1.0000
  H   H27       1.0  0.98864  0.24715  0.23188  1.0000
  H   H28       1.0  0.01136  0.75284  0.76813  1.0000
  H   H29       1.0  0.76979  0.86075  0.67925  1.0000
  H   H30       1.0  0.23021  0.13923  0.32074  1.0000
  C   C1        1.0  0.46917  0.34644  0.77286  1.0000
  C   C2        1.0  0.53082  0.65357  0.22714  1.0000
  C   C3        1.0  0.55117  0.26940  0.85937  1.0000
  C   C4        1.0  0.44881  0.73060  0.14064  1.0000
  C   C5        1.0  0.58823  0.13348  0.85590  1.0000
  C   C6        1.0  0.41176  0.86653  0.14411  1.0000
  C   C7        1.0  0.53477  0.07993  0.76806  1.0000
  C   C8        1.0  0.46522  0.92007  0.23195  1.0000
  C   C9        1.0  0.45297  0.16246  0.68497  1.0000
  C   C10       1.0  0.54702  0.83755  0.31503  1.0000
  C   C11       1.0  0.68698  0.04048  0.93746  1.0000
  C   C12       1.0  0.31301  0.95952  0.06254  1.0000
  C   C13       1.0  0.16071  0.47413  0.31505  1.0000
  C   C14       1.0  0.83928  0.52587  0.68495  1.0000
  C   C15       1.0  0.07739  0.55149  0.22929  1.0000
  C   C16       1.0  0.92261  0.44851  0.77070  1.0000
  C   C17       1.0  0.03138  0.68538  0.23754  1.0000
  C   C18       1.0  0.96861  0.31461  0.76246  1.0000
  C   C19       1.0  0.06940  0.73526  0.33366  1.0000
  C   C20       1.0  0.93060  0.26473  0.66632  1.0000
  C   C21       1.0  0.15160  0.65230  0.41629  1.0000
  C   C22       1.0  0.84840  0.34770  0.58370  1.0000
  C   C23       1.0  0.94272  0.78223  0.15168  1.0000
  C   C24       1.0  0.05728  0.21778  0.84832  1.0000
  C   C25       1.0  0.80863  0.14255  0.37294  1.0000
  C   C26       1.0  0.19138  0.85744  0.62707  1.0000
  C   C27       1.0  0.78212  0.04585  0.47533  1.0000
  C   C28       1.0  0.21789  0.95416  0.52467  1.0000
  C   C29       1.0  0.91771  0.98179  0.52753  1.0000
  C   C30       1.0  0.08227  0.01821  0.47249  1.0000
  C   C31       1.0  0.97138  0.17485  0.31571  1.0000
  C   C32       1.0  0.02863  0.82514  0.68431  1.0000
  C   C33       1.0  0.89507  0.88533  0.63540  1.0000
  C   C34       1.0  0.10493  0.11468  0.36461  1.0000
  S   S1        1.0  0.63789  0.24325  0.32067  1.0000
  S   S2        1.0  0.36212  0.75674  0.67934  1.0000
  N   N1        1.0  0.42306  0.29409  0.68566  1.0000
  N   N2        1.0  0.57692  0.70591  0.31434  1.0000
  N   N3        1.0  0.19736  0.52361  0.40713  1.0000
  N   N4        1.0  0.80265  0.47639  0.59286  1.0000
  N   N5        1.0  0.73077  0.08536  0.02790  1.0000
  N   N6        1.0  0.26923  0.91465  0.97210  1.0000
  N   N7        1.0  0.91430  0.74268  0.05258  1.0000
  N   N8        1.0  0.08570  0.25732  0.94742  1.0000
  O   O1        1.0  0.72681  0.92420  0.91570  1.0000
  O   O2        1.0  0.27321  0.07582  0.08429  1.0000
  O   O3        1.0  0.89703  0.89534  0.17743  1.0000
  O   O4        1.0  0.10298  0.10466  0.82256  1.0000
  O   O5        1.0  0.49231  0.16609  0.36433  1.0000
  O   O6        1.0  0.50770  0.83390  0.63569  1.0000
  O   O7        1.0  0.62481  0.36207  0.38001  1.0000
  O   O8        1.0  0.37523  0.63792  0.62000  1.0000
  O   O9        1.0  0.68495  0.27734  0.18724  1.0000
  O   O10       1.0  0.31505  0.72266  0.81276  1.0000
