data_image0
_chemical_formula_structural       Cu2H28C52N8O8
_chemical_formula_sum              "Cu2 H28 C52 N8 O8"
_cell_length_a       9.20661
_cell_length_b       10.6272
_cell_length_c       11.6985
_cell_angle_alpha    70.1192
_cell_angle_beta     89.7354
_cell_angle_gamma    75.1313

_space_group_name_H-M_alt    "P 1"
_space_group_IT_number       1

loop_
  _space_group_symop_operation_xyz
  'x, y, z'

loop_
  _atom_site_type_symbol
  _atom_site_label
  _atom_site_symmetry_multiplicity
  _atom_site_fract_x
  _atom_site_fract_y
  _atom_site_fract_z
  _atom_site_occupancy
  Cu  Cu1       1.0  0.81326  0.24944  0.94729  1.0000
  Cu  Cu2       1.0  0.18674  0.75056  0.05271  1.0000
  H   H1        1.0  0.88627  0.71537  0.85806  1.0000
  H   H2        1.0  0.11374  0.28463  0.14194  1.0000
  H   H3        1.0  0.06910  0.70826  0.69967  1.0000
  H   H4        1.0  0.93091  0.29174  0.30033  1.0000
  H   H5        1.0  0.04895  0.28571  0.76206  1.0000
  H   H6        1.0  0.95105  0.71429  0.23794  1.0000
  H   H7        1.0  0.22544  0.71200  0.33877  1.0000
  H   H8        1.0  0.77456  0.28799  0.66123  1.0000
  H   H9        1.0  0.54184  0.53517  0.14548  1.0000
  H   H10       1.0  0.45815  0.46483  0.85451  1.0000
  H   H11       1.0  0.59970  0.30285  0.31167  1.0000
  H   H12       1.0  0.40030  0.69715  0.68833  1.0000
  H   H13       1.0  0.46223  0.27588  0.50191  1.0000
  H   H14       1.0  0.53778  0.72412  0.49809  1.0000
  H   H15       1.0  0.73461  0.78708  0.02876  1.0000
  H   H16       1.0  0.26539  0.21292  0.97124  1.0000
  H   H17       1.0  0.55041  0.79497  0.18655  1.0000
  H   H18       1.0  0.44959  0.20503  0.81346  1.0000
  H   H19       1.0  0.58594  0.20936  0.13805  1.0000
  H   H20       1.0  0.41405  0.79064  0.86195  1.0000
  H   H21       1.0  0.25741  0.81263  0.48356  1.0000
  H   H22       1.0  0.74259  0.18737  0.51644  1.0000
  H   H23       1.0  0.04290  0.00083  0.71844  1.0000
  H   H24       1.0  0.95710  0.99916  0.28156  1.0000
  H   H25       1.0  0.10016  0.22748  0.59846  1.0000
  H   H26       1.0  0.89984  0.77251  0.40154  1.0000
  H   H27       1.0  0.25301  0.23775  0.41991  1.0000
  H   H28       1.0  0.74699  0.76225  0.58009  1.0000
  C   C1        1.0  0.75680  0.50138  0.98300  1.0000
  C   C2        1.0  0.24321  0.49863  0.01700  1.0000
  C   C3        1.0  0.87075  0.50741  0.88937  1.0000
  C   C4        1.0  0.12926  0.49259  0.11063  1.0000
  C   C5        1.0  0.92370  0.62308  0.83284  1.0000
  C   C6        1.0  0.07631  0.37692  0.16716  1.0000
  C   C7        1.0  0.02570  0.61858  0.74517  1.0000
  C   C8        1.0  0.97431  0.38142  0.25484  1.0000
  C   C9        1.0  0.07190  0.49728  0.71500  1.0000
  C   C10       1.0  0.92811  0.50272  0.28501  1.0000
  C   C11       1.0  0.01619  0.38343  0.77889  1.0000
  C   C12       1.0  0.98382  0.61657  0.22111  1.0000
  C   C13       1.0  0.16746  0.48995  0.62113  1.0000
  C   C14       1.0  0.83254  0.51005  0.37888  1.0000
  C   C15       1.0  0.24611  0.48676  0.53729  1.0000
  C   C16       1.0  0.75390  0.51324  0.46271  1.0000
  C   C17       1.0  0.33179  0.49221  0.43584  1.0000
  C   C18       1.0  0.66821  0.50779  0.56416  1.0000
  C   C19       1.0  0.30926  0.61893  0.33720  1.0000
  C   C20       1.0  0.69074  0.38107  0.66280  1.0000
  C   C21       1.0  0.48358  0.51987  0.22867  1.0000
  C   C22       1.0  0.51642  0.48013  0.77132  1.0000
  C   C23       1.0  0.51498  0.39015  0.32189  1.0000
  C   C24       1.0  0.48502  0.60985  0.67811  1.0000
  C   C25       1.0  0.43924  0.37536  0.42677  1.0000
  C   C26       1.0  0.56076  0.62463  0.57323  1.0000
  C   C27       1.0  0.87309  0.99625  0.91229  1.0000
  C   C28       1.0  0.12691  0.00376  0.08771  1.0000
  C   C29       1.0  0.75956  0.99043  0.00573  1.0000
  C   C30       1.0  0.24044  0.00957  0.99427  1.0000
  C   C31       1.0  0.70151  0.87695  0.05777  1.0000
  C   C32       1.0  0.29849  0.12305  0.94223  1.0000
  C   C33       1.0  0.59936  0.88150  0.14519  1.0000
  C   C34       1.0  0.40064  0.11850  0.85481  1.0000
  C   C35       1.0  0.55583  0.00091  0.17829  1.0000
  C   C36       1.0  0.44417  0.99909  0.82171  1.0000
  C   C37       1.0  0.61748  0.11266  0.11943  1.0000
  C   C38       1.0  0.38251  0.88734  0.88057  1.0000
  C   C39       1.0  0.45371  0.01069  0.26719  1.0000
  C   C40       1.0  0.54629  0.98931  0.73281  1.0000
  C   C41       1.0  0.36697  0.01946  0.34512  1.0000
  C   C42       1.0  0.63303  0.98054  0.65488  1.0000
  C   C43       1.0  0.27243  0.02400  0.43980  1.0000
  C   C44       1.0  0.72757  0.97600  0.56020  1.0000
  C   C45       1.0  0.22661  0.90555  0.50868  1.0000
  C   C46       1.0  0.77339  0.09445  0.49132  1.0000
  C   C47       1.0  0.10565  0.01178  0.63763  1.0000
  C   C48       1.0  0.89435  0.98822  0.36237  1.0000
  C   C49       1.0  0.13920  0.13641  0.57192  1.0000
  C   C50       1.0  0.86080  0.86359  0.42808  1.0000
  C   C51       1.0  0.22380  0.14294  0.47256  1.0000
  C   C52       1.0  0.77620  0.85706  0.52744  1.0000
  N   N1        1.0  0.91867  0.39017  0.86266  1.0000
  N   N2        1.0  0.08133  0.60983  0.13734  1.0000
  N   N3        1.0  0.38191  0.63257  0.23632  1.0000
  N   N4        1.0  0.61809  0.36743  0.76367  1.0000
  N   N5        1.0  0.71632  0.10514  0.03680  1.0000
  N   N6        1.0  0.28368  0.89486  0.96320  1.0000
  N   N7        1.0  0.14782  0.89829  0.60555  1.0000
  N   N8        1.0  0.85218  0.10171  0.39445  1.0000
  O   O1        1.0  0.72295  0.38368  0.02706  1.0000
  O   O2        1.0  0.27705  0.61633  0.97294  1.0000
  O   O3        1.0  0.70247  0.60468  0.01243  1.0000
  O   O4        1.0  0.29753  0.39532  0.98757  1.0000
  O   O5        1.0  0.90906  0.11326  0.86944  1.0000
  O   O6        1.0  0.09094  0.88674  0.13056  1.0000
  O   O7        1.0  0.92818  0.89335  0.88233  1.0000
  O   O8        1.0  0.07182  0.10664  0.11767  1.0000
