data_image0
_chemical_formula_structural       Zn2H24C30N10O12
_chemical_formula_sum              "Zn2 H24 C30 N10 O12"
_cell_length_a       10.8273
_cell_length_b       11.3568
_cell_length_c       11.635
_cell_angle_alpha    113.586
_cell_angle_beta     102.527
_cell_angle_gamma    97.09

_space_group_name_H-M_alt    "P 1"
_space_group_IT_number       1

loop_
  _space_group_symop_operation_xyz
  'x, y, z'

loop_
  _atom_site_type_symbol
  _atom_site_label
  _atom_site_symmetry_multiplicity
  _atom_site_fract_x
  _atom_site_fract_y
  _atom_site_fract_z
  _atom_site_occupancy
  Zn  Zn1       1.0  0.24801  0.21783  0.38889  1.0000
  Zn  Zn2       1.0  0.75199  0.78217  0.61111  1.0000
  H   H1        1.0  0.51719  0.27456  0.35841  1.0000
  H   H2        1.0  0.48281  0.72544  0.64160  1.0000
  H   H3        1.0  0.63876  0.17445  0.20217  1.0000
  H   H4        1.0  0.36125  0.82556  0.79784  1.0000
  H   H5        1.0  0.26959  0.91343  0.92862  1.0000
  H   H6        1.0  0.73042  0.08658  0.07138  1.0000
  H   H7        1.0  0.16548  0.02491  0.09638  1.0000
  H   H8        1.0  0.83452  0.97509  0.90361  1.0000
  H   H9        1.0  0.07900  0.03354  0.45613  1.0000
  H   H10       1.0  0.92100  0.96645  0.54387  1.0000
  H   H11       1.0  0.06298  0.81345  0.46033  1.0000
  H   H12       1.0  0.93702  0.18654  0.53967  1.0000
  H   H13       1.0  0.40821  0.78776  0.32994  1.0000
  H   H14       1.0  0.59179  0.21223  0.67006  1.0000
  H   H15       1.0  0.41361  0.01137  0.34015  1.0000
  H   H16       1.0  0.58639  0.98863  0.65985  1.0000
  H   H17       1.0  0.17566  0.46616  0.55142  1.0000
  H   H18       1.0  0.82435  0.53384  0.44859  1.0000
  H   H19       1.0  0.16482  0.68797  0.56075  1.0000
  H   H20       1.0  0.83519  0.31203  0.43926  1.0000
  H   H21       1.0  0.29078  0.56771  0.21008  1.0000
  H   H22       1.0  0.70921  0.43228  0.78991  1.0000
  H   H23       1.0  0.29163  0.35140  0.21393  1.0000
  H   H24       1.0  0.70836  0.64859  0.78607  1.0000
  C   C1        1.0  0.46639  0.19439  0.26143  1.0000
  C   C2        1.0  0.53361  0.80561  0.73858  1.0000
  C   C3        1.0  0.53387  0.13723  0.17269  1.0000
  C   C4        1.0  0.46614  0.86278  0.82731  1.0000
  C   C5        1.0  0.46615  0.03253  0.04893  1.0000
  C   C6        1.0  0.53386  0.96748  0.95107  1.0000
  C   C7        1.0  0.33095  0.99230  0.02212  1.0000
  C   C8        1.0  0.66905  0.00770  0.97788  1.0000
  C   C9        1.0  0.27043  0.05456  0.11600  1.0000
  C   C10       1.0  0.72957  0.94545  0.88400  1.0000
  C   C11       1.0  0.15014  0.97552  0.43024  1.0000
  C   C12       1.0  0.84986  0.02448  0.56976  1.0000
  C   C13       1.0  0.14141  0.85260  0.43094  1.0000
  C   C14       1.0  0.85858  0.14740  0.56906  1.0000
  C   C15       1.0  0.23300  0.78008  0.39144  1.0000
  C   C16       1.0  0.76699  0.21991  0.60856  1.0000
  C   C17       1.0  0.33272  0.83850  0.35794  1.0000
  C   C18       1.0  0.66728  0.16149  0.64206  1.0000
  C   C19       1.0  0.33577  0.96307  0.36331  1.0000
  C   C20       1.0  0.66423  0.03692  0.63669  1.0000
  C   C21       1.0  0.19895  0.49313  0.47727  1.0000
  C   C22       1.0  0.80105  0.50687  0.52274  1.0000
  C   C23       1.0  0.19281  0.61615  0.48123  1.0000
  C   C24       1.0  0.80720  0.38385  0.51878  1.0000
  C   C25       1.0  0.22798  0.64739  0.38586  1.0000
  C   C26       1.0  0.77202  0.35261  0.61414  1.0000
  C   C27       1.0  0.26273  0.54983  0.28704  1.0000
  C   C28       1.0  0.73726  0.45016  0.71296  1.0000
  C   C29       1.0  0.26465  0.42885  0.28928  1.0000
  C   C30       1.0  0.73535  0.57115  0.71072  1.0000
  N   N1        1.0  0.38779  0.33106  0.64204  1.0000
  N   N2        1.0  0.61221  0.66894  0.35796  1.0000
  N   N3        1.0  0.97235  0.17344  0.26532  1.0000
  N   N4        1.0  0.02765  0.82657  0.73468  1.0000
  N   N5        1.0  0.33649  0.15392  0.23463  1.0000
  N   N6        1.0  0.66351  0.84608  0.76537  1.0000
  N   N7        1.0  0.24482  0.03036  0.39609  1.0000
  N   N8        1.0  0.75518  0.96964  0.60390  1.0000
  N   N9        1.0  0.23571  0.40088  0.38373  1.0000
  N   N10       1.0  0.76430  0.59912  0.61628  1.0000
  O   O1        1.0  0.43516  0.30092  0.54283  1.0000
  O   O2        1.0  0.56484  0.69908  0.45717  1.0000
  O   O3        1.0  0.26423  0.31095  0.61550  1.0000
  O   O4        1.0  0.73577  0.68905  0.38450  1.0000
  O   O5        1.0  0.46087  0.37573  0.75537  1.0000
  O   O6        1.0  0.53913  0.62427  0.24463  1.0000
  O   O7        1.0  0.04663  0.19145  0.37781  1.0000
  O   O8        1.0  0.95337  0.80856  0.62219  1.0000
  O   O9        1.0  0.01547  0.14117  0.16823  1.0000
  O   O10       1.0  0.98453  0.85882  0.83176  1.0000
  O   O11       1.0  0.85909  0.19041  0.25940  1.0000
  O   O12       1.0  0.14091  0.80961  0.74060  1.0000
