data_image0
_chemical_formula_structural       Ni2H28C20N4O10
_chemical_formula_sum              "Ni2 H28 C20 N4 O10"
_cell_length_a       5.90044
_cell_length_b       9.26183
_cell_length_c       11.8309
_cell_angle_alpha    89.9995
_cell_angle_beta     89.9997
_cell_angle_gamma    100.564

_space_group_name_H-M_alt    "P 1"
_space_group_IT_number       1

loop_
  _space_group_symop_operation_xyz
  'x, y, z'

loop_
  _atom_site_type_symbol
  _atom_site_label
  _atom_site_symmetry_multiplicity
  _atom_site_fract_x
  _atom_site_fract_y
  _atom_site_fract_z
  _atom_site_occupancy
  Ni  Ni1       1.0  0.02809  0.02595  0.50995  1.0000
  Ni  Ni2       1.0  0.97191  0.97406  0.00994  1.0000
  H   H1        1.0  0.89202  0.24926  0.59108  1.0000
  H   H2        1.0  0.10798  0.75076  0.09108  1.0000
  H   H3        1.0  0.34023  0.83679  0.40270  1.0000
  H   H4        1.0  0.65976  0.16322  0.90271  1.0000
  H   H5        1.0  0.33880  0.57361  0.36862  1.0000
  H   H6        1.0  0.66119  0.42640  0.86863  1.0000
  H   H7        1.0  0.70265  0.47557  0.55670  1.0000
  H   H8        1.0  0.29732  0.52443  0.05670  1.0000
  H   H9        1.0  0.72133  0.74710  0.57656  1.0000
  H   H10       1.0  0.27865  0.25290  0.07657  1.0000
  H   H11       1.0  0.83906  0.29041  0.40048  1.0000
  H   H12       1.0  0.16095  0.70960  0.90048  1.0000
  H   H13       1.0  0.14007  0.32269  0.37635  1.0000
  H   H14       1.0  0.85994  0.67732  0.87636  1.0000
  H   H15       1.0  0.34190  0.40950  0.55436  1.0000
  H   H16       1.0  0.65810  0.59051  0.05436  1.0000
  H   H17       1.0  0.08565  0.45931  0.70951  1.0000
  H   H18       1.0  0.91436  0.54069  0.20951  1.0000
  H   H19       1.0  0.35416  0.42424  0.76208  1.0000
  H   H20       1.0  0.64584  0.57574  0.26208  1.0000
  H   H21       1.0  0.10071  0.28731  0.77202  1.0000
  H   H22       1.0  0.89929  0.71268  0.27202  1.0000
  H   H23       1.0  0.89254  0.97219  0.27046  1.0000
  H   H24       1.0  0.10748  0.02779  0.77046  1.0000
  H   H25       1.0  0.56627  0.01949  0.50952  1.0000
  H   H26       1.0  0.43372  0.98050  0.00952  1.0000
  H   H27       1.0  0.61629  0.04450  0.38065  1.0000
  H   H28       1.0  0.38375  0.95550  0.88065  1.0000
  C   C1        1.0  0.20062  0.75418  0.43526  1.0000
  C   C2        1.0  0.79937  0.24583  0.93527  1.0000
  C   C3        1.0  0.19960  0.60545  0.41778  1.0000
  C   C4        1.0  0.80039  0.39456  0.91778  1.0000
  C   C5        1.0  0.01710  0.50071  0.45844  1.0000
  C   C6        1.0  0.98290  0.49930  0.95843  1.0000
  C   C7        1.0  0.84369  0.55270  0.51857  1.0000
  C   C8        1.0  0.15631  0.44730  0.01857  1.0000
  C   C9        1.0  0.85461  0.70278  0.53177  1.0000
  C   C10       1.0  0.14537  0.29722  0.03176  1.0000
  C   C11       1.0  0.00677  0.33857  0.43749  1.0000
  C   C12       1.0  0.99323  0.66144  0.93750  1.0000
  C   C13       1.0  0.24788  0.31663  0.60373  1.0000
  C   C14       1.0  0.75211  0.68337  0.10373  1.0000
  C   C15       1.0  0.41840  0.21066  0.61492  1.0000
  C   C16       1.0  0.58159  0.78934  0.11493  1.0000
  C   C17       1.0  0.19395  0.37566  0.71900  1.0000
  C   C18       1.0  0.80604  0.62433  0.21900  1.0000
  C   C19       1.0  0.07726  0.02260  0.26043  1.0000
  C   C20       1.0  0.92277  0.97741  0.76041  1.0000
  N   N1        1.0  0.03009  0.80335  0.49037  1.0000
  N   N2        1.0  0.96990  0.19666  0.99037  1.0000
  N   N3        1.0  0.03653  0.25307  0.54042  1.0000
  N   N4        1.0  0.96348  0.74694  0.04043  1.0000
  O   O1        1.0  0.35370  0.07646  0.58170  1.0000
  O   O2        1.0  0.64629  0.92353  0.08171  1.0000
  O   O3        1.0  0.61338  0.26260  0.65418  1.0000
  O   O4        1.0  0.38662  0.73739  0.15420  1.0000
  O   O5        1.0  0.19008  0.06891  0.34917  1.0000
  O   O6        1.0  0.80991  0.93110  0.84920  1.0000
  O   O7        1.0  0.16086  0.03031  0.16198  1.0000
  O   O8        1.0  0.83916  0.96967  0.66199  1.0000
  O   O9        1.0  0.67092  0.99828  0.44688  1.0000
  O   O10       1.0  0.32909  0.00171  0.94687  1.0000
