data_image0
_chemical_formula_structural       Cu8H32C24Br8N8
_chemical_formula_sum              "Cu8 H32 C24 Br8 N8"
_cell_length_a       3.99337
_cell_length_b       12.5719
_cell_length_c       17.6413
_cell_angle_alpha    89.9997
_cell_angle_beta     89.9995
_cell_angle_gamma    92.0336

_space_group_name_H-M_alt    "P 1"
_space_group_IT_number       1

loop_
  _space_group_symop_operation_xyz
  'x, y, z'

loop_
  _atom_site_type_symbol
  _atom_site_label
  _atom_site_symmetry_multiplicity
  _atom_site_fract_x
  _atom_site_fract_y
  _atom_site_fract_z
  _atom_site_occupancy
  Cu  Cu1       1.0  0.83882  0.29709  0.55529  1.0000
  Cu  Cu2       1.0  0.66117  0.20291  0.05528  1.0000
  Cu  Cu3       1.0  0.16118  0.70291  0.44472  1.0000
  Cu  Cu4       1.0  0.33882  0.79709  0.94472  1.0000
  Cu  Cu5       1.0  0.49979  0.23308  0.67530  1.0000
  Cu  Cu6       1.0  0.00018  0.26692  0.17530  1.0000
  Cu  Cu7       1.0  0.50020  0.76693  0.32469  1.0000
  Cu  Cu8       1.0  0.99980  0.73308  0.82470  1.0000
  H   H1        1.0  0.26755  0.40494  0.29752  1.0000
  H   H2        1.0  0.23246  0.09505  0.79752  1.0000
  H   H3        1.0  0.73246  0.59505  0.70248  1.0000
  H   H4        1.0  0.76756  0.90495  0.20248  1.0000
  H   H5        1.0  0.18882  0.41913  0.43760  1.0000
  H   H6        1.0  0.31118  0.08087  0.93761  1.0000
  H   H7        1.0  0.81119  0.58087  0.56240  1.0000
  H   H8        1.0  0.68884  0.91913  0.06239  1.0000
  H   H9        1.0  0.72782  0.05018  0.46461  1.0000
  H   H10       1.0  0.77217  0.44982  0.96460  1.0000
  H   H11       1.0  0.27219  0.94982  0.53539  1.0000
  H   H12       1.0  0.22782  0.55018  0.03539  1.0000
  H   H13       1.0  0.35373  0.07516  0.41627  1.0000
  H   H14       1.0  0.14626  0.42484  0.91626  1.0000
  H   H15       1.0  0.64628  0.92484  0.58374  1.0000
  H   H16       1.0  0.85374  0.57516  0.08374  1.0000
  H   H17       1.0  0.45758  0.14648  0.50155  1.0000
  H   H18       1.0  0.04239  0.35352  0.00154  1.0000
  H   H19       1.0  0.54242  0.85352  0.49845  1.0000
  H   H20       1.0  0.95760  0.64648  0.99845  1.0000
  H   H21       1.0  0.62018  0.12165  0.22112  1.0000
  H   H22       1.0  0.87978  0.37835  0.72111  1.0000
  H   H23       1.0  0.37980  0.87835  0.77889  1.0000
  H   H24       1.0  0.12021  0.62165  0.27889  1.0000
  H   H25       1.0  0.37314  0.08002  0.30055  1.0000
  H   H26       1.0  0.12684  0.41998  0.80054  1.0000
  H   H27       1.0  0.62685  0.91998  0.69946  1.0000
  H   H28       1.0  0.87317  0.58003  0.19946  1.0000
  H   H29       1.0  0.77374  0.02929  0.28850  1.0000
  H   H30       1.0  0.72623  0.47070  0.78850  1.0000
  H   H31       1.0  0.22624  0.97070  0.71150  1.0000
  H   H32       1.0  0.27377  0.52930  0.21150  1.0000
  C   C1        1.0  0.74519  0.19753  0.40517  1.0000
  C   C2        1.0  0.75479  0.30246  0.90517  1.0000
  C   C3        1.0  0.25482  0.80247  0.59483  1.0000
  C   C4        1.0  0.24521  0.69754  0.09483  1.0000
  C   C5        1.0  0.78320  0.19091  0.32587  1.0000
  C   C6        1.0  0.71678  0.30909  0.82586  1.0000
  C   C7        1.0  0.21680  0.80909  0.67413  1.0000
  C   C8        1.0  0.28322  0.69092  0.17413  1.0000
  C   C9        1.0  0.11415  0.34596  0.32818  1.0000
  C   C10       1.0  0.38585  0.15404  0.82817  1.0000
  C   C11       1.0  0.88585  0.65404  0.67183  1.0000
  C   C12       1.0  0.61418  0.84596  0.17182  1.0000
  C   C13       1.0  0.07199  0.35356  0.40567  1.0000
  C   C14       1.0  0.42801  0.14643  0.90567  1.0000
  C   C15       1.0  0.92802  0.64644  0.59432  1.0000
  C   C16       1.0  0.57201  0.85356  0.09432  1.0000
  C   C17       1.0  0.55758  0.11355  0.44890  1.0000
  C   C18       1.0  0.94240  0.38645  0.94889  1.0000
  C   C19       1.0  0.44242  0.88645  0.55110  1.0000
  C   C20       1.0  0.05760  0.61356  0.05110  1.0000
  C   C21       1.0  0.62768  0.10133  0.28150  1.0000
  C   C22       1.0  0.87229  0.39866  0.78149  1.0000
  C   C23       1.0  0.37231  0.89866  0.71851  1.0000
  C   C24       1.0  0.12771  0.60134  0.21851  1.0000
  Br  Br1       1.0  0.97868  0.12979  0.63039  1.0000
  Br  Br2       1.0  0.52131  0.37021  0.13039  1.0000
  Br  Br3       1.0  0.02132  0.87021  0.36961  1.0000
  Br  Br4       1.0  0.47867  0.62979  0.86961  1.0000
  Br  Br5       1.0  0.37526  0.40021  0.60081  1.0000
  Br  Br6       1.0  0.12471  0.09979  0.10081  1.0000
  Br  Br7       1.0  0.62471  0.59979  0.39919  1.0000
  Br  Br8       1.0  0.87529  0.90022  0.89918  1.0000
  N   N1        1.0  0.88855  0.27973  0.44479  1.0000
  N   N2        1.0  0.61143  0.22027  0.94479  1.0000
  N   N3        1.0  0.11144  0.72028  0.55521  1.0000
  N   N4        1.0  0.38858  0.77972  0.05521  1.0000
  N   N5        1.0  0.96989  0.26550  0.28750  1.0000
  N   N6        1.0  0.53010  0.23449  0.78750  1.0000
  N   N7        1.0  0.03011  0.73448  0.71250  1.0000
  N   N8        1.0  0.46992  0.76552  0.21250  1.0000
