data_image0
_chemical_formula_structural       Cd2H20C18N12O12
_chemical_formula_sum              "Cd2 H20 C18 N12 O12"
_cell_length_a       7.44867
_cell_length_b       8.42291
_cell_length_c       9.71439
_cell_angle_alpha    90.0001
_cell_angle_beta     90.0001
_cell_angle_gamma    94.3342

_space_group_name_H-M_alt    "P 1"
_space_group_IT_number       1

loop_
  _space_group_symop_operation_xyz
  'x, y, z'

loop_
  _atom_site_type_symbol
  _atom_site_label
  _atom_site_symmetry_multiplicity
  _atom_site_fract_x
  _atom_site_fract_y
  _atom_site_fract_z
  _atom_site_occupancy
  Cd  Cd1       1.0  0.27288  0.15375  0.02233  1.0000
  Cd  Cd2       1.0  0.77288  0.15375  0.97767  1.0000
  H   H1        1.0  0.93803  0.69886  0.12371  1.0000
  H   H2        1.0  0.43804  0.69886  0.87629  1.0000
  H   H3        1.0  0.11139  0.58231  0.06542  1.0000
  H   H4        1.0  0.61140  0.58231  0.93458  1.0000
  H   H5        1.0  0.75621  0.22068  0.36672  1.0000
  H   H6        1.0  0.25621  0.22068  0.63328  1.0000
  H   H7        1.0  0.75295  0.03603  0.28011  1.0000
  H   H8        1.0  0.25295  0.03603  0.71989  1.0000
  H   H9        1.0  0.27255  0.49733  0.82350  1.0000
  H   H10       1.0  0.77255  0.49733  0.17650  1.0000
  H   H11       1.0  0.16630  0.44129  0.66639  1.0000
  H   H12       1.0  0.66630  0.44129  0.33360  1.0000
  H   H13       1.0  0.90102  0.88270  0.70239  1.0000
  H   H14       1.0  0.40102  0.88270  0.29761  1.0000
  H   H15       1.0  0.18072  0.52294  0.28418  1.0000
  H   H16       1.0  0.68072  0.52294  0.71582  1.0000
  H   H17       1.0  0.07347  0.72444  0.83074  1.0000
  H   H18       1.0  0.57347  0.72444  0.16926  1.0000
  H   H19       1.0  0.80736  0.09617  0.56583  1.0000
  H   H20       1.0  0.30736  0.09617  0.43417  1.0000
  C   C1        1.0  0.06593  0.69877  0.38800  1.0000
  C   C2        1.0  0.56594  0.69877  0.61200  1.0000
  C   C3        1.0  0.05236  0.70436  0.62137  1.0000
  C   C4        1.0  0.55236  0.70436  0.37863  1.0000
  C   C5        1.0  0.93919  0.90743  0.48742  1.0000
  C   C6        1.0  0.43919  0.90744  0.51258  1.0000
  C   C7        1.0  0.08135  0.67834  0.13549  1.0000
  C   C8        1.0  0.58135  0.67834  0.86451  1.0000
  C   C9        1.0  0.17943  0.83326  0.08497  1.0000
  C   C10       1.0  0.67943  0.83327  0.91503  1.0000
  C   C11       1.0  0.83331  0.11712  0.34828  1.0000
  C   C12       1.0  0.33331  0.11712  0.65172  1.0000
  C   C13       1.0  0.00980  0.17155  0.27442  1.0000
  C   C14       1.0  0.50980  0.17155  0.72558  1.0000
  C   C15       1.0  0.14318  0.49202  0.76837  1.0000
  C   C16       1.0  0.64318  0.49202  0.23163  1.0000
  C   C17       1.0  0.01213  0.37798  0.84725  1.0000
  C   C18       1.0  0.51213  0.37798  0.15275  1.0000
  N   N1        1.0  0.10289  0.62892  0.50938  1.0000
  N   N2        1.0  0.60289  0.62892  0.49062  1.0000
  N   N3        1.0  0.96926  0.84424  0.61468  1.0000
  N   N4        1.0  0.46926  0.84424  0.38532  1.0000
  N   N5        1.0  0.98652  0.83641  0.37193  1.0000
  N   N6        1.0  0.48652  0.83641  0.62807  1.0000
  N   N7        1.0  0.11763  0.62526  0.27310  1.0000
  N   N8        1.0  0.61763  0.62526  0.72690  1.0000
  N   N9        1.0  0.08079  0.64801  0.74784  1.0000
  N   N10       1.0  0.58079  0.64801  0.25216  1.0000
  N   N11       1.0  0.86124  0.04468  0.48056  1.0000
  N   N12       1.0  0.36124  0.04467  0.51945  1.0000
  O   O1        1.0  0.14545  0.87329  0.96218  1.0000
  O   O2        1.0  0.64545  0.87329  0.03782  1.0000
  O   O3        1.0  0.28041  0.92178  0.16369  1.0000
  O   O4        1.0  0.78041  0.92178  0.83631  1.0000
  O   O5        1.0  0.05836  0.23490  0.85966  1.0000
  O   O6        1.0  0.55836  0.23490  0.14034  1.0000
  O   O7        1.0  0.86781  0.42374  0.89619  1.0000
  O   O8        1.0  0.36781  0.42374  0.10381  1.0000
  O   O9        1.0  0.14994  0.21035  0.34017  1.0000
  O   O10       1.0  0.64994  0.21035  0.65983  1.0000
  O   O11       1.0  0.00006  0.17622  0.14097  1.0000
  O   O12       1.0  0.50006  0.17622  0.85903  1.0000
