data_image0
_chemical_formula_structural       Ni2H28C18N12O16
_chemical_formula_sum              "Ni2 H28 C18 N12 O16"
_cell_length_a       7.76192
_cell_length_b       8.64621
_cell_length_c       11.3491
_cell_angle_alpha    104.917
_cell_angle_beta     103.45
_cell_angle_gamma    107.31

_space_group_name_H-M_alt    "P 1"
_space_group_IT_number       1

loop_
  _space_group_symop_operation_xyz
  'x, y, z'

loop_
  _atom_site_type_symbol
  _atom_site_label
  _atom_site_symmetry_multiplicity
  _atom_site_fract_x
  _atom_site_fract_y
  _atom_site_fract_z
  _atom_site_occupancy
  Ni  Ni1       1.0  0.77626  0.47078  0.46383  1.0000
  Ni  Ni2       1.0  0.22374  0.52922  0.53617  1.0000
  H   H1        1.0  0.90592  0.90746  0.38069  1.0000
  H   H2        1.0  0.09407  0.09254  0.61931  1.0000
  H   H3        1.0  0.09099  0.90757  0.31500  1.0000
  H   H4        1.0  0.90901  0.09243  0.68499  1.0000
  H   H5        1.0  0.35353  0.96989  0.11398  1.0000
  H   H6        1.0  0.64647  0.03011  0.88602  1.0000
  H   H7        1.0  0.17705  0.05830  0.09670  1.0000
  H   H8        1.0  0.82295  0.94170  0.90330  1.0000
  H   H9        1.0  0.52111  0.12384  0.63063  1.0000
  H   H10       1.0  0.47889  0.87617  0.36937  1.0000
  H   H11       1.0  0.73791  0.30396  0.67226  1.0000
  H   H12       1.0  0.26209  0.69604  0.32774  1.0000
  H   H13       1.0  0.73726  0.60016  0.24989  1.0000
  H   H14       1.0  0.26274  0.39984  0.75012  1.0000
  H   H15       1.0  0.12572  0.81303  0.84930  1.0000
  H   H16       1.0  0.87428  0.18697  0.15070  1.0000
  H   H17       1.0  0.49756  0.23493  0.83357  1.0000
  H   H18       1.0  0.50244  0.76507  0.16643  1.0000
  H   H19       1.0  0.62799  0.40294  0.04152  1.0000
  H   H20       1.0  0.37201  0.59706  0.95848  1.0000
  H   H21       1.0  0.61867  0.26079  0.22034  1.0000
  H   H22       1.0  0.38133  0.73921  0.77966  1.0000
  H   H23       1.0  0.72227  0.18266  0.32152  1.0000
  H   H24       1.0  0.27773  0.81734  0.67848  1.0000
  H   H25       1.0  0.83095  0.61103  0.71402  1.0000
  H   H26       1.0  0.16905  0.38897  0.28598  1.0000
  H   H27       1.0  0.70166  0.67517  0.61931  1.0000
  H   H28       1.0  0.29834  0.32483  0.38069  1.0000
  C   C1        1.0  0.86139  0.64698  0.11540  1.0000
  C   C2        1.0  0.13860  0.35302  0.88460  1.0000
  C   C3        1.0  0.98712  0.71985  0.96593  1.0000
  C   C4        1.0  0.01288  0.28015  0.03407  1.0000
  C   C5        1.0  0.72741  0.46646  0.89506  1.0000
  C   C6        1.0  0.27259  0.53354  0.10494  1.0000
  C   C7        1.0  0.98334  0.82778  0.34518  1.0000
  C   C8        1.0  0.01666  0.17222  0.65482  1.0000
  C   C9        1.0  0.08714  0.78578  0.45751  1.0000
  C   C10       1.0  0.91286  0.21422  0.54249  1.0000
  C   C11       1.0  0.25293  0.99512  0.04265  1.0000
  C   C12       1.0  0.74707  0.00488  0.95735  1.0000
  C   C13       1.0  0.36897  0.12141  0.99237  1.0000
  C   C14       1.0  0.63104  0.87859  0.00763  1.0000
  C   C15       1.0  0.59112  0.26555  0.67408  1.0000
  C   C16       1.0  0.40888  0.73445  0.32591  1.0000
  C   C17       1.0  0.48345  0.33717  0.58563  1.0000
  C   C18       1.0  0.51655  0.66282  0.41437  1.0000
  N   N1        1.0  0.99585  0.75828  0.09057  1.0000
  N   N2        1.0  0.00414  0.24172  0.90943  1.0000
  N   N3        1.0  0.85556  0.57701  0.86446  1.0000
  N   N4        1.0  0.14444  0.42299  0.13554  1.0000
  N   N5        1.0  0.72709  0.49803  0.01967  1.0000
  N   N6        1.0  0.27291  0.50197  0.98033  1.0000
  N   N7        1.0  0.85255  0.67663  0.23434  1.0000
  N   N8        1.0  0.14745  0.32337  0.76566  1.0000
  N   N9        1.0  0.11783  0.83577  0.94057  1.0000
  N   N10       1.0  0.88217  0.16422  0.05943  1.0000
  N   N11       1.0  0.59438  0.31916  0.80590  1.0000
  N   N12       1.0  0.40562  0.68085  0.19410  1.0000
  O   O1        1.0  0.03908  0.62260  0.44404  1.0000
  O   O2        1.0  0.96091  0.37740  0.55596  1.0000
  O   O3        1.0  0.21403  0.90788  0.55325  1.0000
  O   O4        1.0  0.78597  0.09212  0.44675  1.0000
  O   O5        1.0  0.48949  0.26442  0.08130  1.0000
  O   O6        1.0  0.51051  0.73558  0.91870  1.0000
  O   O7        1.0  0.34421  0.08231  0.87338  1.0000
  O   O8        1.0  0.65579  0.91769  0.12662  1.0000
  O   O9        1.0  0.50344  0.31434  0.47467  1.0000
  O   O10       1.0  0.49656  0.68566  0.52533  1.0000
  O   O11       1.0  0.37842  0.41118  0.62601  1.0000
  O   O12       1.0  0.62158  0.58882  0.37399  1.0000
  O   O13       1.0  0.73261  0.28565  0.29570  1.0000
  O   O14       1.0  0.26740  0.71435  0.70429  1.0000
  O   O15       1.0  0.82222  0.65261  0.63876  1.0000
  O   O16       1.0  0.17778  0.34739  0.36124  1.0000
