data_image0
_chemical_formula_structural       K2H42C40S4Cl4O8
_chemical_formula_sum              "K2 H42 C40 S4 Cl4 O8"
_cell_length_a       7.28114
_cell_length_b       9.35502
_cell_length_c       17.0575
_cell_angle_alpha    77.9389
_cell_angle_beta     76.9908
_cell_angle_gamma    84.8757

_space_group_name_H-M_alt    "P 1"
_space_group_IT_number       1

loop_
  _space_group_symop_operation_xyz
  'x, y, z'

loop_
  _atom_site_type_symbol
  _atom_site_label
  _atom_site_symmetry_multiplicity
  _atom_site_fract_x
  _atom_site_fract_y
  _atom_site_fract_z
  _atom_site_occupancy
  K   K1        1.0  0.63824  0.68813  0.96380  1.0000
  K   K2        1.0  0.36176  0.31187  0.03620  1.0000
  H   H1        1.0  0.38810  0.91300  0.55877  1.0000
  H   H2        1.0  0.61188  0.08699  0.44124  1.0000
  H   H3        1.0  0.55068  0.82774  0.62005  1.0000
  H   H4        1.0  0.44929  0.17224  0.37996  1.0000
  H   H5        1.0  0.30844  0.79970  0.65582  1.0000
  H   H6        1.0  0.69152  0.20030  0.34419  1.0000
  H   H7        1.0  0.35250  0.16748  0.55134  1.0000
  H   H8        1.0  0.64748  0.83251  0.44867  1.0000
  H   H9        1.0  0.20580  0.43863  0.78814  1.0000
  H   H10       1.0  0.79421  0.56138  0.21185  1.0000
  H   H11       1.0  0.41860  0.37994  0.82237  1.0000
  H   H12       1.0  0.58141  0.62008  0.17762  1.0000
  H   H13       1.0  0.42555  0.49510  0.72462  1.0000
  H   H14       1.0  0.57446  0.50490  0.27537  1.0000
  H   H15       1.0  0.40980  0.11855  0.83951  1.0000
  H   H16       1.0  0.59021  0.88146  0.16049  1.0000
  H   H17       1.0  0.10687  0.86070  0.86219  1.0000
  H   H18       1.0  0.89312  0.13929  0.13781  1.0000
  H   H19       1.0  0.15113  0.74262  0.79012  1.0000
  H   H20       1.0  0.84887  0.25737  0.20988  1.0000
  H   H21       1.0  0.68777  0.60941  0.74495  1.0000
  H   H22       1.0  0.31224  0.39061  0.25504  1.0000
  H   H23       1.0  0.93564  0.60270  0.73366  1.0000
  H   H24       1.0  0.06437  0.39730  0.26634  1.0000
  H   H25       1.0  0.83406  0.65692  0.64572  1.0000
  H   H26       1.0  0.16594  0.34308  0.35427  1.0000
  H   H27       1.0  0.83532  0.48233  0.56535  1.0000
  H   H28       1.0  0.16467  0.51766  0.43465  1.0000
  H   H29       1.0  0.78903  0.94989  0.62971  1.0000
  H   H30       1.0  0.21094  0.05011  0.37030  1.0000
  H   H31       1.0  0.89013  0.89997  0.71795  1.0000
  H   H32       1.0  0.10985  0.10004  0.28205  1.0000
  H   H33       1.0  0.03454  0.95584  0.61868  1.0000
  H   H34       1.0  0.96543  0.04415  0.38133  1.0000
  H   H35       1.0  0.87260  0.07233  0.79824  1.0000
  H   H36       1.0  0.12739  0.92768  0.20177  1.0000
  H   H37       1.0  0.04518  0.14269  0.87791  1.0000
  H   H38       1.0  0.95484  0.85731  0.12208  1.0000
  H   H39       1.0  0.95236  0.21310  0.96775  1.0000
  H   H40       1.0  0.04768  0.78689  0.03225  1.0000
  H   H41       1.0  0.00000  0.49999  0.00000  1.0000
  H   H42       1.0  0.50002  0.00001  0.99999  1.0000
  C   C1        1.0  0.40376  0.00403  0.74324  1.0000
  C   C2        1.0  0.59623  0.99597  0.25676  1.0000
  C   C3        1.0  0.39120  0.01461  0.66085  1.0000
  C   C4        1.0  0.60880  0.98539  0.33915  1.0000
  C   C5        1.0  0.41011  0.88263  0.62174  1.0000
  C   C6        1.0  0.58986  0.11737  0.37827  1.0000
  C   C7        1.0  0.36429  0.15445  0.61506  1.0000
  C   C8        1.0  0.63570  0.84555  0.38494  1.0000
  C   C9        1.0  0.35280  0.27888  0.64938  1.0000
  C   C10       1.0  0.64720  0.72112  0.35061  1.0000
  C   C11       1.0  0.36782  0.27054  0.73081  1.0000
  C   C12       1.0  0.63219  0.72947  0.26919  1.0000
  C   C13       1.0  0.35457  0.40318  0.76845  1.0000
  C   C14       1.0  0.64544  0.59682  0.23154  1.0000
  C   C15       1.0  0.39377  0.13007  0.77634  1.0000
  C   C16       1.0  0.60623  0.86993  0.22366  1.0000
  C   C17       1.0  0.20184  0.77223  0.84050  1.0000
  C   C18       1.0  0.79816  0.22776  0.15950  1.0000
  C   C19       1.0  0.18741  0.64070  0.91032  1.0000
  C   C20       1.0  0.81259  0.35929  0.08968  1.0000
  C   C21       1.0  0.84571  0.30823  0.76056  1.0000
  C   C22       1.0  0.15430  0.69177  0.23944  1.0000
  C   C23       1.0  0.83525  0.42584  0.69435  1.0000
  C   C24       1.0  0.16476  0.57417  0.30565  1.0000
  C   C25       1.0  0.82184  0.58165  0.70508  1.0000
  C   C26       1.0  0.17817  0.41836  0.29492  1.0000
  C   C27       1.0  0.84228  0.39341  0.61747  1.0000
  C   C28       1.0  0.15771  0.60659  0.38253  1.0000
  C   C29       1.0  0.86326  0.24923  0.60603  1.0000
  C   C30       1.0  0.13673  0.75077  0.39397  1.0000
  C   C31       1.0  0.87502  0.13115  0.67067  1.0000
  C   C32       1.0  0.12497  0.86885  0.32933  1.0000
  C   C33       1.0  0.89823  0.97588  0.65897  1.0000
  C   C34       1.0  0.10175  0.02412  0.34103  1.0000
  C   C35       1.0  0.86459  0.16410  0.74784  1.0000
  C   C36       1.0  0.13540  0.83590  0.25216  1.0000
  C   C37       1.0  0.91503  0.18425  0.91421  1.0000
  C   C38       1.0  0.08499  0.81576  0.08578  1.0000
  C   C39       1.0  0.77499  0.06281  0.94561  1.0000
  C   C40       1.0  0.22503  0.93720  0.05439  1.0000
  S   S1        1.0  0.44275  0.83148  0.80567  1.0000
  S   S2        1.0  0.55724  0.16852  0.19433  1.0000
  S   S3        1.0  0.83423  0.35332  0.85697  1.0000
  S   S4        1.0  0.16579  0.64668  0.14303  1.0000
  Cl  Cl1       1.0  0.32136  0.44828  0.58836  1.0000
  Cl  Cl2       1.0  0.67864  0.55171  0.41164  1.0000
  Cl  Cl3       1.0  0.88026  0.21668  0.50778  1.0000
  Cl  Cl4       1.0  0.11971  0.78331  0.49223  1.0000
  O   O1        1.0  0.32982  0.57874  0.93419  1.0000
  O   O2        1.0  0.67020  0.42124  0.06582  1.0000
  O   O3        1.0  0.01492  0.60214  0.94208  1.0000
  O   O4        1.0  0.98509  0.39785  0.05792  1.0000
  O   O5        1.0  0.83309  0.93317  0.94552  1.0000
  O   O6        1.0  0.16693  0.06684  0.05447  1.0000
  O   O7        1.0  0.60087  0.10357  0.97272  1.0000
  O   O8        1.0  0.39915  0.89643  0.02728  1.0000
