data_image0
_chemical_formula_structural       Cu2Ag2H24C24N6O14
_chemical_formula_sum              "Cu2 Ag2 H24 C24 N6 O14"
_cell_length_a       7.72305
_cell_length_b       8.41138
_cell_length_c       13.4522
_cell_angle_alpha    91.3233
_cell_angle_beta     97.7384
_cell_angle_gamma    117.244

_space_group_name_H-M_alt    "P 1"
_space_group_IT_number       1

loop_
  _space_group_symop_operation_xyz
  'x, y, z'

loop_
  _atom_site_type_symbol
  _atom_site_label
  _atom_site_symmetry_multiplicity
  _atom_site_fract_x
  _atom_site_fract_y
  _atom_site_fract_z
  _atom_site_occupancy
  Cu  Cu1       1.0  0.39755  0.94072  0.66716  1.0000
  Cu  Cu2       1.0  0.60245  0.05928  0.33283  1.0000
  Ag  Ag1       1.0  0.41752  0.40039  0.18215  1.0000
  Ag  Ag2       1.0  0.58249  0.59962  0.81785  1.0000
  H   H1        1.0  0.89756  0.99805  0.74923  1.0000
  H   H2        1.0  0.10243  0.00195  0.25078  1.0000
  H   H3        1.0  0.96588  0.96630  0.87664  1.0000
  H   H4        1.0  0.03412  0.03369  0.12337  1.0000
  H   H5        1.0  0.03541  0.18693  0.84159  1.0000
  H   H6        1.0  0.96459  0.81306  0.15841  1.0000
  H   H7        1.0  0.87604  0.33015  0.90404  1.0000
  H   H8        1.0  0.12396  0.66985  0.09596  1.0000
  H   H9        1.0  0.72621  0.37223  0.98033  1.0000
  H   H10       1.0  0.27379  0.62777  0.01967  1.0000
  H   H11       1.0  0.75227  0.17416  0.98928  1.0000
  H   H12       1.0  0.24772  0.82583  0.01072  1.0000
  H   H13       1.0  0.95101  0.67116  0.39530  1.0000
  H   H14       1.0  0.04898  0.32884  0.60470  1.0000
  H   H15       1.0  0.12535  0.69580  0.31393  1.0000
  H   H16       1.0  0.87465  0.30420  0.68607  1.0000
  H   H17       1.0  0.02085  0.49827  0.37613  1.0000
  H   H18       1.0  0.97915  0.50173  0.62388  1.0000
  H   H19       1.0  0.88280  0.83655  0.59416  1.0000
  H   H20       1.0  0.11720  0.16345  0.40585  1.0000
  H   H21       1.0  0.73482  0.65264  0.49961  1.0000
  H   H22       1.0  0.26518  0.34736  0.50039  1.0000
  H   H23       1.0  0.83510  0.87545  0.46574  1.0000
  H   H24       1.0  0.16490  0.12455  0.53426  1.0000
  C   C1        1.0  0.01343  0.05334  0.81546  1.0000
  C   C2        1.0  0.98657  0.94665  0.18455  1.0000
  C   C3        1.0  0.20224  0.06444  0.79216  1.0000
  C   C4        1.0  0.79776  0.93555  0.20784  1.0000
  C   C5        1.0  0.37429  0.14167  0.86895  1.0000
  C   C6        1.0  0.62571  0.85833  0.13105  1.0000
  C   C7        1.0  0.56587  0.16624  0.85535  1.0000
  C   C8        1.0  0.43413  0.83376  0.14465  1.0000
  C   C9        1.0  0.73988  0.26817  0.93652  1.0000
  C   C10       1.0  0.26012  0.73183  0.06348  1.0000
  C   C11       1.0  0.35685  0.20806  0.96190  1.0000
  C   C12       1.0  0.64315  0.79194  0.03809  1.0000
  C   C13       1.0  0.07307  0.64420  0.38431  1.0000
  C   C14       1.0  0.92694  0.35580  0.61569  1.0000
  C   C15       1.0  0.23845  0.73129  0.47132  1.0000
  C   C16       1.0  0.76155  0.26871  0.52868  1.0000
  C   C17       1.0  0.41699  0.71871  0.46832  1.0000
  C   C18       1.0  0.58301  0.28130  0.53167  1.0000
  C   C19       1.0  0.59153  0.80408  0.54311  1.0000
  C   C20       1.0  0.40847  0.19593  0.45689  1.0000
  C   C21       1.0  0.77214  0.79076  0.52579  1.0000
  C   C22       1.0  0.22786  0.20925  0.47421  1.0000
  C   C23       1.0  0.42244  0.62138  0.38347  1.0000
  C   C24       1.0  0.57757  0.37863  0.61653  1.0000
  N   N1        1.0  0.34393  0.26309  0.03975  1.0000
  N   N2        1.0  0.65608  0.73692  0.96025  1.0000
  N   N3        1.0  0.42176  0.53772  0.31271  1.0000
  N   N4        1.0  0.57824  0.46228  0.68728  1.0000
  N   N5        1.0  0.81373  0.38691  0.18882  1.0000
  N   N6        1.0  0.18628  0.61310  0.81119  1.0000
  O   O1        1.0  0.20214  0.00728  0.70393  1.0000
  O   O2        1.0  0.79786  0.99272  0.29606  1.0000
  O   O3        1.0  0.59786  0.10437  0.77666  1.0000
  O   O4        1.0  0.40213  0.89563  0.22333  1.0000
  O   O5        1.0  0.21268  0.81347  0.54354  1.0000
  O   O6        1.0  0.78732  0.18653  0.45646  1.0000
  O   O7        1.0  0.60431  0.89610  0.62229  1.0000
  O   O8        1.0  0.39568  0.10390  0.37771  1.0000
  O   O9        1.0  0.67675  0.30188  0.24209  1.0000
  O   O10       1.0  0.32326  0.69813  0.75792  1.0000
  O   O11       1.0  0.94543  0.34183  0.18254  1.0000
  O   O12       1.0  0.05458  0.65817  0.81747  1.0000
  O   O13       1.0  0.80759  0.51586  0.14435  1.0000
  O   O14       1.0  0.19241  0.48414  0.85565  1.0000
