data_image0
_chemical_formula_structural       Ag4H24C24N4O8
_chemical_formula_sum              "Ag4 H24 C24 N4 O8"
_cell_length_a       3.80814
_cell_length_b       12.755
_cell_length_c       13.4303
_cell_angle_alpha    89.9991
_cell_angle_beta     89.9992
_cell_angle_gamma    94.4894

_space_group_name_H-M_alt    "P 1"
_space_group_IT_number       1

loop_
  _space_group_symop_operation_xyz
  'x, y, z'

loop_
  _atom_site_type_symbol
  _atom_site_label
  _atom_site_symmetry_multiplicity
  _atom_site_fract_x
  _atom_site_fract_y
  _atom_site_fract_z
  _atom_site_occupancy
  Ag  Ag1       1.0  0.88652  0.06778  0.37622  1.0000
  Ag  Ag2       1.0  0.11342  0.43222  0.87623  1.0000
  Ag  Ag3       1.0  0.11346  0.93222  0.62378  1.0000
  Ag  Ag4       1.0  0.88655  0.56778  0.12378  1.0000
  H   H1        1.0  0.66468  0.10475  0.15908  1.0000
  H   H2        1.0  0.33534  0.39525  0.65908  1.0000
  H   H3        1.0  0.33532  0.89525  0.84091  1.0000
  H   H4        1.0  0.66468  0.60476  0.34091  1.0000
  H   H5        1.0  0.26797  0.13369  0.09851  1.0000
  H   H6        1.0  0.73203  0.36631  0.59850  1.0000
  H   H7        1.0  0.73202  0.86631  0.90149  1.0000
  H   H8        1.0  0.26797  0.63369  0.40149  1.0000
  H   H9        1.0  0.65154  0.21870  0.07996  1.0000
  H   H10       1.0  0.34847  0.28130  0.57996  1.0000
  H   H11       1.0  0.34845  0.78130  0.92004  1.0000
  H   H12       1.0  0.65154  0.71870  0.42004  1.0000
  H   H13       1.0  0.06390  0.43809  0.43280  1.0000
  H   H14       1.0  0.93614  0.06191  0.93280  1.0000
  H   H15       1.0  0.93613  0.56191  0.56721  1.0000
  H   H16       1.0  0.06389  0.93809  0.06720  1.0000
  H   H17       1.0  0.01576  0.29880  0.40797  1.0000
  H   H18       1.0  0.98428  0.20120  0.90796  1.0000
  H   H19       1.0  0.98427  0.70120  0.59204  1.0000
  H   H20       1.0  0.01574  0.79880  0.09203  1.0000
  H   H21       1.0  0.43734  0.36410  0.40864  1.0000
  H   H22       1.0  0.56269  0.13590  0.90865  1.0000
  H   H23       1.0  0.56268  0.63590  0.59135  1.0000
  H   H24       1.0  0.43733  0.86410  0.09135  1.0000
  C   C1        1.0  0.40412  0.23099  0.22442  1.0000
  C   C2        1.0  0.59587  0.26901  0.72442  1.0000
  C   C3        1.0  0.59584  0.76900  0.77558  1.0000
  C   C4        1.0  0.40414  0.73100  0.27559  1.0000
  C   C5        1.0  0.24681  0.32932  0.20606  1.0000
  C   C6        1.0  0.75320  0.17067  0.70606  1.0000
  C   C7        1.0  0.75318  0.67066  0.79394  1.0000
  C   C8        1.0  0.24681  0.82934  0.29394  1.0000
  C   C9        1.0  0.12459  0.39840  0.28085  1.0000
  C   C10       1.0  0.87542  0.10160  0.78084  1.0000
  C   C11       1.0  0.87539  0.60160  0.71916  1.0000
  C   C12       1.0  0.12459  0.89840  0.21915  1.0000
  C   C13       1.0  0.50765  0.16856  0.13515  1.0000
  C   C14       1.0  0.49236  0.33144  0.63514  1.0000
  C   C15       1.0  0.49234  0.83144  0.86485  1.0000
  C   C16       1.0  0.50765  0.66856  0.36486  1.0000
  C   C17       1.0  0.16232  0.37382  0.38944  1.0000
  C   C18       1.0  0.83771  0.12618  0.88944  1.0000
  C   C19       1.0  0.83769  0.62618  0.61056  1.0000
  C   C20       1.0  0.16232  0.87383  0.11057  1.0000
  C   C21       1.0  0.20765  0.35815  0.10634  1.0000
  C   C22       1.0  0.79236  0.14185  0.60633  1.0000
  C   C23       1.0  0.79234  0.64185  0.89367  1.0000
  C   C24       1.0  0.20764  0.85815  0.39367  1.0000
  N   N1        1.0  0.17596  0.37917  0.02199  1.0000
  N   N2        1.0  0.82397  0.12082  0.52199  1.0000
  N   N3        1.0  0.82396  0.62082  0.97801  1.0000
  N   N4        1.0  0.17601  0.87919  0.47802  1.0000
  O   O1        1.0  0.44603  0.19636  0.31083  1.0000
  O   O2        1.0  0.55397  0.30364  0.81083  1.0000
  O   O3        1.0  0.55396  0.80364  0.68917  1.0000
  O   O4        1.0  0.44604  0.69637  0.18918  1.0000
  O   O5        1.0  0.97838  0.48184  0.26024  1.0000
  O   O6        1.0  0.02165  0.01816  0.76024  1.0000
  O   O7        1.0  0.02163  0.51816  0.73976  1.0000
  O   O8        1.0  0.97836  0.98184  0.23976  1.0000
