data_image0
_chemical_formula_structural       Ni2H28C28N4O12
_chemical_formula_sum              "Ni2 H28 C28 N4 O12"
_cell_length_a       8.8642
_cell_length_b       9.772
_cell_length_c       10.7209
_cell_angle_alpha    62.8482
_cell_angle_beta     78.441
_cell_angle_gamma    63.9741

_space_group_name_H-M_alt    "P 1"
_space_group_IT_number       1

loop_
  _space_group_symop_operation_xyz
  'x, y, z'

loop_
  _atom_site_type_symbol
  _atom_site_label
  _atom_site_symmetry_multiplicity
  _atom_site_fract_x
  _atom_site_fract_y
  _atom_site_fract_z
  _atom_site_occupancy
  Ni  Ni1       1.0  0.74995  0.70663  0.58667  1.0000
  Ni  Ni2       1.0  0.25005  0.29337  0.41333  1.0000
  H   H1        1.0  0.07910  0.59214  0.51752  1.0000
  H   H2        1.0  0.42087  0.89034  0.51756  1.0000
  H   H3        1.0  0.92089  0.40786  0.48248  1.0000
  H   H4        1.0  0.57913  0.10966  0.48244  1.0000
  H   H5        1.0  0.02749  0.69427  0.61548  1.0000
  H   H6        1.0  0.47242  0.69014  0.61541  1.0000
  H   H7        1.0  0.97251  0.30573  0.38452  1.0000
  H   H8        1.0  0.52758  0.30986  0.38459  1.0000
  H   H9        1.0  0.61380  0.69437  0.35700  1.0000
  H   H10       1.0  0.88621  0.94887  0.35674  1.0000
  H   H11       1.0  0.38620  0.30563  0.64300  1.0000
  H   H12       1.0  0.11379  0.05113  0.64326  1.0000
  H   H13       1.0  0.60476  0.82236  0.09747  1.0000
  H   H14       1.0  0.89550  0.08023  0.09720  1.0000
  H   H15       1.0  0.39524  0.17765  0.90252  1.0000
  H   H16       1.0  0.10450  0.91977  0.90280  1.0000
  H   H17       1.0  0.75020  0.01950  0.96088  1.0000
  H   H18       1.0  0.24980  0.98050  0.03912  1.0000
  H   H19       1.0  0.98375  0.40979  0.81222  1.0000
  H   H20       1.0  0.51609  0.77794  0.81219  1.0000
  H   H21       1.0  0.01625  0.59021  0.18777  1.0000
  H   H22       1.0  0.48391  0.22206  0.18780  1.0000
  H   H23       1.0  0.99633  0.27340  0.07633  1.0000
  H   H24       1.0  0.50373  0.65039  0.07631  1.0000
  H   H25       1.0  0.00368  0.72659  0.92366  1.0000
  H   H26       1.0  0.49628  0.34961  0.92368  1.0000
  H   H27       1.0  0.75010  0.39508  0.21006  1.0000
  H   H28       1.0  0.24991  0.60492  0.78993  1.0000
  C   C1        1.0  0.66452  0.41677  0.63228  1.0000
  C   C2        1.0  0.83537  0.95079  0.63230  1.0000
  C   C3        1.0  0.33547  0.58322  0.36774  1.0000
  C   C4        1.0  0.16463  0.04921  0.36770  1.0000
  C   C5        1.0  0.72468  0.24745  0.64267  1.0000
  C   C6        1.0  0.77519  0.10973  0.64268  1.0000
  C   C7        1.0  0.27532  0.75254  0.35736  1.0000
  C   C8        1.0  0.22479  0.89026  0.35734  1.0000
  C   C9        1.0  0.67322  0.78202  0.29631  1.0000
  C   C10       1.0  0.82689  0.92177  0.29617  1.0000
  C   C11       1.0  0.32677  0.21798  0.70368  1.0000
  C   C12       1.0  0.17311  0.07822  0.70383  1.0000
  C   C13       1.0  0.66913  0.85380  0.15038  1.0000
  C   C14       1.0  0.83112  0.99583  0.15023  1.0000
  C   C15       1.0  0.33087  0.14619  0.84962  1.0000
  C   C16       1.0  0.16888  0.00417  0.84977  1.0000
  C   C17       1.0  0.75016  0.96227  0.07534  1.0000
  C   C18       1.0  0.24984  0.03773  0.92466  1.0000
  C   C19       1.0  0.88091  0.45830  0.87566  1.0000
  C   C20       1.0  0.61899  0.66603  0.87563  1.0000
  C   C21       1.0  0.11909  0.54170  0.12433  1.0000
  C   C22       1.0  0.38101  0.33397  0.12436  1.0000
  C   C23       1.0  0.88628  0.38338  0.02137  1.0000
  C   C24       1.0  0.61375  0.59535  0.02135  1.0000
  C   C25       1.0  0.11373  0.61662  0.97863  1.0000
  C   C26       1.0  0.38626  0.40465  0.97865  1.0000
  C   C27       1.0  0.75004  0.45202  0.09612  1.0000
  C   C28       1.0  0.24997  0.54798  0.90388  1.0000
  N   N1        1.0  0.75002  0.81563  0.36883  1.0000
  N   N2        1.0  0.24998  0.18436  0.63117  1.0000
  N   N3        1.0  0.74993  0.59810  0.80370  1.0000
  N   N4        1.0  0.25007  0.40190  0.19629  1.0000
  O   O1        1.0  0.51351  0.48615  0.66202  1.0000
  O   O2        1.0  0.98631  0.85157  0.66220  1.0000
  O   O3        1.0  0.48649  0.51385  0.33799  1.0000
  O   O4        1.0  0.01368  0.14844  0.33780  1.0000
  O   O5        1.0  0.77554  0.48020  0.59060  1.0000
  O   O6        1.0  0.72441  0.92911  0.59054  1.0000
  O   O7        1.0  0.22445  0.51980  0.40940  1.0000
  O   O8        1.0  0.27557  0.07090  0.40947  1.0000
  O   O9        1.0  0.00881  0.61086  0.59785  1.0000
  O   O10       1.0  0.49111  0.79117  0.59787  1.0000
  O   O11       1.0  0.99118  0.38914  0.40215  1.0000
  O   O12       1.0  0.50890  0.20883  0.40212  1.0000
