data_image0
_chemical_formula_structural       Fe2H28C28N4O12
_chemical_formula_sum              "Fe2 H28 C28 N4 O12"
_cell_length_a       8.82025
_cell_length_b       9.68934
_cell_length_c       10.6725
_cell_angle_alpha    63.0626
_cell_angle_beta     78.5444
_cell_angle_gamma    63.968

_space_group_name_H-M_alt    "P 1"
_space_group_IT_number       1

loop_
  _space_group_symop_operation_xyz
  'x, y, z'

loop_
  _atom_site_type_symbol
  _atom_site_label
  _atom_site_symmetry_multiplicity
  _atom_site_fract_x
  _atom_site_fract_y
  _atom_site_fract_z
  _atom_site_occupancy
  Fe  Fe1       1.0  0.75019  0.70550  0.58926  1.0000
  Fe  Fe2       1.0  0.24981  0.29450  0.41074  1.0000
  H   H1        1.0  0.07608  0.59353  0.51488  1.0000
  H   H2        1.0  0.42400  0.89177  0.51460  1.0000
  H   H3        1.0  0.92392  0.40647  0.48512  1.0000
  H   H4        1.0  0.57600  0.10823  0.48540  1.0000
  H   H5        1.0  0.02922  0.69495  0.61497  1.0000
  H   H6        1.0  0.47104  0.69052  0.61486  1.0000
  H   H7        1.0  0.97078  0.30506  0.38503  1.0000
  H   H8        1.0  0.52896  0.30947  0.38515  1.0000
  H   H9        1.0  0.61568  0.68567  0.36653  1.0000
  H   H10       1.0  0.88452  0.94808  0.36649  1.0000
  H   H11       1.0  0.38432  0.31433  0.63347  1.0000
  H   H12       1.0  0.11548  0.05192  0.63350  1.0000
  H   H13       1.0  0.60756  0.81256  0.10795  1.0000
  H   H14       1.0  0.89231  0.07936  0.10791  1.0000
  H   H15       1.0  0.39244  0.18743  0.89205  1.0000
  H   H16       1.0  0.10769  0.92065  0.89209  1.0000
  H   H17       1.0  0.74983  0.01480  0.97006  1.0000
  H   H18       1.0  0.25017  0.98519  0.02994  1.0000
  H   H19       1.0  0.98346  0.40669  0.80785  1.0000
  H   H20       1.0  0.51695  0.78520  0.80801  1.0000
  H   H21       1.0  0.01653  0.59331  0.19216  1.0000
  H   H22       1.0  0.48305  0.21480  0.19199  1.0000
  H   H23       1.0  0.99646  0.27205  0.07086  1.0000
  H   H24       1.0  0.50374  0.65634  0.07102  1.0000
  H   H25       1.0  0.00354  0.72795  0.92915  1.0000
  H   H26       1.0  0.49626  0.34366  0.92898  1.0000
  H   H27       1.0  0.75004  0.39637  0.20634  1.0000
  H   H28       1.0  0.24996  0.60363  0.79366  1.0000
  C   C1        1.0  0.66498  0.41761  0.63318  1.0000
  C   C2        1.0  0.83539  0.94951  0.63333  1.0000
  C   C3        1.0  0.33502  0.58240  0.36682  1.0000
  C   C4        1.0  0.16460  0.05049  0.36666  1.0000
  C   C5        1.0  0.72609  0.24807  0.64283  1.0000
  C   C6        1.0  0.77434  0.10942  0.64289  1.0000
  C   C7        1.0  0.27390  0.75195  0.35715  1.0000
  C   C8        1.0  0.22566  0.89058  0.35711  1.0000
  C   C9        1.0  0.67419  0.77478  0.30650  1.0000
  C   C10       1.0  0.82592  0.91882  0.30654  1.0000
  C   C11       1.0  0.32581  0.22522  0.69350  1.0000
  C   C12       1.0  0.17408  0.08119  0.69346  1.0000
  C   C13       1.0  0.67058  0.84656  0.16049  1.0000
  C   C14       1.0  0.82936  0.99287  0.16049  1.0000
  C   C15       1.0  0.32942  0.15344  0.83951  1.0000
  C   C16       1.0  0.17064  0.00713  0.83951  1.0000
  C   C17       1.0  0.74992  0.95753  0.08478  1.0000
  C   C18       1.0  0.25008  0.04246  0.91522  1.0000
  C   C19       1.0  0.88085  0.45775  0.87079  1.0000
  C   C20       1.0  0.61948  0.67117  0.87088  1.0000
  C   C21       1.0  0.11914  0.54226  0.12921  1.0000
  C   C22       1.0  0.38052  0.32883  0.12912  1.0000
  C   C23       1.0  0.88589  0.38346  0.01668  1.0000
  C   C24       1.0  0.61434  0.59928  0.01674  1.0000
  C   C25       1.0  0.11411  0.61654  0.98333  1.0000
  C   C26       1.0  0.38567  0.40072  0.98327  1.0000
  C   C27       1.0  0.75011  0.45362  0.09213  1.0000
  C   C28       1.0  0.24989  0.54639  0.90787  1.0000
  N   N1        1.0  0.75010  0.80971  0.38078  1.0000
  N   N2        1.0  0.24990  0.19028  0.61922  1.0000
  N   N3        1.0  0.75022  0.60118  0.79756  1.0000
  N   N4        1.0  0.24978  0.39882  0.20244  1.0000
  O   O1        1.0  0.51198  0.49013  0.65874  1.0000
  O   O2        1.0  0.98846  0.85165  0.65871  1.0000
  O   O3        1.0  0.48802  0.50987  0.34125  1.0000
  O   O4        1.0  0.01153  0.14836  0.34129  1.0000
  O   O5        1.0  0.77852  0.47999  0.59552  1.0000
  O   O6        1.0  0.72176  0.92460  0.59592  1.0000
  O   O7        1.0  0.22147  0.52003  0.40448  1.0000
  O   O8        1.0  0.27824  0.07538  0.40409  1.0000
  O   O9        1.0  0.01080  0.60923  0.59845  1.0000
  O   O10       1.0  0.48934  0.79282  0.59824  1.0000
  O   O11       1.0  0.98919  0.39078  0.40155  1.0000
  O   O12       1.0  0.51067  0.20718  0.40177  1.0000
