data_image0
_chemical_formula_structural       Cu2H24C28S4N20
_chemical_formula_sum              "Cu2 H24 C28 S4 N20"
_cell_length_a       8.19814
_cell_length_b       8.91052
_cell_length_c       12.3651
_cell_angle_alpha    90.0003
_cell_angle_beta     110.928
_cell_angle_gamma    89.9999

_space_group_name_H-M_alt    "P 1"
_space_group_IT_number       1

loop_
  _space_group_symop_operation_xyz
  'x, y, z'

loop_
  _atom_site_type_symbol
  _atom_site_label
  _atom_site_symmetry_multiplicity
  _atom_site_fract_x
  _atom_site_fract_y
  _atom_site_fract_z
  _atom_site_occupancy
  Cu  Cu1       1.0  0.00000  1.00000  1.00000  1.0000
  Cu  Cu2       1.0  0.50000  0.50000  0.00000  1.0000
  H   H1        1.0  0.67277  0.78207  0.91480  1.0000
  H   H2        1.0  0.82723  0.28207  0.08520  1.0000
  H   H3        1.0  0.32723  0.21792  0.08520  1.0000
  H   H4        1.0  0.17277  0.71793  0.91480  1.0000
  H   H5        1.0  0.61219  0.07134  0.37761  1.0000
  H   H6        1.0  0.88779  0.57133  0.62239  1.0000
  H   H7        1.0  0.38780  0.92867  0.62239  1.0000
  H   H8        1.0  0.11221  0.42866  0.37760  1.0000
  H   H9        1.0  0.72739  0.13680  0.21970  1.0000
  H   H10       1.0  0.77261  0.63680  0.78030  1.0000
  H   H11       1.0  0.27262  0.86320  0.78030  1.0000
  H   H12       1.0  0.22739  0.36320  0.21969  1.0000
  H   H13       1.0  0.41851  0.68689  0.39065  1.0000
  H   H14       1.0  0.08149  0.18690  0.60935  1.0000
  H   H15       1.0  0.58148  0.31311  0.60935  1.0000
  H   H16       1.0  0.91851  0.81310  0.39065  1.0000
  H   H17       1.0  0.33863  0.87427  0.39231  1.0000
  H   H18       1.0  0.16137  0.37428  0.60770  1.0000
  H   H19       1.0  0.66136  0.12574  0.60769  1.0000
  H   H20       1.0  0.83863  0.62572  0.39230  1.0000
  H   H21       1.0  0.55403  0.82716  0.48344  1.0000
  H   H22       1.0  0.94596  0.32717  0.51656  1.0000
  H   H23       1.0  0.44596  0.17284  0.51656  1.0000
  H   H24       1.0  0.05404  0.67283  0.48344  1.0000
  C   C1        1.0  0.88304  0.91573  0.75035  1.0000
  C   C2        1.0  0.61696  0.41573  0.24965  1.0000
  C   C3        1.0  0.11696  0.08427  0.24964  1.0000
  C   C4        1.0  0.38303  0.58427  0.75037  1.0000
  C   C5        1.0  0.64949  0.80878  0.99361  1.0000
  C   C6        1.0  0.85052  0.30878  0.00639  1.0000
  C   C7        1.0  0.35052  0.19122  0.00640  1.0000
  C   C8        1.0  0.14949  0.69122  0.99360  1.0000
  C   C9        1.0  0.56992  0.79009  0.14077  1.0000
  C   C10       1.0  0.93008  0.29009  0.85923  1.0000
  C   C11       1.0  0.43008  0.20991  0.85924  1.0000
  C   C12       1.0  0.06992  0.70991  0.14076  1.0000
  C   C13       1.0  0.52051  0.84947  0.30517  1.0000
  C   C14       1.0  0.97948  0.34947  0.69482  1.0000
  C   C15       1.0  0.47948  0.15053  0.69483  1.0000
  C   C16       1.0  0.02052  0.65052  0.30517  1.0000
  C   C17       1.0  0.60090  0.99170  0.30869  1.0000
  C   C18       1.0  0.89909  0.49170  0.69131  1.0000
  C   C19       1.0  0.39910  0.00830  0.69131  1.0000
  C   C20       1.0  0.10091  0.50830  0.30868  1.0000
  C   C21       1.0  0.66484  0.03077  0.22418  1.0000
  C   C22       1.0  0.83516  0.53077  0.77582  1.0000
  C   C23       1.0  0.33516  0.96923  0.77582  1.0000
  C   C24       1.0  0.16485  0.46923  0.22417  1.0000
  C   C25       1.0  0.45342  0.80597  0.39791  1.0000
  C   C26       1.0  0.04658  0.30598  0.60209  1.0000
  C   C27       1.0  0.54658  0.19403  0.60209  1.0000
  C   C28       1.0  0.95342  0.69402  0.39791  1.0000
  S   S1        1.0  0.89807  0.89253  0.62521  1.0000
  S   S2        1.0  0.60192  0.39253  0.37479  1.0000
  S   S3        1.0  0.10193  0.10747  0.37479  1.0000
  S   S4        1.0  0.39808  0.60748  0.62522  1.0000
  N   N1        1.0  0.86631  0.92967  0.84197  1.0000
  N   N2        1.0  0.63368  0.42967  0.15804  1.0000
  N   N3        1.0  0.13369  0.07033  0.15803  1.0000
  N   N4        1.0  0.36631  0.57033  0.84197  1.0000
  N   N5        1.0  0.69826  0.94057  0.04635  1.0000
  N   N6        1.0  0.80174  0.44057  0.95366  1.0000
  N   N7        1.0  0.30174  0.05943  0.95366  1.0000
  N   N8        1.0  0.19827  0.55943  0.04634  1.0000
  N   N9        1.0  0.57249  0.71376  0.04667  1.0000
  N   N10       1.0  0.92751  0.21376  0.95333  1.0000
  N   N11       1.0  0.42752  0.28624  0.95333  1.0000
  N   N12       1.0  0.07249  0.78624  0.04667  1.0000
  N   N13       1.0  0.50479  0.75033  0.22083  1.0000
  N   N14       1.0  0.99521  0.25033  0.77917  1.0000
  N   N15       1.0  0.49521  0.24967  0.77917  1.0000
  N   N16       1.0  0.00479  0.74966  0.22083  1.0000
  N   N17       1.0  0.64826  0.92799  0.13996  1.0000
  N   N18       1.0  0.85174  0.42799  0.86004  1.0000
  N   N19       1.0  0.35174  0.07201  0.86004  1.0000
  N   N20       1.0  0.14826  0.57201  0.13996  1.0000
