data_image0
_chemical_formula_structural       Nd4H52C12N4Cl12O20
_chemical_formula_sum              "Nd4 H52 C12 N4 Cl12 O20"
_cell_length_a       5.99676
_cell_length_b       11.1039
_cell_length_c       16.431
_cell_angle_alpha    89.9998
_cell_angle_beta     89.9999
_cell_angle_gamma    93.9643

_space_group_name_H-M_alt    "P 1"
_space_group_IT_number       1

loop_
  _space_group_symop_operation_xyz
  'x, y, z'

loop_
  _atom_site_type_symbol
  _atom_site_label
  _atom_site_symmetry_multiplicity
  _atom_site_fract_x
  _atom_site_fract_y
  _atom_site_fract_z
  _atom_site_occupancy
  Nd  Nd1       1.0  0.91500  0.74940  0.14597  1.0000
  Nd  Nd2       1.0  0.58499  0.75061  0.64597  1.0000
  Nd  Nd3       1.0  0.08501  0.25061  0.85403  1.0000
  Nd  Nd4       1.0  0.41500  0.24940  0.35403  1.0000
  H   H1        1.0  0.57706  0.82795  0.35748  1.0000
  H   H2        1.0  0.92294  0.67205  0.85748  1.0000
  H   H3        1.0  0.42294  0.17205  0.64253  1.0000
  H   H4        1.0  0.07706  0.32794  0.14252  1.0000
  H   H5        1.0  0.60904  0.67202  0.35239  1.0000
  H   H6        1.0  0.89095  0.82798  0.85238  1.0000
  H   H7        1.0  0.39096  0.32798  0.64762  1.0000
  H   H8        1.0  0.10904  0.17201  0.14762  1.0000
  H   H9        1.0  0.36809  0.70710  0.46786  1.0000
  H   H10       1.0  0.13190  0.79290  0.96785  1.0000
  H   H11       1.0  0.63189  0.29290  0.53215  1.0000
  H   H12       1.0  0.86809  0.20709  0.03215  1.0000
  H   H13       1.0  0.20508  0.62777  0.39276  1.0000
  H   H14       1.0  0.29492  0.87223  0.89275  1.0000
  H   H15       1.0  0.79492  0.37223  0.60724  1.0000
  H   H16       1.0  0.70507  0.12776  0.10725  1.0000
  H   H17       1.0  0.00629  0.78525  0.44950  1.0000
  H   H18       1.0  0.49370  0.71475  0.94949  1.0000
  H   H19       1.0  0.99371  0.21476  0.55050  1.0000
  H   H20       1.0  0.50629  0.28525  0.05050  1.0000
  H   H21       1.0  0.20384  0.89325  0.42793  1.0000
  H   H22       1.0  0.29615  0.60675  0.92794  1.0000
  H   H23       1.0  0.79616  0.10675  0.57206  1.0000
  H   H24       1.0  0.70385  0.39325  0.07206  1.0000
  H   H25       1.0  0.06881  0.81956  0.35138  1.0000
  H   H26       1.0  0.43119  0.68044  0.85138  1.0000
  H   H27       1.0  0.93120  0.18044  0.64862  1.0000
  H   H28       1.0  0.56881  0.31956  0.14863  1.0000
  H   H29       1.0  0.21963  0.56231  0.06349  1.0000
  H   H30       1.0  0.28037  0.93769  0.56348  1.0000
  H   H31       1.0  0.78038  0.43769  0.93652  1.0000
  H   H32       1.0  0.71964  0.06231  0.43652  1.0000
  H   H33       1.0  0.36601  0.65423  0.12117  1.0000
  H   H34       1.0  0.13399  0.84577  0.62117  1.0000
  H   H35       1.0  0.63400  0.34577  0.87883  1.0000
  H   H36       1.0  0.86602  0.15423  0.37883  1.0000
  H   H37       1.0  0.73475  0.51579  0.24586  1.0000
  H   H38       1.0  0.76524  0.98421  0.74586  1.0000
  H   H39       1.0  0.26525  0.48421  0.75414  1.0000
  H   H40       1.0  0.23476  0.01579  0.25414  1.0000
  H   H41       1.0  0.00444  0.51667  0.24660  1.0000
  H   H42       1.0  0.49556  0.98333  0.74660  1.0000
  H   H43       1.0  0.99556  0.48333  0.75339  1.0000
  H   H44       1.0  0.50444  0.01667  0.25339  1.0000
  H   H45       1.0  0.19325  0.97270  0.06083  1.0000
  H   H46       1.0  0.30674  0.52730  0.56082  1.0000
  H   H47       1.0  0.80675  0.02730  0.93917  1.0000
  H   H48       1.0  0.69326  0.47270  0.43917  1.0000
  H   H49       1.0  0.37129  0.88638  0.08741  1.0000
  H   H50       1.0  0.12871  0.61361  0.58741  1.0000
  H   H51       1.0  0.62871  0.11362  0.91259  1.0000
  H   H52       1.0  0.87129  0.38639  0.41259  1.0000
  C   C1        1.0  0.40588  0.73977  0.25810  1.0000
  C   C2        1.0  0.09410  0.76022  0.75810  1.0000
  C   C3        1.0  0.59412  0.26022  0.74190  1.0000
  C   C4        1.0  0.90590  0.23977  0.24190  1.0000
  C   C5        1.0  0.48607  0.74007  0.34536  1.0000
  C   C6        1.0  0.01392  0.75992  0.84536  1.0000
  C   C7        1.0  0.51393  0.25992  0.65465  1.0000
  C   C8        1.0  0.98608  0.24007  0.15464  1.0000
  C   C9        1.0  0.29919  0.71358  0.40664  1.0000
  C   C10       1.0  0.20080  0.78642  0.90663  1.0000
  C   C11       1.0  0.70080  0.28642  0.59337  1.0000
  C   C12       1.0  0.79919  0.21358  0.09337  1.0000
  N   N1        1.0  0.13474  0.80875  0.40903  1.0000
  N   N2        1.0  0.36526  0.69125  0.90903  1.0000
  N   N3        1.0  0.86526  0.19125  0.59097  1.0000
  N   N4        1.0  0.63474  0.30875  0.09097  1.0000
  Cl  Cl1       1.0  0.75037  0.58010  0.02733  1.0000
  Cl  Cl2       1.0  0.74963  0.91991  0.52733  1.0000
  Cl  Cl3       1.0  0.24963  0.41990  0.97267  1.0000
  Cl  Cl4       1.0  0.25037  0.08010  0.47267  1.0000
  Cl  Cl5       1.0  0.70374  0.88606  0.02726  1.0000
  Cl  Cl6       1.0  0.79626  0.61394  0.52726  1.0000
  Cl  Cl7       1.0  0.29626  0.11394  0.97274  1.0000
  Cl  Cl8       1.0  0.20374  0.38606  0.47274  1.0000
  Cl  Cl9       1.0  0.85812  0.95188  0.24872  1.0000
  Cl  Cl10      1.0  0.64188  0.54812  0.74872  1.0000
  Cl  Cl11      1.0  0.14189  0.04813  0.75128  1.0000
  Cl  Cl12      1.0  0.35811  0.45188  0.25128  1.0000
  O   O1        1.0  0.53994  0.72528  0.19921  1.0000
  O   O2        1.0  0.96005  0.77473  0.69920  1.0000
  O   O3        1.0  0.46006  0.27473  0.80080  1.0000
  O   O4        1.0  0.03995  0.22527  0.30080  1.0000
  O   O5        1.0  0.20047  0.75606  0.24725  1.0000
  O   O6        1.0  0.29953  0.74394  0.74725  1.0000
  O   O7        1.0  0.79955  0.24394  0.75275  1.0000
  O   O8        1.0  0.70048  0.25607  0.25275  1.0000
  O   O9        1.0  0.22600  0.64262  0.08925  1.0000
  O   O10       1.0  0.27399  0.85738  0.58925  1.0000
  O   O11       1.0  0.77400  0.35738  0.91075  1.0000
  O   O12       1.0  0.72601  0.14262  0.41075  1.0000
  O   O13       1.0  0.87519  0.56189  0.23105  1.0000
  O   O14       1.0  0.62481  0.93811  0.73105  1.0000
  O   O15       1.0  0.12481  0.43811  0.76895  1.0000
  O   O16       1.0  0.37520  0.06190  0.26895  1.0000
  O   O17       1.0  0.21520  0.90496  0.09824  1.0000
  O   O18       1.0  0.28479  0.59504  0.59824  1.0000
  O   O19       1.0  0.78480  0.09504  0.90176  1.0000
  O   O20       1.0  0.71521  0.40497  0.40176  1.0000
