data_image0
_chemical_formula_structural       Bi4H28C28S4Br12
_chemical_formula_sum              "Bi4 H28 C28 S4 Br12"
_cell_length_a       6.87519
_cell_length_b       9.22377
_cell_length_c       18.4504
_cell_angle_alpha    92.8715
_cell_angle_beta     90.0002
_cell_angle_gamma    89.9993

_space_group_name_H-M_alt    "P 1"
_space_group_IT_number       1

loop_
  _space_group_symop_operation_xyz
  'x, y, z'

loop_
  _atom_site_type_symbol
  _atom_site_label
  _atom_site_symmetry_multiplicity
  _atom_site_fract_x
  _atom_site_fract_y
  _atom_site_fract_z
  _atom_site_occupancy
  Bi  Bi1       1.0  0.74855  0.07521  0.56013  1.0000
  Bi  Bi2       1.0  0.75144  0.07519  0.06013  1.0000
  Bi  Bi3       1.0  0.25144  0.92482  0.43988  1.0000
  Bi  Bi4       1.0  0.24856  0.92481  0.93987  1.0000
  H   H1        1.0  0.78762  0.45126  0.48431  1.0000
  H   H2        1.0  0.71237  0.45125  0.98431  1.0000
  H   H3        1.0  0.21236  0.54875  0.51568  1.0000
  H   H4        1.0  0.28763  0.54874  0.01569  1.0000
  H   H5        1.0  0.99912  0.34282  0.46636  1.0000
  H   H6        1.0  0.50087  0.34282  0.96636  1.0000
  H   H7        1.0  0.00086  0.65719  0.53364  1.0000
  H   H8        1.0  0.49914  0.65717  0.03364  1.0000
  H   H9        1.0  0.50739  0.37908  0.59021  1.0000
  H   H10       1.0  0.99261  0.37907  0.09021  1.0000
  H   H11       1.0  0.49259  0.62093  0.40979  1.0000
  H   H12       1.0  0.00741  0.62093  0.90979  1.0000
  H   H13       1.0  0.27863  0.55042  0.65148  1.0000
  H   H14       1.0  0.22138  0.55041  0.15147  1.0000
  H   H15       1.0  0.72137  0.44960  0.34853  1.0000
  H   H16       1.0  0.77863  0.44959  0.84853  1.0000
  H   H17       1.0  0.40246  0.75493  0.73259  1.0000
  H   H18       1.0  0.09754  0.75493  0.23259  1.0000
  H   H19       1.0  0.59755  0.24507  0.26741  1.0000
  H   H20       1.0  0.90245  0.24507  0.76741  1.0000
  H   H21       1.0  0.75774  0.78013  0.75474  1.0000
  H   H22       1.0  0.74226  0.78012  0.25474  1.0000
  H   H23       1.0  0.24226  0.21987  0.24526  1.0000
  H   H24       1.0  0.25774  0.21987  0.74526  1.0000
  H   H25       1.0  0.98918  0.60718  0.69438  1.0000
  H   H26       1.0  0.51084  0.60717  0.19438  1.0000
  H   H27       1.0  0.01083  0.39282  0.30562  1.0000
  H   H28       1.0  0.48917  0.39281  0.80562  1.0000
  C   C1        1.0  0.93819  0.43191  0.50111  1.0000
  C   C2        1.0  0.56180  0.43191  0.00111  1.0000
  C   C3        1.0  0.06178  0.56809  0.49889  1.0000
  C   C4        1.0  0.43821  0.56809  0.99889  1.0000
  C   C5        1.0  0.76346  0.48400  0.63711  1.0000
  C   C6        1.0  0.73655  0.48400  0.13711  1.0000
  C   C7        1.0  0.23653  0.51600  0.36289  1.0000
  C   C8        1.0  0.26346  0.51599  0.86289  1.0000
  C   C9        1.0  0.56309  0.46729  0.62580  1.0000
  C   C10       1.0  0.93691  0.46727  0.12579  1.0000
  C   C11       1.0  0.43691  0.53272  0.37421  1.0000
  C   C12       1.0  0.06309  0.53271  0.87420  1.0000
  C   C13       1.0  0.43427  0.56442  0.66044  1.0000
  C   C14       1.0  0.06574  0.56442  0.16044  1.0000
  C   C15       1.0  0.56572  0.43559  0.33956  1.0000
  C   C16       1.0  0.93427  0.43558  0.83956  1.0000
  C   C17       1.0  0.50352  0.67762  0.70645  1.0000
  C   C18       1.0  0.99648  0.67760  0.20645  1.0000
  C   C19       1.0  0.49649  0.32239  0.29355  1.0000
  C   C20       1.0  0.00351  0.32239  0.79355  1.0000
  C   C21       1.0  0.70282  0.69238  0.71866  1.0000
  C   C22       1.0  0.79718  0.69237  0.21866  1.0000
  C   C23       1.0  0.29718  0.30763  0.28134  1.0000
  C   C24       1.0  0.20281  0.30762  0.78134  1.0000
  C   C25       1.0  0.83365  0.59559  0.68434  1.0000
  C   C26       1.0  0.66635  0.59558  0.18434  1.0000
  C   C27       1.0  0.16635  0.40441  0.31566  1.0000
  C   C28       1.0  0.33365  0.40441  0.81566  1.0000
  S   S1        1.0  0.93479  0.36467  0.59280  1.0000
  S   S2        1.0  0.56520  0.36467  0.09281  1.0000
  S   S3        1.0  0.06519  0.63533  0.40719  1.0000
  S   S4        1.0  0.43480  0.63532  0.90719  1.0000
  Br  Br1       1.0  0.60103  0.08750  0.69383  1.0000
  Br  Br2       1.0  0.89899  0.08749  0.19382  1.0000
  Br  Br3       1.0  0.39895  0.91251  0.30618  1.0000
  Br  Br4       1.0  0.10103  0.91251  0.80617  1.0000
  Br  Br5       1.0  0.59159  0.79657  0.51840  1.0000
  Br  Br6       1.0  0.90840  0.79657  0.01840  1.0000
  Br  Br7       1.0  0.40841  0.20342  0.48160  1.0000
  Br  Br8       1.0  0.09162  0.20342  0.98160  1.0000
  Br  Br9       1.0  0.90791  0.05917  0.39989  1.0000
  Br  Br10      1.0  0.59209  0.05919  0.89989  1.0000
  Br  Br11      1.0  0.09209  0.94085  0.60010  1.0000
  Br  Br12      1.0  0.40794  0.94081  0.10012  1.0000
