data_image0
_chemical_formula_structural       Cu2H24C32N8Cl12O12
_chemical_formula_sum              "Cu2 H24 C32 N8 Cl12 O12"
_cell_length_a       9.50679
_cell_length_b       9.50678
_cell_length_c       13.0045
_cell_angle_alpha    87.198
_cell_angle_beta     87.198
_cell_angle_gamma    87.6171

_space_group_name_H-M_alt    "P 1"
_space_group_IT_number       1

loop_
  _space_group_symop_operation_xyz
  'x, y, z'

loop_
  _atom_site_type_symbol
  _atom_site_label
  _atom_site_symmetry_multiplicity
  _atom_site_fract_x
  _atom_site_fract_y
  _atom_site_fract_z
  _atom_site_occupancy
  Cu  Cu1       1.0  0.00000  0.50000  0.50000  1.0000
  Cu  Cu2       1.0  0.50000  1.00000  0.00000  1.0000
  H   H1        1.0  0.53442  0.64754  0.00512  1.0000
  H   H2        1.0  0.35246  0.46557  0.49488  1.0000
  H   H3        1.0  0.46558  0.35246  0.99487  1.0000
  H   H4        1.0  0.64754  0.53442  0.50512  1.0000
  H   H5        1.0  0.64927  0.51227  0.05195  1.0000
  H   H6        1.0  0.48773  0.35073  0.44805  1.0000
  H   H7        1.0  0.35073  0.48773  0.94805  1.0000
  H   H8        1.0  0.51227  0.64927  0.55195  1.0000
  H   H9        1.0  0.87050  0.76572  0.42744  1.0000
  H   H10       1.0  0.23428  0.12950  0.07256  1.0000
  H   H11       1.0  0.12951  0.23428  0.57256  1.0000
  H   H12       1.0  0.76572  0.87049  0.92744  1.0000
  H   H13       1.0  0.72618  0.85215  0.27799  1.0000
  H   H14       1.0  0.14786  0.27381  0.22201  1.0000
  H   H15       1.0  0.27381  0.14786  0.72201  1.0000
  H   H16       1.0  0.85215  0.72619  0.77799  1.0000
  H   H17       1.0  0.77096  0.43204  0.16538  1.0000
  H   H18       1.0  0.56796  0.22903  0.33462  1.0000
  H   H19       1.0  0.22903  0.56796  0.83462  1.0000
  H   H20       1.0  0.43204  0.77096  0.66538  1.0000
  H   H21       1.0  0.91462  0.36527  0.31664  1.0000
  H   H22       1.0  0.63473  0.08538  0.18336  1.0000
  H   H23       1.0  0.08538  0.63473  0.68336  1.0000
  H   H24       1.0  0.36527  0.91462  0.81664  1.0000
  C   C1        1.0  0.21676  0.72632  0.49001  1.0000
  C   C2        1.0  0.27368  0.78324  0.00999  1.0000
  C   C3        1.0  0.78325  0.27369  0.50999  1.0000
  C   C4        1.0  0.72631  0.21675  0.99001  1.0000
  C   C5        1.0  0.25211  0.87417  0.43552  1.0000
  C   C6        1.0  0.12583  0.74789  0.06448  1.0000
  C   C7        1.0  0.74789  0.12583  0.56448  1.0000
  C   C8        1.0  0.87417  0.25211  0.93553  1.0000
  C   C9        1.0  0.84479  0.69633  0.36756  1.0000
  C   C10       1.0  0.30367  0.15520  0.13244  1.0000
  C   C11       1.0  0.15521  0.30367  0.63244  1.0000
  C   C12       1.0  0.69633  0.84479  0.86756  1.0000
  C   C13       1.0  0.76585  0.74334  0.28493  1.0000
  C   C14       1.0  0.25666  0.23415  0.21507  1.0000
  C   C15       1.0  0.23415  0.25666  0.71507  1.0000
  C   C16       1.0  0.74335  0.76585  0.78493  1.0000
  C   C17       1.0  0.73557  0.64951  0.21035  1.0000
  C   C18       1.0  0.35049  0.26442  0.28965  1.0000
  C   C19       1.0  0.26442  0.35049  0.78965  1.0000
  C   C20       1.0  0.64952  0.73557  0.71035  1.0000
  C   C21       1.0  0.78933  0.51064  0.22087  1.0000
  C   C22       1.0  0.48937  0.21067  0.27913  1.0000
  C   C23       1.0  0.21067  0.48936  0.77913  1.0000
  C   C24       1.0  0.51064  0.78933  0.72087  1.0000
  C   C25       1.0  0.86910  0.47142  0.30510  1.0000
  C   C26       1.0  0.52858  0.13090  0.19490  1.0000
  C   C27       1.0  0.13090  0.52858  0.69490  1.0000
  C   C28       1.0  0.47142  0.86910  0.80510  1.0000
  C   C29       1.0  0.64307  0.70373  0.12542  1.0000
  C   C30       1.0  0.29627  0.35692  0.37458  1.0000
  C   C31       1.0  0.35693  0.29626  0.87457  1.0000
  C   C32       1.0  0.70374  0.64307  0.62542  1.0000
  N   N1        1.0  0.89478  0.56210  0.37746  1.0000
  N   N2        1.0  0.43791  0.10522  0.12254  1.0000
  N   N3        1.0  0.10522  0.43791  0.62253  1.0000
  N   N4        1.0  0.56210  0.89478  0.87747  1.0000
  N   N5        1.0  0.61182  0.61467  0.05403  1.0000
  N   N6        1.0  0.38533  0.38817  0.44597  1.0000
  N   N7        1.0  0.38818  0.38533  0.94597  1.0000
  N   N8        1.0  0.61467  0.61183  0.55403  1.0000
  Cl  Cl1       1.0  0.38561  0.84367  0.33676  1.0000
  Cl  Cl2       1.0  0.15633  0.61439  0.16324  1.0000
  Cl  Cl3       1.0  0.61439  0.15634  0.66324  1.0000
  Cl  Cl4       1.0  0.84367  0.38561  0.83676  1.0000
  Cl  Cl5       1.0  0.31741  0.98268  0.53003  1.0000
  Cl  Cl6       1.0  0.01732  0.68259  0.96997  1.0000
  Cl  Cl7       1.0  0.68259  0.01732  0.46997  1.0000
  Cl  Cl8       1.0  0.98268  0.31741  0.03003  1.0000
  Cl  Cl9       1.0  0.10525  0.96338  0.38057  1.0000
  Cl  Cl10      1.0  0.03662  0.89475  0.11943  1.0000
  Cl  Cl11      1.0  0.89475  0.03663  0.61944  1.0000
  Cl  Cl12      1.0  0.96338  0.10525  0.88057  1.0000
  O   O1        1.0  0.09012  0.69290  0.48504  1.0000
  O   O2        1.0  0.30710  0.90988  0.01496  1.0000
  O   O3        1.0  0.90989  0.30710  0.51495  1.0000
  O   O4        1.0  0.69290  0.09011  0.98505  1.0000
  O   O5        1.0  0.31714  0.65987  0.53138  1.0000
  O   O6        1.0  0.34013  0.68286  0.96861  1.0000
  O   O7        1.0  0.68287  0.34014  0.46862  1.0000
  O   O8        1.0  0.65987  0.31713  0.03138  1.0000
  O   O9        1.0  0.59659  0.82902  0.12564  1.0000
  O   O10       1.0  0.17098  0.40341  0.37436  1.0000
  O   O11       1.0  0.40341  0.17098  0.87436  1.0000
  O   O12       1.0  0.82902  0.59659  0.62564  1.0000
