data_image0
_chemical_formula_structural       Ag4H24C32S2N8O12
_chemical_formula_sum              "Ag4 H24 C32 S2 N8 O12"
_cell_length_a       8.05502
_cell_length_b       10.1362
_cell_length_c       12.0725
_cell_angle_alpha    105.279
_cell_angle_beta     90
_cell_angle_gamma    90

_space_group_name_H-M_alt    "P 1"
_space_group_IT_number       1

loop_
  _space_group_symop_operation_xyz
  'x, y, z'

loop_
  _atom_site_type_symbol
  _atom_site_label
  _atom_site_symmetry_multiplicity
  _atom_site_fract_x
  _atom_site_fract_y
  _atom_site_fract_z
  _atom_site_occupancy
  Ag  Ag1       1.0  0.16694  0.47686  0.63391  1.0000
  Ag  Ag2       1.0  0.66694  0.52314  0.36609  1.0000
  Ag  Ag3       1.0  0.32581  0.54036  0.15844  1.0000
  Ag  Ag4       1.0  0.82581  0.45964  0.84156  1.0000
  H   H1        1.0  0.35796  0.98103  0.71640  1.0000
  H   H2        1.0  0.85796  0.01897  0.28360  1.0000
  H   H3        1.0  0.48475  0.85313  0.84445  1.0000
  H   H4        1.0  0.98475  0.14687  0.15555  1.0000
  H   H5        1.0  0.60417  0.97589  0.03149  1.0000
  H   H6        1.0  0.10417  0.02411  0.96851  1.0000
  H   H7        1.0  0.47535  0.36125  0.96685  1.0000
  H   H8        1.0  0.97535  0.63875  0.03315  1.0000
  H   H9        1.0  0.72967  0.31938  0.10600  1.0000
  H   H10       1.0  0.22967  0.68062  0.89400  1.0000
  H   H11       1.0  0.68330  0.18417  0.16879  1.0000
  H   H12       1.0  0.18330  0.81583  0.83121  1.0000
  H   H13       1.0  0.25776  0.31441  0.31793  1.0000
  H   H14       1.0  0.75776  0.68559  0.68207  1.0000
  H   H15       1.0  0.29870  0.18457  0.19032  1.0000
  H   H16       1.0  0.79870  0.81543  0.80968  1.0000
  H   H17       1.0  0.39126  0.97054  0.22027  1.0000
  H   H18       1.0  0.89126  0.02946  0.77973  1.0000
  H   H19       1.0  0.52504  0.83784  0.34120  1.0000
  H   H20       1.0  0.02504  0.16217  0.65880  1.0000
  H   H21       1.0  0.65586  0.95556  0.52694  1.0000
  H   H22       1.0  0.15586  0.04444  0.47306  1.0000
  H   H23       1.0  0.50608  0.34544  0.47505  1.0000
  H   H24       1.0  0.00608  0.65456  0.52495  1.0000
  C   C1        1.0  0.33910  0.25770  0.76454  1.0000
  C   C2        1.0  0.83910  0.74230  0.23546  1.0000
  C   C3        1.0  0.40552  0.17963  0.83585  1.0000
  C   C4        1.0  0.90552  0.82037  0.16416  1.0000
  C   C5        1.0  0.40898  0.03576  0.79934  1.0000
  C   C6        1.0  0.90898  0.96424  0.20066  1.0000
  C   C7        1.0  0.48037  0.96431  0.87103  1.0000
  C   C8        1.0  0.98037  0.03569  0.12897  1.0000
  C   C9        1.0  0.54803  0.03423  0.97698  1.0000
  C   C10       1.0  0.04803  0.96577  0.02302  1.0000
  C   C11       1.0  0.54747  0.17746  0.01253  1.0000
  C   C12       1.0  0.04747  0.82254  0.98747  1.0000
  C   C13       1.0  0.47489  0.24990  0.94146  1.0000
  C   C14       1.0  0.97489  0.75010  0.05854  1.0000
  C   C15       1.0  0.62958  0.25337  0.12238  1.0000
  C   C16       1.0  0.12958  0.74663  0.87762  1.0000
  C   C17       1.0  0.35549  0.24942  0.26834  1.0000
  C   C18       1.0  0.85549  0.75058  0.73166  1.0000
  C   C19       1.0  0.44078  0.16763  0.33872  1.0000
  C   C20       1.0  0.94078  0.83237  0.66128  1.0000
  C   C21       1.0  0.44748  0.02442  0.30206  1.0000
  C   C22       1.0  0.94748  0.97558  0.69794  1.0000
  C   C23       1.0  0.52336  0.94896  0.36998  1.0000
  C   C24       1.0  0.02336  0.05104  0.63002  1.0000
  C   C25       1.0  0.59696  0.01452  0.47428  1.0000
  C   C26       1.0  0.09696  0.98548  0.52572  1.0000
  C   C27       1.0  0.59153  0.15848  0.51065  1.0000
  C   C28       1.0  0.09153  0.84152  0.48935  1.0000
  C   C29       1.0  0.51230  0.23432  0.44404  1.0000
  C   C30       1.0  0.01230  0.76568  0.55596  1.0000
  C   C31       1.0  0.66470  0.23179  0.61600  1.0000
  C   C32       1.0  0.16470  0.76821  0.38400  1.0000
  S   S1        1.0  0.49238  0.36900  0.22301  1.0000
  S   S2        1.0  0.99238  0.63100  0.77700  1.0000
  N   N1        1.0  0.29002  0.32320  0.70530  1.0000
  N   N2        1.0  0.79002  0.67680  0.29470  1.0000
  N   N3        1.0  0.72199  0.29556  0.70223  1.0000
  N   N4        1.0  0.22199  0.70444  0.29778  1.0000
  N   N5        1.0  0.93694  0.34256  0.42990  1.0000
  N   N6        1.0  0.43694  0.65744  0.57010  1.0000
  N   N7        1.0  0.06234  0.36061  0.01135  1.0000
  N   N8        1.0  0.56234  0.63939  0.98865  1.0000
  O   O1        1.0  0.06690  0.29779  0.46785  1.0000
  O   O2        1.0  0.56690  0.70221  0.53215  1.0000
  O   O3        1.0  0.87256  0.27882  0.33689  1.0000
  O   O4        1.0  0.37256  0.72118  0.66311  1.0000
  O   O5        1.0  0.87303  0.45571  0.48886  1.0000
  O   O6        1.0  0.37303  0.54429  0.51114  1.0000
  O   O7        1.0  0.14047  0.46061  0.98853  1.0000
  O   O8        1.0  0.64047  0.53939  0.01147  1.0000
  O   O9        1.0  0.94430  0.30324  0.94621  1.0000
  O   O10       1.0  0.44430  0.69676  0.05379  1.0000
  O   O11       1.0  0.10211  0.32108  0.09801  1.0000
  O   O12       1.0  0.60211  0.67892  0.90199  1.0000
