data_image0
_chemical_formula_structural       Ag4H24C32S2N8O12
_chemical_formula_sum              "Ag4 H24 C32 S2 N8 O12"
_cell_length_a       7.38404
_cell_length_b       7.38409
_cell_length_c       18.3031
_cell_angle_alpha    86.6393
_cell_angle_beta     86.6393
_cell_angle_gamma    69.2956

_space_group_name_H-M_alt    "P 1"
_space_group_IT_number       1

loop_
  _space_group_symop_operation_xyz
  'x, y, z'

loop_
  _atom_site_type_symbol
  _atom_site_label
  _atom_site_symmetry_multiplicity
  _atom_site_fract_x
  _atom_site_fract_y
  _atom_site_fract_z
  _atom_site_occupancy
  Ag  Ag1       1.0  0.66461  0.63615  0.31602  1.0000
  Ag  Ag2       1.0  0.36385  0.33539  0.18398  1.0000
  Ag  Ag3       1.0  0.33539  0.36385  0.68398  1.0000
  Ag  Ag4       1.0  0.63615  0.66461  0.81602  1.0000
  H   H1        1.0  0.18443  0.20969  0.51566  1.0000
  H   H2        1.0  0.79030  0.81558  0.98434  1.0000
  H   H3        1.0  0.81558  0.79030  0.48434  1.0000
  H   H4        1.0  0.20969  0.18443  0.01566  1.0000
  H   H5        1.0  0.83592  0.41156  0.52403  1.0000
  H   H6        1.0  0.58843  0.16408  0.97597  1.0000
  H   H7        1.0  0.16408  0.58843  0.47597  1.0000
  H   H8        1.0  0.41156  0.83593  0.02403  1.0000
  H   H9        1.0  0.61169  0.38324  0.43251  1.0000
  H   H10       1.0  0.61676  0.38832  0.06748  1.0000
  H   H11       1.0  0.38832  0.61675  0.56749  1.0000
  H   H12       1.0  0.38324  0.61169  0.93252  1.0000
  H   H13       1.0  0.08645  0.94796  0.32354  1.0000
  H   H14       1.0  0.05203  0.91356  0.17646  1.0000
  H   H15       1.0  0.91356  0.05203  0.67646  1.0000
  H   H16       1.0  0.94797  0.08644  0.82354  1.0000
  H   H17       1.0  0.55826  0.16416  0.34052  1.0000
  H   H18       1.0  0.83583  0.44175  0.15948  1.0000
  H   H19       1.0  0.44174  0.83584  0.65948  1.0000
  H   H20       1.0  0.16416  0.55826  0.84052  1.0000
  H   H21       1.0  0.75506  0.02610  0.28328  1.0000
  H   H22       1.0  0.97390  0.24494  0.21672  1.0000
  H   H23       1.0  0.24494  0.97390  0.71672  1.0000
  H   H24       1.0  0.02610  0.75506  0.78328  1.0000
  C   C1        1.0  0.35049  0.93940  0.41518  1.0000
  C   C2        1.0  0.06060  0.64951  0.08483  1.0000
  C   C3        1.0  0.64951  0.06060  0.58482  1.0000
  C   C4        1.0  0.93940  0.35049  0.91518  1.0000
  C   C5        1.0  0.15555  0.06855  0.41848  1.0000
  C   C6        1.0  0.93143  0.84446  0.08152  1.0000
  C   C7        1.0  0.84445  0.93144  0.58152  1.0000
  C   C8        1.0  0.06856  0.15555  0.91848  1.0000
  C   C9        1.0  0.08706  0.20029  0.47483  1.0000
  C   C10       1.0  0.79971  0.91295  0.02517  1.0000
  C   C11       1.0  0.91294  0.79970  0.52517  1.0000
  C   C12       1.0  0.20029  0.08706  0.97483  1.0000
  C   C13       1.0  0.89116  0.31421  0.47896  1.0000
  C   C14       1.0  0.68579  0.10884  0.02104  1.0000
  C   C15       1.0  0.10884  0.68579  0.52104  1.0000
  C   C16       1.0  0.31420  0.89117  0.97896  1.0000
  C   C17       1.0  0.76622  0.29798  0.42754  1.0000
  C   C18       1.0  0.70202  0.23379  0.07246  1.0000
  C   C19       1.0  0.23379  0.70201  0.57246  1.0000
  C   C20       1.0  0.29798  0.76621  0.92754  1.0000
  C   C21       1.0  0.83471  0.16865  0.37024  1.0000
  C   C22       1.0  0.83134  0.16529  0.12976  1.0000
  C   C23       1.0  0.16529  0.83134  0.62976  1.0000
  C   C24       1.0  0.16865  0.83472  0.87024  1.0000
  C   C25       1.0  0.03023  0.05374  0.36585  1.0000
  C   C26       1.0  0.94626  0.96978  0.13415  1.0000
  C   C27       1.0  0.96977  0.94625  0.63415  1.0000
  C   C28       1.0  0.05374  0.03022  0.86585  1.0000
  C   C29       1.0  0.69842  0.15715  0.31502  1.0000
  C   C30       1.0  0.84285  0.30158  0.18498  1.0000
  C   C31       1.0  0.30158  0.84285  0.68498  1.0000
  C   C32       1.0  0.15715  0.69842  0.81502  1.0000
  S   S1        1.0  0.63319  0.36681  0.25000  1.0000
  S   S2        1.0  0.36681  0.63319  0.75000  1.0000
  N   N1        1.0  0.50839  0.82656  0.41064  1.0000
  N   N2        1.0  0.17343  0.49163  0.08937  1.0000
  N   N3        1.0  0.49163  0.17343  0.58936  1.0000
  N   N4        1.0  0.82656  0.50838  0.91063  1.0000
  N   N5        1.0  0.10640  0.54648  0.32576  1.0000
  N   N6        1.0  0.45352  0.89360  0.17424  1.0000
  N   N7        1.0  0.89360  0.45352  0.67424  1.0000
  N   N8        1.0  0.54648  0.10640  0.82576  1.0000
  O   O1        1.0  0.95741  0.65448  0.36132  1.0000
  O   O2        1.0  0.34553  0.04259  0.13868  1.0000
  O   O3        1.0  0.04259  0.34552  0.63868  1.0000
  O   O4        1.0  0.65448  0.95741  0.86132  1.0000
  O   O5        1.0  0.27184  0.50264  0.35081  1.0000
  O   O6        1.0  0.49736  0.72816  0.14919  1.0000
  O   O7        1.0  0.72815  0.49736  0.64919  1.0000
  O   O8        1.0  0.50264  0.27184  0.85081  1.0000
  O   O9        1.0  0.08206  0.48570  0.26429  1.0000
  O   O10       1.0  0.51430  0.91794  0.23571  1.0000
  O   O11       1.0  0.91794  0.51430  0.73571  1.0000
  O   O12       1.0  0.48569  0.08206  0.76429  1.0000
