data_image0
_chemical_formula_structural       Ag4H24C32S2N8O12
_chemical_formula_sum              "Ag4 H24 C32 S2 N8 O12"
_cell_length_a       7.32106
_cell_length_b       11.3357
_cell_length_c       12.7441
_cell_angle_alpha    70.5312
_cell_angle_beta     73.3388
_cell_angle_gamma    71.1791

_space_group_name_H-M_alt    "P 1"
_space_group_IT_number       1

loop_
  _space_group_symop_operation_xyz
  'x, y, z'

loop_
  _atom_site_type_symbol
  _atom_site_label
  _atom_site_symmetry_multiplicity
  _atom_site_fract_x
  _atom_site_fract_y
  _atom_site_fract_z
  _atom_site_occupancy
  Ag  Ag1       1.0  0.35614  0.41322  0.65196  1.0000
  Ag  Ag2       1.0  0.42076  0.08723  0.84813  1.0000
  Ag  Ag3       1.0  0.64385  0.58678  0.34803  1.0000
  Ag  Ag4       1.0  0.57923  0.91277  0.15187  1.0000
  H   H1        1.0  0.86769  0.39157  0.02385  1.0000
  H   H2        1.0  0.28386  0.10850  0.47572  1.0000
  H   H3        1.0  0.13231  0.60844  0.97615  1.0000
  H   H4        1.0  0.71614  0.89149  0.52428  1.0000
  H   H5        1.0  0.58454  0.45464  0.17749  1.0000
  H   H6        1.0  0.21749  0.04529  0.32202  1.0000
  H   H7        1.0  0.41546  0.54536  0.82251  1.0000
  H   H8        1.0  0.78251  0.95470  0.67797  1.0000
  H   H9        1.0  0.39750  0.82616  0.94920  1.0000
  H   H10       1.0  0.17240  0.67411  0.55060  1.0000
  H   H11       1.0  0.60249  0.17383  0.05080  1.0000
  H   H12       1.0  0.82760  0.32589  0.44941  1.0000
  H   H13       1.0  0.67564  0.76450  0.79457  1.0000
  H   H14       1.0  0.23401  0.73597  0.70531  1.0000
  H   H15       1.0  0.32436  0.23551  0.20543  1.0000
  H   H16       1.0  0.76598  0.26404  0.29470  1.0000
  H   H17       1.0  0.25865  0.60015  0.22524  1.0000
  H   H18       1.0  0.08419  0.89996  0.27438  1.0000
  H   H19       1.0  0.74135  0.39985  0.77476  1.0000
  H   H20       1.0  0.91582  0.10005  0.72562  1.0000
  H   H21       1.0  0.18867  0.75894  0.13071  1.0000
  H   H22       1.0  0.07825  0.74118  0.36886  1.0000
  H   H23       1.0  0.81132  0.24106  0.86929  1.0000
  H   H24       1.0  0.92176  0.25882  0.63114  1.0000
  C   C1        1.0  0.95093  0.54040  0.81490  1.0000
  C   C2        1.0  0.30553  0.96013  0.68497  1.0000
  C   C3        1.0  0.04907  0.45960  0.18509  1.0000
  C   C4        1.0  0.69447  0.03987  0.31503  1.0000
  C   C5        1.0  0.79093  0.57617  0.90174  1.0000
  C   C6        1.0  0.26857  0.92415  0.59805  1.0000
  C   C7        1.0  0.20907  0.42383  0.09827  1.0000
  C   C8        1.0  0.73144  0.07585  0.40195  1.0000
  C   C9        1.0  0.76630  0.48742  0.00945  1.0000
  C   C10       1.0  0.26358  0.01270  0.49018  1.0000
  C   C11       1.0  0.23370  0.51258  0.99056  1.0000
  C   C12       1.0  0.73643  0.98730  0.50981  1.0000
  C   C13       1.0  0.60970  0.52300  0.09443  1.0000
  C   C14       1.0  0.22756  0.97705  0.40519  1.0000
  C   C15       1.0  0.39030  0.47700  0.90558  1.0000
  C   C16       1.0  0.77245  0.02295  0.59481  1.0000
  C   C17       1.0  0.47816  0.64541  0.07343  1.0000
  C   C18       1.0  0.19694  0.85475  0.42629  1.0000
  C   C19       1.0  0.52183  0.35459  0.92658  1.0000
  C   C20       1.0  0.80307  0.14525  0.57371  1.0000
  C   C21       1.0  0.50347  0.73251  0.96555  1.0000
  C   C22       1.0  0.20119  0.76776  0.53424  1.0000
  C   C23       1.0  0.49653  0.26749  0.03445  1.0000
  C   C24       1.0  0.79881  0.23224  0.46576  1.0000
  C   C25       1.0  0.65801  0.69871  0.87924  1.0000
  C   C26       1.0  0.23546  0.80167  0.62061  1.0000
  C   C27       1.0  0.34199  0.30129  0.12077  1.0000
  C   C28       1.0  0.76454  0.19833  0.37939  1.0000
  C   C29       1.0  0.31077  0.68352  0.16533  1.0000
  C   C30       1.0  0.15957  0.81656  0.33437  1.0000
  C   C31       1.0  0.68922  0.31648  0.83467  1.0000
  C   C32       1.0  0.84043  0.18344  0.66563  1.0000
  S   S1        1.0  0.39601  0.75000  0.24997  1.0000
  S   S2        1.0  0.60399  0.25000  0.75003  1.0000
  N   N1        1.0  0.08397  0.50999  0.74460  1.0000
  N   N2        1.0  0.33755  0.99065  0.75534  1.0000
  N   N3        1.0  0.91602  0.49001  0.25540  1.0000
  N   N4        1.0  0.66247  0.00934  0.24465  1.0000
  N   N5        1.0  0.31211  0.36823  0.44708  1.0000
  N   N6        1.0  0.12723  0.13194  0.05295  1.0000
  N   N7        1.0  0.68790  0.63177  0.55291  1.0000
  N   N8        1.0  0.87278  0.86806  0.94706  1.0000
  O   O1        1.0  0.34301  0.47086  0.45529  1.0000
  O   O2        1.0  0.26932  0.02953  0.04484  1.0000
  O   O3        1.0  0.65700  0.52914  0.54471  1.0000
  O   O4        1.0  0.73068  0.97047  0.95517  1.0000
  O   O5        1.0  0.27171  0.28270  0.53787  1.0000
  O   O6        1.0  0.09197  0.21735  0.96210  1.0000
  O   O7        1.0  0.72829  0.71730  0.46212  1.0000
  O   O8        1.0  0.90802  0.78265  0.03791  1.0000
  O   O9        1.0  0.32452  0.35562  0.35130  1.0000
  O   O10       1.0  0.03103  0.14449  0.14869  1.0000
  O   O11       1.0  0.67548  0.64438  0.64869  1.0000
  O   O12       1.0  0.96898  0.85551  0.85132  1.0000
