data_image0
_chemical_formula_structural       Ag4H48C64S4N12O12
_chemical_formula_sum              "Ag4 H48 C64 S4 N12 O12"
_cell_length_a       10.0854
_cell_length_b       10.919
_cell_length_c       14.6294
_cell_angle_alpha    90
_cell_angle_beta     90
_cell_angle_gamma    92.045

_space_group_name_H-M_alt    "P 1"
_space_group_IT_number       1

loop_
  _space_group_symop_operation_xyz
  'x, y, z'

loop_
  _atom_site_type_symbol
  _atom_site_label
  _atom_site_symmetry_multiplicity
  _atom_site_fract_x
  _atom_site_fract_y
  _atom_site_fract_z
  _atom_site_occupancy
  Ag  Ag1       1.0  0.93687  0.62990  0.75021  1.0000
  Ag  Ag2       1.0  0.56313  0.87011  0.25021  1.0000
  Ag  Ag3       1.0  0.06314  0.37010  0.24979  1.0000
  Ag  Ag4       1.0  0.43687  0.12989  0.74979  1.0000
  H   H1        1.0  0.84522  0.44681  0.07946  1.0000
  H   H2        1.0  0.65478  0.05319  0.57946  1.0000
  H   H3        1.0  0.15478  0.55319  0.92054  1.0000
  H   H4        1.0  0.34522  0.94681  0.42054  1.0000
  H   H5        1.0  0.73672  0.31187  0.19615  1.0000
  H   H6        1.0  0.76328  0.18813  0.69615  1.0000
  H   H7        1.0  0.26328  0.68813  0.80385  1.0000
  H   H8        1.0  0.23672  0.81187  0.30385  1.0000
  H   H9        1.0  0.52152  0.20363  0.16152  1.0000
  H   H10       1.0  0.97847  0.29637  0.66152  1.0000
  H   H11       1.0  0.47847  0.79637  0.83848  1.0000
  H   H12       1.0  0.02153  0.70363  0.33848  1.0000
  H   H13       1.0  0.40943  0.23622  0.01224  1.0000
  H   H14       1.0  0.09057  0.26378  0.51224  1.0000
  H   H15       1.0  0.59057  0.76378  0.98776  1.0000
  H   H16       1.0  0.90943  0.73622  0.48776  1.0000
  H   H17       1.0  0.49385  0.48961  0.86222  1.0000
  H   H18       1.0  0.00615  0.01038  0.36222  1.0000
  H   H19       1.0  0.50615  0.51038  0.13778  1.0000
  H   H20       1.0  0.99385  0.98962  0.63778  1.0000
  H   H21       1.0  0.38466  0.35920  0.87743  1.0000
  H   H22       1.0  0.11534  0.14080  0.37743  1.0000
  H   H23       1.0  0.61534  0.64080  0.12257  1.0000
  H   H24       1.0  0.88466  0.85920  0.62257  1.0000
  H   H25       1.0  0.40181  0.44436  0.70046  1.0000
  H   H26       1.0  0.09819  0.05565  0.20046  1.0000
  H   H27       1.0  0.59819  0.55564  0.29954  1.0000
  H   H28       1.0  0.90181  0.94435  0.79954  1.0000
  H   H29       1.0  0.56365  0.51972  0.70316  1.0000
  H   H30       1.0  0.93635  0.98028  0.20316  1.0000
  H   H31       1.0  0.43635  0.48028  0.29684  1.0000
  H   H32       1.0  0.06365  0.01972  0.79684  1.0000
  H   H33       1.0  0.34305  0.29188  0.58715  1.0000
  H   H34       1.0  0.15695  0.20812  0.08715  1.0000
  H   H35       1.0  0.65695  0.70812  0.41285  1.0000
  H   H36       1.0  0.84305  0.79188  0.91285  1.0000
  H   H37       1.0  0.38186  0.20902  0.42952  1.0000
  H   H38       1.0  0.11815  0.29098  0.92952  1.0000
  H   H39       1.0  0.61814  0.79098  0.57048  1.0000
  H   H40       1.0  0.88185  0.70902  0.07048  1.0000
  H   H41       1.0  0.59196  0.25510  0.35026  1.0000
  H   H42       1.0  0.90804  0.24490  0.85026  1.0000
  H   H43       1.0  0.40804  0.74490  0.64974  1.0000
  H   H44       1.0  0.09196  0.75510  0.14974  1.0000
  H   H45       1.0  0.76580  0.39223  0.42364  1.0000
  H   H46       1.0  0.73420  0.10777  0.92364  1.0000
  H   H47       1.0  0.23420  0.60777  0.57636  1.0000
  H   H48       1.0  0.26580  0.89223  0.07636  1.0000
  C   C1        1.0  0.74651  0.49899  0.91547  1.0000
  C   C2        1.0  0.75349  0.00101  0.41547  1.0000
  C   C3        1.0  0.25349  0.50101  0.08453  1.0000
  C   C4        1.0  0.24652  0.99899  0.58454  1.0000
  C   C5        1.0  0.68573  0.41970  0.98143  1.0000
  C   C6        1.0  0.81427  0.08030  0.48143  1.0000
  C   C7        1.0  0.31427  0.58029  0.01857  1.0000
  C   C8        1.0  0.18573  0.91970  0.51857  1.0000
  C   C9        1.0  0.74962  0.40095  0.06537  1.0000
  C   C10       1.0  0.75038  0.09905  0.56537  1.0000
  C   C11       1.0  0.25039  0.59905  0.93463  1.0000
  C   C12       1.0  0.24961  0.90095  0.43463  1.0000
  C   C13       1.0  0.68884  0.32445  0.13029  1.0000
  C   C14       1.0  0.81116  0.17554  0.63029  1.0000
  C   C15       1.0  0.31116  0.67555  0.86971  1.0000
  C   C16       1.0  0.18884  0.82446  0.36971  1.0000
  C   C17       1.0  0.56727  0.26470  0.11089  1.0000
  C   C18       1.0  0.93273  0.23530  0.61089  1.0000
  C   C19       1.0  0.43273  0.73530  0.88911  1.0000
  C   C20       1.0  0.06727  0.76470  0.38911  1.0000
  C   C21       1.0  0.50433  0.28300  0.02710  1.0000
  C   C22       1.0  0.99568  0.21700  0.52710  1.0000
  C   C23       1.0  0.49567  0.71700  0.97290  1.0000
  C   C24       1.0  0.00432  0.78300  0.47290  1.0000
  C   C25       1.0  0.56083  0.36203  0.96163  1.0000
  C   C26       1.0  0.93917  0.13797  0.46163  1.0000
  C   C27       1.0  0.43917  0.63797  0.03837  1.0000
  C   C28       1.0  0.06083  0.86203  0.53837  1.0000
  C   C29       1.0  0.48901  0.39037  0.87506  1.0000
  C   C30       1.0  0.01099  0.10963  0.37506  1.0000
  C   C31       1.0  0.51099  0.60963  0.12494  1.0000
  C   C32       1.0  0.98901  0.89037  0.62494  1.0000
  C   C33       1.0  0.50842  0.43314  0.68923  1.0000
  C   C34       1.0  0.99159  0.06686  0.18923  1.0000
  C   C35       1.0  0.49158  0.56686  0.31077  1.0000
  C   C36       1.0  0.00841  0.93314  0.81077  1.0000
  C   C37       1.0  0.53230  0.38687  0.59473  1.0000
  C   C38       1.0  0.96770  0.11314  0.09473  1.0000
  C   C39       1.0  0.46770  0.61313  0.40527  1.0000
  C   C40       1.0  0.03230  0.88686  0.90527  1.0000
  C   C41       1.0  0.43592  0.31239  0.55125  1.0000
  C   C42       1.0  0.06408  0.18762  0.05125  1.0000
  C   C43       1.0  0.56408  0.68761  0.44875  1.0000
  C   C44       1.0  0.93592  0.81239  0.94875  1.0000
  C   C45       1.0  0.45752  0.26581  0.46393  1.0000
  C   C46       1.0  0.04249  0.23419  0.96393  1.0000
  C   C47       1.0  0.54248  0.73419  0.53607  1.0000
  C   C48       1.0  0.95752  0.76581  0.03607  1.0000
  C   C49       1.0  0.57647  0.29329  0.41804  1.0000
  C   C50       1.0  0.92353  0.20672  0.91804  1.0000
  C   C51       1.0  0.42353  0.70672  0.58196  1.0000
  C   C52       1.0  0.07647  0.79328  0.08196  1.0000
  C   C53       1.0  0.67375  0.36802  0.45901  1.0000
  C   C54       1.0  0.82625  0.13198  0.95901  1.0000
  C   C55       1.0  0.32624  0.63198  0.54098  1.0000
  C   C56       1.0  0.17375  0.86802  0.04099  1.0000
  C   C57       1.0  0.65161  0.41471  0.54711  1.0000
  C   C58       1.0  0.84839  0.08529  0.04711  1.0000
  C   C59       1.0  0.34839  0.58529  0.45289  1.0000
  C   C60       1.0  0.15161  0.91471  0.95289  1.0000
  C   C61       1.0  0.75083  0.49179  0.58831  1.0000
  C   C62       1.0  0.74917  0.00821  0.08831  1.0000
  C   C63       1.0  0.24917  0.50821  0.41169  1.0000
  C   C64       1.0  0.25083  0.99179  0.91169  1.0000
  S   S1        1.0  0.56505  0.32188  0.77401  1.0000
  S   S2        1.0  0.93496  0.17812  0.27401  1.0000
  S   S3        1.0  0.43495  0.67812  0.22599  1.0000
  S   S4        1.0  0.06505  0.82188  0.72599  1.0000
  N   N1        1.0  0.79483  0.56494  0.86119  1.0000
  N   N2        1.0  0.70516  0.93505  0.36118  1.0000
  N   N3        1.0  0.20517  0.43506  0.13881  1.0000
  N   N4        1.0  0.29483  0.06495  0.63881  1.0000
  N   N5        1.0  0.83181  0.55567  0.62255  1.0000
  N   N6        1.0  0.66819  0.94433  0.12255  1.0000
  N   N7        1.0  0.16818  0.44433  0.37745  1.0000
  N   N8        1.0  0.33181  0.05567  0.87745  1.0000
  N   N9        1.0  0.14537  0.41785  0.75577  1.0000
  N   N10       1.0  0.35463  0.08215  0.25577  1.0000
  N   N11       1.0  0.85463  0.58215  0.24423  1.0000
  N   N12       1.0  0.64537  0.91785  0.74423  1.0000
  O   O1        1.0  0.03740  0.43811  0.79893  1.0000
  O   O2        1.0  0.46260  0.06189  0.29893  1.0000
  O   O3        1.0  0.96260  0.56189  0.20107  1.0000
  O   O4        1.0  0.53740  0.93811  0.70107  1.0000
  O   O5        1.0  0.18858  0.49458  0.69720  1.0000
  O   O6        1.0  0.31142  0.00542  0.19720  1.0000
  O   O7        1.0  0.81142  0.50542  0.30280  1.0000
  O   O8        1.0  0.68858  0.99458  0.80280  1.0000
  O   O9        1.0  0.20632  0.32146  0.77266  1.0000
  O   O10       1.0  0.29368  0.17854  0.27266  1.0000
  O   O11       1.0  0.79368  0.67854  0.22734  1.0000
  O   O12       1.0  0.70632  0.82146  0.72734  1.0000
