data_image0
_chemical_formula_structural       Ag4P4H54C54N6O12
_chemical_formula_sum              "Ag4 P4 H54 C54 N6 O12"
_cell_length_a       9.79729
_cell_length_b       9.79732
_cell_length_c       15.8905
_cell_angle_alpha    76.0666
_cell_angle_beta     76.0669
_cell_angle_gamma    75.3418

_space_group_name_H-M_alt    "P 1"
_space_group_IT_number       1

loop_
  _space_group_symop_operation_xyz
  'x, y, z'

loop_
  _atom_site_type_symbol
  _atom_site_label
  _atom_site_symmetry_multiplicity
  _atom_site_fract_x
  _atom_site_fract_y
  _atom_site_fract_z
  _atom_site_occupancy
  Ag  Ag1       1.0  0.90499  0.22503  0.58850  1.0000
  Ag  Ag2       1.0  0.22503  0.90499  0.08850  1.0000
  Ag  Ag3       1.0  0.75820  0.61898  0.26534  1.0000
  Ag  Ag4       1.0  0.61899  0.75820  0.76534  1.0000
  P   P1        1.0  0.89289  0.35924  0.44656  1.0000
  P   P2        1.0  0.35924  0.89289  0.94656  1.0000
  P   P3        1.0  0.85397  0.37498  0.26429  1.0000
  P   P4        1.0  0.37498  0.85397  0.76430  1.0000
  H   H1        1.0  0.11070  0.42756  0.28129  1.0000
  H   H2        1.0  0.42756  0.11070  0.78129  1.0000
  H   H3        1.0  0.28655  0.58467  0.24472  1.0000
  H   H4        1.0  0.58467  0.28656  0.74472  1.0000
  H   H5        1.0  0.30069  0.72191  0.35457  1.0000
  H   H6        1.0  0.72191  0.30069  0.85458  1.0000
  H   H7        1.0  0.13682  0.69917  0.50188  1.0000
  H   H8        1.0  0.69917  0.13682  0.00188  1.0000
  H   H9        1.0  0.95978  0.54270  0.53859  1.0000
  H   H10       1.0  0.54271  0.95978  0.03859  1.0000
  H   H11       1.0  0.79963  0.67851  0.41529  1.0000
  H   H12       1.0  0.67851  0.79963  0.91529  1.0000
  H   H13       1.0  0.56276  0.83716  0.44683  1.0000
  H   H14       1.0  0.83716  0.56275  0.94683  1.0000
  H   H15       1.0  0.34794  0.73305  0.52427  1.0000
  H   H16       1.0  0.73305  0.34794  0.02427  1.0000
  H   H17       1.0  0.37008  0.46729  0.55827  1.0000
  H   H18       1.0  0.46729  0.37008  0.05827  1.0000
  H   H19       1.0  0.60542  0.30656  0.51891  1.0000
  H   H20       1.0  0.30656  0.60542  0.01891  1.0000
  H   H21       1.0  0.95610  0.09049  0.30888  1.0000
  H   H22       1.0  0.09049  0.95610  0.80888  1.0000
  H   H23       1.0  0.71805  0.09540  0.40597  1.0000
  H   H24       1.0  0.09540  0.71805  0.90597  1.0000
  H   H25       1.0  0.79602  0.06667  0.50115  1.0000
  H   H26       1.0  0.06666  0.79602  0.00115  1.0000
  H   H27       1.0  0.84232  0.93317  0.43468  1.0000
  H   H28       1.0  0.93317  0.84233  0.93467  1.0000
  H   H29       1.0  0.16991  0.10208  0.36890  1.0000
  H   H30       1.0  0.10208  0.16991  0.86890  1.0000
  H   H31       1.0  0.11249  0.93591  0.40340  1.0000
  H   H32       1.0  0.93590  0.11249  0.90339  1.0000
  H   H33       1.0  0.07098  0.05787  0.47735  1.0000
  H   H34       1.0  0.05787  0.07098  0.97735  1.0000
  H   H35       1.0  0.54662  0.42148  0.32128  1.0000
  H   H36       1.0  0.42149  0.54662  0.82129  1.0000
  H   H37       1.0  0.36304  0.29388  0.31236  1.0000
  H   H38       1.0  0.29389  0.36305  0.81236  1.0000
  H   H39       1.0  0.43566  0.08327  0.23690  1.0000
  H   H40       1.0  0.08328  0.43566  0.73690  1.0000
  H   H41       1.0  0.68901  0.01070  0.16332  1.0000
  H   H42       1.0  0.01070  0.68902  0.66332  1.0000
  H   H43       1.0  0.87278  0.13983  0.16974  1.0000
  H   H44       1.0  0.13984  0.87277  0.66974  1.0000
  H   H45       1.0  0.14835  0.16721  0.24127  1.0000
  H   H46       1.0  0.16721  0.14835  0.74127  1.0000
  H   H47       1.0  0.33526  0.13918  0.10867  1.0000
  H   H48       1.0  0.13918  0.33526  0.60867  1.0000
  H   H49       1.0  0.29884  0.28970  0.96252  1.0000
  H   H50       1.0  0.28969  0.29885  0.46252  1.0000
  H   H51       1.0  0.07474  0.47700  0.95122  1.0000
  H   H52       1.0  0.47700  0.07474  0.45122  1.0000
  H   H53       1.0  0.88868  0.51267  0.08607  1.0000
  H   H54       1.0  0.51267  0.88868  0.58607  1.0000
  C   C1        1.0  0.02267  0.47511  0.41226  1.0000
  C   C2        1.0  0.47511  0.02267  0.91226  1.0000
  C   C3        1.0  0.11534  0.48713  0.32989  1.0000
  C   C4        1.0  0.48713  0.11534  0.82989  1.0000
  C   C5        1.0  0.21511  0.57594  0.30922  1.0000
  C   C6        1.0  0.57594  0.21511  0.80922  1.0000
  C   C7        1.0  0.22299  0.65284  0.37061  1.0000
  C   C8        1.0  0.65284  0.22299  0.87061  1.0000
  C   C9        1.0  0.13089  0.64041  0.45315  1.0000
  C   C10       1.0  0.64041  0.13089  0.95316  1.0000
  C   C11       1.0  0.03177  0.55205  0.47423  1.0000
  C   C12       1.0  0.55205  0.03177  0.97423  1.0000
  C   C13       1.0  0.71838  0.48171  0.46218  1.0000
  C   C14       1.0  0.48171  0.71838  0.96219  1.0000
  C   C15       1.0  0.70523  0.63147  0.44366  1.0000
  C   C16       1.0  0.63148  0.70523  0.94366  1.0000
  C   C17       1.0  0.57150  0.72121  0.46442  1.0000
  C   C18       1.0  0.72122  0.57150  0.96442  1.0000
  C   C19       1.0  0.45128  0.66259  0.50593  1.0000
  C   C20       1.0  0.66259  0.45128  0.00593  1.0000
  C   C21       1.0  0.46377  0.51344  0.52511  1.0000
  C   C22       1.0  0.51344  0.46377  0.02511  1.0000
  C   C23       1.0  0.59629  0.42296  0.50297  1.0000
  C   C24       1.0  0.42296  0.59629  0.00298  1.0000
  C   C25       1.0  0.94099  0.11513  0.37481  1.0000
  C   C26       1.0  0.11513  0.94099  0.87481  1.0000
  C   C27       1.0  0.81641  0.04952  0.43301  1.0000
  C   C28       1.0  0.04952  0.81641  0.93301  1.0000
  C   C29       1.0  0.08179  0.04990  0.40808  1.0000
  C   C30       1.0  0.04990  0.08179  0.90808  1.0000
  C   C31       1.0  0.72222  0.28690  0.24762  1.0000
  C   C32       1.0  0.28690  0.72223  0.74762  1.0000
  C   C33       1.0  0.57779  0.33122  0.28668  1.0000
  C   C34       1.0  0.33122  0.57779  0.78668  1.0000
  C   C35       1.0  0.47496  0.25911  0.28188  1.0000
  C   C36       1.0  0.25911  0.47497  0.78189  1.0000
  C   C37       1.0  0.51479  0.14309  0.23817  1.0000
  C   C38       1.0  0.14310  0.51480  0.73817  1.0000
  C   C39       1.0  0.65755  0.10198  0.19679  1.0000
  C   C40       1.0  0.10198  0.65755  0.69679  1.0000
  C   C41       1.0  0.76108  0.17391  0.20091  1.0000
  C   C42       1.0  0.17392  0.76108  0.70091  1.0000
  C   C43       1.0  0.00347  0.34040  0.17277  1.0000
  C   C44       1.0  0.34041  0.00347  0.67277  1.0000
  C   C45       1.0  0.13035  0.23615  0.17851  1.0000
  C   C46       1.0  0.23616  0.13035  0.67851  1.0000
  C   C47       1.0  0.23602  0.21888  0.10286  1.0000
  C   C48       1.0  0.21889  0.23602  0.60286  1.0000
  C   C49       1.0  0.21568  0.30422  0.02097  1.0000
  C   C50       1.0  0.30422  0.21568  0.52097  1.0000
  C   C51       1.0  0.08989  0.40909  0.01498  1.0000
  C   C52       1.0  0.40909  0.08989  0.51498  1.0000
  C   C53       1.0  0.98530  0.42833  0.09048  1.0000
  C   C54       1.0  0.42833  0.98530  0.59048  1.0000
  N   N1        1.0  0.82094  0.97279  0.71488  1.0000
  N   N2        1.0  0.97279  0.82094  0.21488  1.0000
  N   N3        1.0  0.90653  0.27732  0.36056  1.0000
  N   N4        1.0  0.27733  0.90653  0.86056  1.0000
  N   N5        1.0  0.80036  0.48664  0.70487  1.0000
  N   N6        1.0  0.48664  0.80036  0.20487  1.0000
  O   O1        1.0  0.89309  0.36929  0.70203  1.0000
  O   O2        1.0  0.36929  0.89309  0.20202  1.0000
  O   O3        1.0  0.91478  0.04907  0.70689  1.0000
  O   O4        1.0  0.04907  0.91478  0.20689  1.0000
  O   O5        1.0  0.73979  0.00303  0.65964  1.0000
  O   O6        1.0  0.00303  0.73979  0.15964  1.0000
  O   O7        1.0  0.81409  0.86810  0.77895  1.0000
  O   O8        1.0  0.86809  0.81409  0.27894  1.0000
  O   O9        1.0  0.79237  0.55243  0.76744  1.0000
  O   O10       1.0  0.55243  0.79237  0.26744  1.0000
  O   O11       1.0  0.72015  0.53694  0.64940  1.0000
  O   O12       1.0  0.53694  0.72015  0.14940  1.0000
