data_image0
_chemical_formula_structural       Zn6H40C56N12O20
_chemical_formula_sum              "Zn6 H40 C56 N12 O20"
_cell_length_a       10.1021
_cell_length_b       12.1813
_cell_length_c       12.2171
_cell_angle_alpha    90.0001
_cell_angle_beta     105.17
_cell_angle_gamma    89.9996

_space_group_name_H-M_alt    "P 1"
_space_group_IT_number       1

loop_
  _space_group_symop_operation_xyz
  'x, y, z'

loop_
  _atom_site_type_symbol
  _atom_site_label
  _atom_site_symmetry_multiplicity
  _atom_site_fract_x
  _atom_site_fract_y
  _atom_site_fract_z
  _atom_site_occupancy
  Zn  Zn1       1.0  0.50000  0.50000  0.50000  1.0000
  Zn  Zn2       1.0  0.00000  0.00000  0.50000  1.0000
  Zn  Zn3       1.0  0.48691  0.86794  0.30122  1.0000
  Zn  Zn4       1.0  0.01309  0.36794  0.69878  1.0000
  Zn  Zn5       1.0  0.51309  0.13206  0.69878  1.0000
  Zn  Zn6       1.0  0.98691  0.63206  0.30122  1.0000
  H   H1        1.0  0.86783  0.92705  0.92507  1.0000
  H   H2        1.0  0.63217  0.42705  0.07494  1.0000
  H   H3        1.0  0.13217  0.07295  0.07493  1.0000
  H   H4        1.0  0.36783  0.57295  0.92507  1.0000
  H   H5        1.0  0.46177  0.52074  0.23868  1.0000
  H   H6        1.0  0.03823  0.02074  0.76133  1.0000
  H   H7        1.0  0.53823  0.47926  0.76132  1.0000
  H   H8        1.0  0.96177  0.97926  0.23867  1.0000
  H   H9        1.0  0.42296  0.38632  0.07713  1.0000
  H   H10       1.0  0.07704  0.88632  0.92287  1.0000
  H   H11       1.0  0.57704  0.61368  0.92287  1.0000
  H   H12       1.0  0.92296  0.11368  0.07713  1.0000
  H   H13       1.0  0.68311  0.04469  0.95453  1.0000
  H   H14       1.0  0.81688  0.54469  0.04547  1.0000
  H   H15       1.0  0.31688  0.95531  0.04547  1.0000
  H   H16       1.0  0.18312  0.45531  0.95453  1.0000
  H   H17       1.0  0.94741  0.76184  0.04634  1.0000
  H   H18       1.0  0.55259  0.26184  0.95365  1.0000
  H   H19       1.0  0.05259  0.23816  0.95366  1.0000
  H   H20       1.0  0.44741  0.73815  0.04634  1.0000
  H   H21       1.0  0.56394  0.00078  0.10538  1.0000
  H   H22       1.0  0.93605  0.50078  0.89462  1.0000
  H   H23       1.0  0.43606  0.99922  0.89462  1.0000
  H   H24       1.0  0.06395  0.49922  0.10538  1.0000
  H   H25       1.0  0.41219  0.18598  0.11850  1.0000
  H   H26       1.0  0.08781  0.68598  0.88150  1.0000
  H   H27       1.0  0.58781  0.81402  0.88150  1.0000
  H   H28       1.0  0.91219  0.31402  0.11850  1.0000
  H   H29       1.0  0.70127  0.66483  0.34327  1.0000
  H   H30       1.0  0.79873  0.16483  0.65673  1.0000
  H   H31       1.0  0.29873  0.33517  0.65673  1.0000
  H   H32       1.0  0.20127  0.83517  0.34327  1.0000
  H   H33       1.0  0.76110  0.47481  0.45273  1.0000
  H   H34       1.0  0.73890  0.97481  0.54727  1.0000
  H   H35       1.0  0.23890  0.52519  0.54727  1.0000
  H   H36       1.0  0.26110  0.02519  0.45273  1.0000
  H   H37       1.0  0.80235  0.51948  0.57903  1.0000
  H   H38       1.0  0.69765  0.01948  0.42097  1.0000
  H   H39       1.0  0.19765  0.48052  0.42097  1.0000
  H   H40       1.0  0.30235  0.98052  0.57903  1.0000
  C   C1        1.0  0.46618  0.29158  0.38325  1.0000
  C   C2        1.0  0.03382  0.79158  0.61675  1.0000
  C   C3        1.0  0.53382  0.70842  0.61675  1.0000
  C   C4        1.0  0.96618  0.20842  0.38325  1.0000
  C   C5        1.0  0.82029  0.90582  0.99257  1.0000
  C   C6        1.0  0.67971  0.40582  0.00743  1.0000
  C   C7        1.0  0.17971  0.09418  0.00743  1.0000
  C   C8        1.0  0.32029  0.59418  0.99257  1.0000
  C   C9        1.0  0.45700  0.43256  0.25223  1.0000
  C   C10       1.0  0.04300  0.93256  0.74778  1.0000
  C   C11       1.0  0.54300  0.56744  0.74778  1.0000
  C   C12       1.0  0.95700  0.06744  0.25222  1.0000
  C   C13       1.0  0.43615  0.35734  0.16337  1.0000
  C   C14       1.0  0.06385  0.85734  0.83663  1.0000
  C   C15       1.0  0.56385  0.64266  0.83663  1.0000
  C   C16       1.0  0.93615  0.14266  0.16336  1.0000
  C   C17       1.0  0.71268  0.97252  0.00824  1.0000
  C   C18       1.0  0.78732  0.47252  0.99177  1.0000
  C   C19       1.0  0.28732  0.02748  0.99176  1.0000
  C   C20       1.0  0.21268  0.52748  0.00824  1.0000
  C   C21       1.0  0.86403  0.81289  0.05899  1.0000
  C   C22       1.0  0.63597  0.31289  0.94101  1.0000
  C   C23       1.0  0.13597  0.18711  0.94101  1.0000
  C   C24       1.0  0.36403  0.68711  0.05899  1.0000
  C   C25       1.0  0.64511  0.94840  0.09111  1.0000
  C   C26       1.0  0.85488  0.44840  0.90889  1.0000
  C   C27       1.0  0.35488  0.05160  0.90889  1.0000
  C   C28       1.0  0.14511  0.55160  0.09111  1.0000
  C   C29       1.0  0.68696  0.85457  0.15699  1.0000
  C   C30       1.0  0.81304  0.35458  0.84300  1.0000
  C   C31       1.0  0.31304  0.14543  0.84300  1.0000
  C   C32       1.0  0.18696  0.64543  0.15700  1.0000
  C   C33       1.0  0.44238  0.21145  0.29836  1.0000
  C   C34       1.0  0.05762  0.71145  0.70164  1.0000
  C   C35       1.0  0.55762  0.78855  0.70164  1.0000
  C   C36       1.0  0.94238  0.28855  0.29836  1.0000
  C   C37       1.0  0.79547  0.78700  0.14170  1.0000
  C   C38       1.0  0.70452  0.28700  0.85829  1.0000
  C   C39       1.0  0.20452  0.21300  0.85830  1.0000
  C   C40       1.0  0.29548  0.71300  0.14171  1.0000
  C   C41       1.0  0.42272  0.09072  0.31697  1.0000
  C   C42       1.0  0.07728  0.59072  0.68302  1.0000
  C   C43       1.0  0.57729  0.90928  0.68303  1.0000
  C   C44       1.0  0.92272  0.40928  0.31697  1.0000
  C   C45       1.0  0.42976  0.24634  0.18663  1.0000
  C   C46       1.0  0.07024  0.74634  0.81337  1.0000
  C   C47       1.0  0.57024  0.75366  0.81337  1.0000
  C   C48       1.0  0.92976  0.25366  0.18663  1.0000
  C   C49       1.0  0.71471  0.71859  0.27594  1.0000
  C   C50       1.0  0.78529  0.21859  0.72405  1.0000
  C   C51       1.0  0.28529  0.28141  0.72406  1.0000
  C   C52       1.0  0.21471  0.78141  0.27595  1.0000
  C   C53       1.0  0.48874  0.26556  0.50733  1.0000
  C   C54       1.0  0.01126  0.76556  0.49268  1.0000
  C   C55       1.0  0.51126  0.73444  0.49267  1.0000
  C   C56       1.0  0.98874  0.23444  0.50732  1.0000
  N   N1        1.0  0.47215  0.39932  0.35898  1.0000
  N   N2        1.0  0.02786  0.89932  0.64102  1.0000
  N   N3        1.0  0.52785  0.60069  0.64102  1.0000
  N   N4        1.0  0.97214  0.10068  0.35898  1.0000
  N   N5        1.0  0.63832  0.80887  0.24291  1.0000
  N   N6        1.0  0.86168  0.30888  0.75708  1.0000
  N   N7        1.0  0.36168  0.19112  0.75709  1.0000
  N   N8        1.0  0.13832  0.69112  0.24292  1.0000
  N   N9        1.0  0.81068  0.70095  0.21895  1.0000
  N   N10       1.0  0.68931  0.20095  0.78105  1.0000
  N   N11       1.0  0.18932  0.29905  0.78105  1.0000
  N   N12       1.0  0.31069  0.79905  0.21895  1.0000
  O   O1        1.0  0.52435  0.02918  0.30838  1.0000
  O   O2        1.0  0.97565  0.52919  0.69161  1.0000
  O   O3        1.0  0.47565  0.97082  0.69162  1.0000
  O   O4        1.0  0.02435  0.47081  0.30838  1.0000
  O   O5        1.0  0.30993  0.05727  0.32706  1.0000
  O   O6        1.0  0.19007  0.55727  0.67294  1.0000
  O   O7        1.0  0.69007  0.94273  0.67294  1.0000
  O   O8        1.0  0.80993  0.44273  0.32706  1.0000
  O   O9        1.0  0.50471  0.34394  0.57758  1.0000
  O   O10       1.0  0.99530  0.84394  0.42242  1.0000
  O   O11       1.0  0.49530  0.65606  0.42242  1.0000
  O   O12       1.0  0.00470  0.15606  0.57758  1.0000
  O   O13       1.0  0.49070  0.16400  0.53346  1.0000
  O   O14       1.0  0.00930  0.66400  0.46654  1.0000
  O   O15       1.0  0.50930  0.83600  0.46654  1.0000
  O   O16       1.0  0.99070  0.33600  0.53346  1.0000
  O   O17       1.0  0.72395  0.49823  0.51629  1.0000
  O   O18       1.0  0.77605  0.99823  0.48370  1.0000
  O   O19       1.0  0.27605  0.50177  0.48371  1.0000
  O   O20       1.0  0.22395  0.00177  0.51630  1.0000
