data_image0
_chemical_formula_structural       Zn2H44C32N8O8
_chemical_formula_sum              "Zn2 H44 C32 N8 O8"
_cell_length_a       9.30667
_cell_length_b       9.51279
_cell_length_c       10.1993
_cell_angle_alpha    89.9999
_cell_angle_beta     90.0001
_cell_angle_gamma    104.16

_space_group_name_H-M_alt    "P 1"
_space_group_IT_number       1

loop_
  _space_group_symop_operation_xyz
  'x, y, z'

loop_
  _atom_site_type_symbol
  _atom_site_label
  _atom_site_symmetry_multiplicity
  _atom_site_fract_x
  _atom_site_fract_y
  _atom_site_fract_z
  _atom_site_occupancy
  Zn  Zn1       1.0  0.75000  0.75000  0.07591  1.0000
  Zn  Zn2       1.0  0.25000  0.25000  0.92409  1.0000
  H   H1        1.0  0.04933  0.17373  0.27476  1.0000
  H   H2        1.0  0.45066  0.32627  0.27476  1.0000
  H   H3        1.0  0.95066  0.82627  0.72524  1.0000
  H   H4        1.0  0.54934  0.67373  0.72524  1.0000
  H   H5        1.0  0.87368  0.12077  0.35058  1.0000
  H   H6        1.0  0.62632  0.37923  0.35058  1.0000
  H   H7        1.0  0.12632  0.87923  0.64942  1.0000
  H   H8        1.0  0.37368  0.62077  0.64942  1.0000
  H   H9        1.0  0.08554  0.15891  0.51414  1.0000
  H   H10       1.0  0.41446  0.34109  0.51414  1.0000
  H   H11       1.0  0.91446  0.84109  0.48586  1.0000
  H   H12       1.0  0.58554  0.65891  0.48586  1.0000
  H   H13       1.0  0.15172  0.02276  0.43331  1.0000
  H   H14       1.0  0.34828  0.47724  0.43331  1.0000
  H   H15       1.0  0.84828  0.97724  0.56669  1.0000
  H   H16       1.0  0.65172  0.52275  0.56669  1.0000
  H   H17       1.0  0.10383  0.76976  0.03772  1.0000
  H   H18       1.0  0.39618  0.73024  0.03771  1.0000
  H   H19       1.0  0.89618  0.23024  0.96229  1.0000
  H   H20       1.0  0.60382  0.26976  0.96229  1.0000
  H   H21       1.0  0.19228  0.59692  0.84327  1.0000
  H   H22       1.0  0.30772  0.90308  0.84326  1.0000
  H   H23       1.0  0.80772  0.40308  0.15674  1.0000
  H   H24       1.0  0.69228  0.09692  0.15673  1.0000
  H   H25       1.0  0.72903  0.54515  0.82288  1.0000
  H   H26       1.0  0.77097  0.95486  0.82288  1.0000
  H   H27       1.0  0.27097  0.45486  0.17712  1.0000
  H   H28       1.0  0.22902  0.04514  0.17712  1.0000
  H   H29       1.0  0.83738  0.39444  0.67480  1.0000
  H   H30       1.0  0.66262  0.10556  0.67480  1.0000
  H   H31       1.0  0.16262  0.60556  0.32520  1.0000
  H   H32       1.0  0.33738  0.89444  0.32520  1.0000
  H   H33       1.0  0.02163  0.38116  0.70312  1.0000
  H   H34       1.0  0.47837  0.11884  0.70312  1.0000
  H   H35       1.0  0.97837  0.61884  0.29688  1.0000
  H   H36       1.0  0.52163  0.88116  0.29688  1.0000
  H   H37       1.0  0.93142  0.62314  0.54573  1.0000
  H   H38       1.0  0.56858  0.87686  0.54573  1.0000
  H   H39       1.0  0.06858  0.37686  0.45427  1.0000
  H   H40       1.0  0.43142  0.12314  0.45427  1.0000
  H   H41       1.0  0.11606  0.61449  0.57525  1.0000
  H   H42       1.0  0.38394  0.88551  0.57525  1.0000
  H   H43       1.0  0.88394  0.38551  0.42475  1.0000
  H   H44       1.0  0.61606  0.11449  0.42475  1.0000
  C   C1        1.0  0.93981  0.95315  0.24153  1.0000
  C   C2        1.0  0.56019  0.54685  0.24153  1.0000
  C   C3        1.0  0.06019  0.04685  0.75848  1.0000
  C   C4        1.0  0.43982  0.45315  0.75848  1.0000
  C   C5        1.0  0.97566  0.08587  0.33057  1.0000
  C   C6        1.0  0.52434  0.41413  0.33057  1.0000
  C   C7        1.0  0.02434  0.91413  0.66943  1.0000
  C   C8        1.0  0.47566  0.58587  0.66943  1.0000
  C   C9        1.0  0.05047  0.05767  0.45759  1.0000
  C   C10       1.0  0.44953  0.44233  0.45759  1.0000
  C   C11       1.0  0.94953  0.94233  0.54241  1.0000
  C   C12       1.0  0.55048  0.55767  0.54241  1.0000
  C   C13       1.0  0.04151  0.70070  0.96221  1.0000
  C   C14       1.0  0.45849  0.79930  0.96221  1.0000
  C   C15       1.0  0.95849  0.29930  0.03779  1.0000
  C   C16       1.0  0.54151  0.20070  0.03779  1.0000
  C   C17       1.0  0.08614  0.61868  0.86677  1.0000
  C   C18       1.0  0.41386  0.88132  0.86676  1.0000
  C   C19       1.0  0.91386  0.38132  0.13323  1.0000
  C   C20       1.0  0.58614  0.11868  0.13323  1.0000
  C   C21       1.0  0.84289  0.59020  0.85422  1.0000
  C   C22       1.0  0.65711  0.90980  0.85422  1.0000
  C   C23       1.0  0.15711  0.40980  0.14579  1.0000
  C   C24       1.0  0.34289  0.09020  0.14578  1.0000
  C   C25       1.0  0.95273  0.45765  0.68432  1.0000
  C   C26       1.0  0.54727  0.04235  0.68432  1.0000
  C   C27       1.0  0.04727  0.54235  0.31568  1.0000
  C   C28       1.0  0.45273  0.95765  0.31568  1.0000
  C   C29       1.0  0.00256  0.54748  0.56063  1.0000
  C   C30       1.0  0.49744  0.95252  0.56063  1.0000
  C   C31       1.0  0.99744  0.45252  0.43937  1.0000
  C   C32       1.0  0.50256  0.04748  0.43937  1.0000
  N   N1        1.0  0.88969  0.68208  0.95336  1.0000
  N   N2        1.0  0.61031  0.81792  0.95336  1.0000
  N   N3        1.0  0.11031  0.31792  0.04664  1.0000
  N   N4        1.0  0.38969  0.18208  0.04664  1.0000
  N   N5        1.0  0.95934  0.54977  0.79994  1.0000
  N   N6        1.0  0.54066  0.95023  0.79993  1.0000
  N   N7        1.0  0.04066  0.45023  0.20007  1.0000
  N   N8        1.0  0.45933  0.04977  0.20006  1.0000
  O   O1        1.0  0.80823  0.92216  0.19061  1.0000
  O   O2        1.0  0.69176  0.57785  0.19061  1.0000
  O   O3        1.0  0.19177  0.07785  0.80939  1.0000
  O   O4        1.0  0.30824  0.42215  0.80939  1.0000
  O   O5        1.0  0.03571  0.88327  0.22135  1.0000
  O   O6        1.0  0.46428  0.61673  0.22135  1.0000
  O   O7        1.0  0.96429  0.11673  0.77865  1.0000
  O   O8        1.0  0.53572  0.38327  0.77865  1.0000
