data_image0
_chemical_formula_structural       Zn4H36C20N4O20
_chemical_formula_sum              "Zn4 H36 C20 N4 O20"
_cell_length_a       6.68601
_cell_length_b       7.61408
_cell_length_c       14.0624
_cell_angle_alpha    96.4874
_cell_angle_beta     90.0004
_cell_angle_gamma    89.9995

_space_group_name_H-M_alt    "P 1"
_space_group_IT_number       1

loop_
  _space_group_symop_operation_xyz
  'x, y, z'

loop_
  _atom_site_type_symbol
  _atom_site_label
  _atom_site_symmetry_multiplicity
  _atom_site_fract_x
  _atom_site_fract_y
  _atom_site_fract_z
  _atom_site_occupancy
  Zn  Zn1       1.0  0.86844  0.51993  0.82073  1.0000
  Zn  Zn2       1.0  0.36845  0.98008  0.67927  1.0000
  Zn  Zn3       1.0  0.13155  0.48007  0.17927  1.0000
  Zn  Zn4       1.0  0.63155  0.01992  0.32073  1.0000
  H   H1        1.0  0.77796  0.57934  0.99737  1.0000
  H   H2        1.0  0.27796  0.92066  0.50263  1.0000
  H   H3        1.0  0.22204  0.42066  0.00263  1.0000
  H   H4        1.0  0.72204  0.07934  0.49737  1.0000
  H   H5        1.0  0.83880  0.46732  0.59374  1.0000
  H   H6        1.0  0.33880  0.03268  0.90626  1.0000
  H   H7        1.0  0.16120  0.53268  0.40626  1.0000
  H   H8        1.0  0.66121  0.96732  0.09374  1.0000
  H   H9        1.0  0.60274  0.43061  0.53400  1.0000
  H   H10       1.0  0.10275  0.06939  0.96601  1.0000
  H   H11       1.0  0.39726  0.56940  0.46600  1.0000
  H   H12       1.0  0.89725  0.93061  0.03399  1.0000
  H   H13       1.0  0.75474  0.26998  0.97580  1.0000
  H   H14       1.0  0.25474  0.23002  0.52419  1.0000
  H   H15       1.0  0.24526  0.73002  0.02420  1.0000
  H   H16       1.0  0.74526  0.76998  0.47581  1.0000
  H   H17       1.0  0.53515  0.28533  0.90659  1.0000
  H   H18       1.0  0.03515  0.21467  0.59341  1.0000
  H   H19       1.0  0.46485  0.71467  0.09341  1.0000
  H   H20       1.0  0.96485  0.78533  0.40659  1.0000
  H   H21       1.0  0.41505  0.58934  0.87874  1.0000
  H   H22       1.0  0.91506  0.91066  0.62126  1.0000
  H   H23       1.0  0.58495  0.41066  0.12126  1.0000
  H   H24       1.0  0.08495  0.08933  0.37874  1.0000
  H   H25       1.0  0.55623  0.77373  0.92847  1.0000
  H   H26       1.0  0.05624  0.72628  0.57153  1.0000
  H   H27       1.0  0.44377  0.22628  0.07153  1.0000
  H   H28       1.0  0.94376  0.27372  0.42846  1.0000
  H   H29       1.0  0.16300  0.40194  0.72033  1.0000
  H   H30       1.0  0.66300  0.09806  0.77967  1.0000
  H   H31       1.0  0.83700  0.59805  0.27967  1.0000
  H   H32       1.0  0.33699  0.90195  0.22033  1.0000
  H   H33       1.0  0.14685  0.61987  0.72116  1.0000
  H   H34       1.0  0.64685  0.88013  0.77884  1.0000
  H   H35       1.0  0.85314  0.38012  0.27884  1.0000
  H   H36       1.0  0.35315  0.11988  0.22116  1.0000
  C   C1        1.0  0.61236  0.63123  0.65720  1.0000
  C   C2        1.0  0.11239  0.86878  0.84278  1.0000
  C   C3        1.0  0.38764  0.36878  0.34280  1.0000
  C   C4        1.0  0.88762  0.13121  0.15722  1.0000
  C   C5        1.0  0.67597  0.45510  0.60372  1.0000
  C   C6        1.0  0.17597  0.04490  0.89629  1.0000
  C   C7        1.0  0.32402  0.54490  0.39628  1.0000
  C   C8        1.0  0.82403  0.95510  0.10371  1.0000
  C   C9        1.0  0.64800  0.29469  0.65796  1.0000
  C   C10       1.0  0.14802  0.20529  0.84203  1.0000
  C   C11       1.0  0.35199  0.70531  0.34204  1.0000
  C   C12       1.0  0.85198  0.79471  0.15797  1.0000
  C   C13       1.0  0.61990  0.34894  0.96792  1.0000
  C   C14       1.0  0.11990  0.15106  0.53208  1.0000
  C   C15       1.0  0.38010  0.65106  0.03209  1.0000
  C   C16       1.0  0.88010  0.84894  0.46792  1.0000
  C   C17       1.0  0.50562  0.64107  0.94097  1.0000
  C   C18       1.0  0.00562  0.85893  0.55903  1.0000
  C   C19       1.0  0.49438  0.35893  0.05903  1.0000
  C   C20       1.0  0.99438  0.14107  0.44097  1.0000
  N   N1        1.0  0.68339  0.52524  0.94381  1.0000
  N   N2        1.0  0.18340  0.97477  0.55619  1.0000
  N   N3        1.0  0.31661  0.47477  0.05619  1.0000
  N   N4        1.0  0.81661  0.02523  0.44380  1.0000
  O   O1        1.0  0.68454  0.67442  0.74109  1.0000
  O   O2        1.0  0.18453  0.82559  0.75892  1.0000
  O   O3        1.0  0.31546  0.32558  0.25890  1.0000
  O   O4        1.0  0.81547  0.17441  0.24108  1.0000
  O   O5        1.0  0.49763  0.72970  0.61510  1.0000
  O   O6        1.0  0.99763  0.77029  0.88491  1.0000
  O   O7        1.0  0.50236  0.27030  0.38491  1.0000
  O   O8        1.0  0.00238  0.22971  0.11509  1.0000
  O   O9        1.0  0.71666  0.29702  0.74287  1.0000
  O   O10       1.0  0.21665  0.20299  0.75715  1.0000
  O   O11       1.0  0.28333  0.70298  0.25713  1.0000
  O   O12       1.0  0.78335  0.79701  0.24285  1.0000
  O   O13       1.0  0.56123  0.16120  0.61323  1.0000
  O   O14       1.0  0.06121  0.33882  0.88678  1.0000
  O   O15       1.0  0.43877  0.83880  0.38676  1.0000
  O   O16       1.0  0.93879  0.66118  0.11322  1.0000
  O   O17       1.0  0.07811  0.50295  0.70530  1.0000
  O   O18       1.0  0.57812  0.99705  0.79470  1.0000
  O   O19       1.0  0.92188  0.49705  0.29470  1.0000
  O   O20       1.0  0.42188  0.00295  0.20530  1.0000
