data_image0
_chemical_formula_structural       Cd4H32C56S16N8
_chemical_formula_sum              "Cd4 H32 C56 S16 N8"
_cell_length_a       7.13356
_cell_length_b       10.2577
_cell_length_c       22.523
_cell_angle_alpha    84.5042
_cell_angle_beta     80.8611
_cell_angle_gamma    69.694

_space_group_name_H-M_alt    "P 1"
_space_group_IT_number       1

loop_
  _space_group_symop_operation_xyz
  'x, y, z'

loop_
  _atom_site_type_symbol
  _atom_site_label
  _atom_site_symmetry_multiplicity
  _atom_site_fract_x
  _atom_site_fract_y
  _atom_site_fract_z
  _atom_site_occupancy
  Cd  Cd1       1.0  0.74705  0.49263  0.03606  1.0000
  Cd  Cd2       1.0  0.27559  0.00725  0.46380  1.0000
  Cd  Cd3       1.0  0.25295  0.50737  0.96393  1.0000
  Cd  Cd4       1.0  0.72440  0.99275  0.53620  1.0000
  H   H1        1.0  0.31312  0.84653  0.92771  1.0000
  H   H2        1.0  0.08804  0.65317  0.57264  1.0000
  H   H3        1.0  0.68687  0.15346  0.07228  1.0000
  H   H4        1.0  0.91197  0.34684  0.42736  1.0000
  H   H5        1.0  0.44898  0.87221  0.82064  1.0000
  H   H6        1.0  0.14239  0.62717  0.67968  1.0000
  H   H7        1.0  0.55101  0.12778  0.17935  1.0000
  H   H8        1.0  0.85761  0.37284  0.32032  1.0000
  H   H9        1.0  0.50068  0.09188  0.77927  1.0000
  H   H10       1.0  0.37230  0.40751  0.72090  1.0000
  H   H11       1.0  0.49932  0.90812  0.22072  1.0000
  H   H12       1.0  0.62769  0.59249  0.27911  1.0000
  H   H13       1.0  0.40949  0.29409  0.84476  1.0000
  H   H14       1.0  0.54885  0.20558  0.65526  1.0000
  H   H15       1.0  0.59053  0.70590  0.15524  1.0000
  H   H16       1.0  0.45113  0.79442  0.34474  1.0000
  H   H17       1.0  0.92950  0.44391  0.70951  1.0000
  H   H18       1.0  0.08482  0.05540  0.79032  1.0000
  H   H19       1.0  0.07050  0.55609  0.29049  1.0000
  H   H20       1.0  0.91515  0.94461  0.20968  1.0000
  H   H21       1.0  0.66525  0.62589  0.65840  1.0000
  H   H22       1.0  0.95019  0.87390  0.84160  1.0000
  H   H23       1.0  0.33475  0.37411  0.34160  1.0000
  H   H24       1.0  0.04984  0.12610  0.15840  1.0000
  H   H25       1.0  0.33368  0.74971  0.71447  1.0000
  H   H26       1.0  0.79763  0.75032  0.78570  1.0000
  H   H27       1.0  0.66632  0.25030  0.28553  1.0000
  H   H28       1.0  0.20240  0.24967  0.21430  1.0000
  H   H29       1.0  0.24798  0.68636  0.82291  1.0000
  H   H30       1.0  0.75713  0.81363  0.67726  1.0000
  H   H31       1.0  0.75203  0.31365  0.17710  1.0000
  H   H32       1.0  0.24289  0.18635  0.32274  1.0000
  C   C1        1.0  0.18030  0.24416  0.01857  1.0000
  C   C2        1.0  0.44322  0.25586  0.48152  1.0000
  C   C3        1.0  0.81970  0.75583  0.98143  1.0000
  C   C4        1.0  0.55676  0.74414  0.51848  1.0000
  C   C5        1.0  0.28531  0.05622  0.94673  1.0000
  C   C6        1.0  0.28904  0.44367  0.55344  1.0000
  C   C7        1.0  0.71470  0.94378  0.05326  1.0000
  C   C8        1.0  0.71096  0.55633  0.44656  1.0000
  C   C9        1.0  0.33374  0.94374  0.90993  1.0000
  C   C10       1.0  0.18822  0.55599  0.59033  1.0000
  C   C11       1.0  0.66626  0.05625  0.09007  1.0000
  C   C12       1.0  0.81178  0.44401  0.40967  1.0000
  C   C13       1.0  0.41047  0.95895  0.84985  1.0000
  C   C14       1.0  0.22001  0.54060  0.65040  1.0000
  C   C15       1.0  0.58954  0.04104  0.15015  1.0000
  C   C16       1.0  0.77999  0.45940  0.34960  1.0000
  C   C17       1.0  0.43875  0.08381  0.82640  1.0000
  C   C18       1.0  0.34961  0.41572  0.67377  1.0000
  C   C19       1.0  0.56125  0.91618  0.17360  1.0000
  C   C20       1.0  0.65037  0.58428  0.32624  1.0000
  C   C21       1.0  0.38986  0.19645  0.86254  1.0000
  C   C22       1.0  0.44964  0.30329  0.63752  1.0000
  C   C23       1.0  0.61016  0.80354  0.13745  1.0000
  C   C24       1.0  0.55035  0.69671  0.36249  1.0000
  C   C25       1.0  0.68827  0.81695  0.07688  1.0000
  C   C26       1.0  0.58137  0.68316  0.42304  1.0000
  C   C27       1.0  0.31174  0.18304  0.92312  1.0000
  C   C28       1.0  0.41862  0.31684  0.57697  1.0000
  C   C29       1.0  0.68809  0.39127  0.90300  1.0000
  C   C30       1.0  0.98310  0.10857  0.59699  1.0000
  C   C31       1.0  0.31192  0.60873  0.09699  1.0000
  C   C32       1.0  0.01686  0.89145  0.40301  1.0000
  C   C33       1.0  0.73619  0.46452  0.79540  1.0000
  C   C34       1.0  0.99746  0.03498  0.70452  1.0000
  C   C35       1.0  0.26382  0.53549  0.20459  1.0000
  C   C36       1.0  0.00253  0.96503  0.29548  1.0000
  C   C37       1.0  0.78213  0.49635  0.73430  1.0000
  C   C38       1.0  0.01428  0.00311  0.76560  1.0000
  C   C39       1.0  0.21788  0.50365  0.26570  1.0000
  C   C40       1.0  0.98573  0.99689  0.23440  1.0000
  C   C41       1.0  0.63426  0.59876  0.70604  1.0000
  C   C42       1.0  0.93982  0.90099  0.79396  1.0000
  C   C43       1.0  0.36574  0.40125  0.29396  1.0000
  C   C44       1.0  0.06019  0.09901  0.20604  1.0000
  C   C45       1.0  0.44461  0.66854  0.73783  1.0000
  C   C46       1.0  0.85119  0.83135  0.76228  1.0000
  C   C47       1.0  0.55539  0.33147  0.26218  1.0000
  C   C48       1.0  0.14882  0.16864  0.23772  1.0000
  C   C49       1.0  0.39603  0.63462  0.79824  1.0000
  C   C50       1.0  0.82912  0.86526  0.70187  1.0000
  C   C51       1.0  0.60398  0.36539  0.20176  1.0000
  C   C52       1.0  0.17089  0.13472  0.29813  1.0000
  C   C53       1.0  0.45715  0.46827  0.17249  1.0000
  C   C54       1.0  0.09724  0.03197  0.32747  1.0000
  C   C55       1.0  0.54285  0.53174  0.82751  1.0000
  C   C56       1.0  0.90276  0.96802  0.67253  1.0000
  S   S1        1.0  0.08711  0.35371  0.07771  1.0000
  S   S2        1.0  0.51833  0.14657  0.42230  1.0000
  S   S3        1.0  0.91290  0.64628  0.92229  1.0000
  S   S4        1.0  0.48165  0.85344  0.57770  1.0000
  S   S5        1.0  0.18794  0.07174  0.02258  1.0000
  S   S6        1.0  0.28268  0.42827  0.47762  1.0000
  S   S7        1.0  0.81207  0.92826  0.97742  1.0000
  S   S8        1.0  0.71731  0.57174  0.52238  1.0000
  S   S9        1.0  0.70960  0.31089  0.97308  1.0000
  S   S10       1.0  0.99407  0.18907  0.52692  1.0000
  S   S11       1.0  0.29041  0.68911  0.02691  1.0000
  S   S12       1.0  0.00590  0.81093  0.47308  1.0000
  S   S13       1.0  0.88689  0.34785  0.84395  1.0000
  S   S14       1.0  0.08018  0.15169  0.65592  1.0000
  S   S15       1.0  0.11312  0.65215  0.15604  1.0000
  S   S16       1.0  0.91980  0.84832  0.34408  1.0000
  N   N1        1.0  0.74874  0.71485  0.03527  1.0000
  N   N2        1.0  0.49846  0.78520  0.46468  1.0000
  N   N3        1.0  0.25128  0.28514  0.96472  1.0000
  N   N4        1.0  0.50152  0.21481  0.53532  1.0000
  N   N5        1.0  0.47915  0.51364  0.11276  1.0000
  N   N6        1.0  0.10515  0.98644  0.38717  1.0000
  N   N7        1.0  0.52087  0.48637  0.88724  1.0000
  N   N8        1.0  0.89485  0.01355  0.61284  1.0000
