data_image0
_chemical_formula_structural       Cd4H32C40S8N8
_chemical_formula_sum              "Cd4 H32 C40 S8 N8"
_cell_length_a       7.24577
_cell_length_b       9.39378
_cell_length_c       18.0985
_cell_angle_alpha    79.2062
_cell_angle_beta     78.4665
_cell_angle_gamma    67.3361

_space_group_name_H-M_alt    "P 1"
_space_group_IT_number       1

loop_
  _space_group_symop_operation_xyz
  'x, y, z'

loop_
  _atom_site_type_symbol
  _atom_site_label
  _atom_site_symmetry_multiplicity
  _atom_site_fract_x
  _atom_site_fract_y
  _atom_site_fract_z
  _atom_site_occupancy
  Cd  Cd1       1.0  0.74989  0.49244  0.53054  1.0000
  Cd  Cd2       1.0  0.77300  0.00746  0.96941  1.0000
  Cd  Cd3       1.0  0.25011  0.50757  0.46946  1.0000
  Cd  Cd4       1.0  0.22700  0.99254  0.03059  1.0000
  H   H1        1.0  0.15038  0.36003  0.70109  1.0000
  H   H2        1.0  0.21117  0.13981  0.79898  1.0000
  H   H3        1.0  0.84963  0.63997  0.29891  1.0000
  H   H4        1.0  0.78883  0.86020  0.20102  1.0000
  H   H5        1.0  0.09185  0.50961  0.80989  1.0000
  H   H6        1.0  0.41056  0.99027  0.69019  1.0000
  H   H7        1.0  0.90815  0.49038  0.19011  1.0000
  H   H8        1.0  0.58944  0.00973  0.30981  1.0000
  H   H9        1.0  0.30654  0.66844  0.80645  1.0000
  H   H10       1.0  0.78059  0.83160  0.69350  1.0000
  H   H11       1.0  0.69347  0.33155  0.19355  1.0000
  H   H12       1.0  0.21940  0.16840  0.30650  1.0000
  H   H13       1.0  0.57432  0.66583  0.69241  1.0000
  H   H14       1.0  0.93206  0.83423  0.80750  1.0000
  H   H15       1.0  0.42568  0.33417  0.30759  1.0000
  H   H16       1.0  0.06793  0.16577  0.19250  1.0000
  H   H17       1.0  0.34205  0.00498  0.45263  1.0000
  H   H18       1.0  0.79934  0.49506  0.04762  1.0000
  H   H19       1.0  0.65796  0.99502  0.54737  1.0000
  H   H20       1.0  0.20066  0.50494  0.95238  1.0000
  H   H21       1.0  0.34405  0.81691  0.56945  1.0000
  H   H22       1.0  0.72991  0.68314  0.93084  1.0000
  H   H23       1.0  0.65595  0.18309  0.43055  1.0000
  H   H24       1.0  0.27008  0.31685  0.06916  1.0000
  H   H25       1.0  0.09950  0.90565  0.68605  1.0000
  H   H26       1.0  0.69094  0.59437  0.81418  1.0000
  H   H27       1.0  0.90050  0.09436  0.31395  1.0000
  H   H28       1.0  0.30905  0.40563  0.18582  1.0000
  H   H29       1.0  0.85513  0.18326  0.67881  1.0000
  H   H30       1.0  0.71708  0.31668  0.82137  1.0000
  H   H31       1.0  0.14487  0.81674  0.32119  1.0000
  H   H32       1.0  0.28292  0.68332  0.17863  1.0000
  C   C1        1.0  0.39939  0.42718  0.64226  1.0000
  C   C2        1.0  0.46861  0.07275  0.85776  1.0000
  C   C3        1.0  0.60061  0.57283  0.35773  1.0000
  C   C4        1.0  0.53139  0.92725  0.14225  1.0000
  C   C5        1.0  0.24243  0.42741  0.70244  1.0000
  C   C6        1.0  0.37190  0.07247  0.79761  1.0000
  C   C7        1.0  0.75758  0.57258  0.29755  1.0000
  C   C8        1.0  0.62809  0.92753  0.20239  1.0000
  C   C9        1.0  0.20962  0.51223  0.76210  1.0000
  C   C10       1.0  0.48330  0.98767  0.73795  1.0000
  C   C11       1.0  0.79039  0.48777  0.23790  1.0000
  C   C12       1.0  0.51669  0.01234  0.26205  1.0000
  C   C13       1.0  0.32868  0.60033  0.76054  1.0000
  C   C14       1.0  0.68889  0.89963  0.73945  1.0000
  C   C15       1.0  0.67132  0.39966  0.23946  1.0000
  C   C16       1.0  0.31111  0.10037  0.26055  1.0000
  C   C17       1.0  0.47743  0.59824  0.69851  1.0000
  C   C18       1.0  0.77368  0.90173  0.80145  1.0000
  C   C19       1.0  0.52258  0.40175  0.30149  1.0000
  C   C20       1.0  0.22632  0.09827  0.19855  1.0000
  C   C21       1.0  0.10185  0.19551  0.50487  1.0000
  C   C22       1.0  0.80209  0.30443  0.99535  1.0000
  C   C23       1.0  0.89815  0.80449  0.49513  1.0000
  C   C24       1.0  0.19791  0.69557  0.00465  1.0000
  C   C25       1.0  0.23953  0.04167  0.50410  1.0000
  C   C26       1.0  0.78494  0.45832  0.99616  1.0000
  C   C27       1.0  0.76047  0.95833  0.49590  1.0000
  C   C28       1.0  0.21506  0.54168  0.00384  1.0000
  C   C29       1.0  0.23985  0.93709  0.56946  1.0000
  C   C30       1.0  0.74603  0.56294  0.93080  1.0000
  C   C31       1.0  0.76015  0.06291  0.43055  1.0000
  C   C32       1.0  0.25396  0.43706  0.06920  1.0000
  C   C33       1.0  0.10399  0.98599  0.63456  1.0000
  C   C34       1.0  0.72433  0.51400  0.86565  1.0000
  C   C35       1.0  0.89601  0.01402  0.36545  1.0000
  C   C36       1.0  0.27567  0.48599  0.13435  1.0000
  C   C37       1.0  0.97018  0.13925  0.63100  1.0000
  C   C38       1.0  0.74038  0.36069  0.86917  1.0000
  C   C39       1.0  0.02983  0.86076  0.36900  1.0000
  C   C40       1.0  0.25962  0.63931  0.13083  1.0000
  S   S1        1.0  0.08052  0.33596  0.42544  1.0000
  S   S2        1.0  0.84213  0.16390  0.07473  1.0000
  S   S3        1.0  0.91948  0.66404  0.57456  1.0000
  S   S4        1.0  0.15787  0.83610  0.92527  1.0000
  S   S5        1.0  0.46270  0.31478  0.56815  1.0000
  S   S6        1.0  0.34561  0.18515  0.93186  1.0000
  S   S7        1.0  0.53731  0.68522  0.43185  1.0000
  S   S8        1.0  0.65438  0.81485  0.06814  1.0000
  N   N1        1.0  0.51308  0.51336  0.64157  1.0000
  N   N2        1.0  0.66772  0.98660  0.85841  1.0000
  N   N3        1.0  0.48692  0.48664  0.35843  1.0000
  N   N4        1.0  0.33227  0.01340  0.14159  1.0000
  N   N5        1.0  0.96988  0.24091  0.56810  1.0000
  N   N6        1.0  0.77883  0.25902  0.93207  1.0000
  N   N7        1.0  0.03012  0.75909  0.43190  1.0000
  N   N8        1.0  0.22117  0.74098  0.06793  1.0000
