data_image0
_chemical_formula_structural       Tm2H28C30O20
_chemical_formula_sum              "Tm2 H28 C30 O20"
_cell_length_a       6.06165
_cell_length_b       10.5886
_cell_length_c       13.4171
_cell_angle_alpha    112.553
_cell_angle_beta     96.8334
_cell_angle_gamma    97.7324

_space_group_name_H-M_alt    "P 1"
_space_group_IT_number       1

loop_
  _space_group_symop_operation_xyz
  'x, y, z'

loop_
  _atom_site_type_symbol
  _atom_site_label
  _atom_site_symmetry_multiplicity
  _atom_site_fract_x
  _atom_site_fract_y
  _atom_site_fract_z
  _atom_site_occupancy
  Tm  Tm1       1.0  0.58380  0.63182  0.71110  1.0000
  Tm  Tm2       1.0  0.41620  0.36818  0.28890  1.0000
  H   H1        1.0  0.13855  0.12055  0.43443  1.0000
  H   H2        1.0  0.86145  0.87945  0.56557  1.0000
  H   H3        1.0  0.42515  0.11701  0.42281  1.0000
  H   H4        1.0  0.57485  0.88299  0.57719  1.0000
  H   H5        1.0  0.98310  0.24237  0.57868  1.0000
  H   H6        1.0  0.01690  0.75763  0.42132  1.0000
  H   H7        1.0  0.72892  0.24837  0.70864  1.0000
  H   H8        1.0  0.27108  0.75163  0.29137  1.0000
  H   H9        1.0  0.11083  0.00348  0.82986  1.0000
  H   H10       1.0  0.88917  0.99652  0.17014  1.0000
  H   H11       1.0  0.36539  0.99734  0.69992  1.0000
  H   H12       1.0  0.63460  0.00266  0.30008  1.0000
  H   H13       1.0  0.64043  0.09603  0.97082  1.0000
  H   H14       1.0  0.35957  0.90397  0.02918  1.0000
  H   H15       1.0  0.93092  0.08661  0.96915  1.0000
  H   H16       1.0  0.06907  0.91339  0.03085  1.0000
  H   H17       1.0  0.03005  0.46076  0.87381  1.0000
  H   H18       1.0  0.96995  0.53924  0.12619  1.0000
  H   H19       1.0  0.04060  0.64015  0.95777  1.0000
  H   H20       1.0  0.95940  0.35984  0.04223  1.0000
  H   H21       1.0  0.72868  0.73225  0.03822  1.0000
  H   H22       1.0  0.27133  0.26775  0.96178  1.0000
  H   H23       1.0  0.48219  0.30006  0.82218  1.0000
  H   H24       1.0  0.51781  0.69994  0.17782  1.0000
  H   H25       1.0  0.12483  0.62041  0.62312  1.0000
  H   H26       1.0  0.87517  0.37959  0.37688  1.0000
  H   H27       1.0  0.24255  0.52945  0.52518  1.0000
  H   H28       1.0  0.75745  0.47055  0.47482  1.0000
  C   C1        1.0  0.36713  0.31800  0.51730  1.0000
  C   C2        1.0  0.63286  0.68199  0.48270  1.0000
  C   C3        1.0  0.31382  0.16079  0.48073  1.0000
  C   C4        1.0  0.68618  0.83921  0.51928  1.0000
  C   C5        1.0  0.19684  0.12138  0.63199  1.0000
  C   C6        1.0  0.80315  0.87862  0.36801  1.0000
  C   C7        1.0  0.01614  0.19161  0.63427  1.0000
  C   C8        1.0  0.98386  0.80839  0.36573  1.0000
  C   C9        1.0  0.87159  0.19600  0.70854  1.0000
  C   C10       1.0  0.12841  0.80400  0.29147  1.0000
  C   C11       1.0  0.90538  0.13119  0.78081  1.0000
  C   C12       1.0  0.09461  0.86881  0.21919  1.0000
  C   C13       1.0  0.08216  0.05778  0.77644  1.0000
  C   C14       1.0  0.91783  0.94222  0.22357  1.0000
  C   C15       1.0  0.22669  0.05329  0.70224  1.0000
  C   C16       1.0  0.77331  0.94670  0.29776  1.0000
  C   C17       1.0  0.76396  0.06449  0.91647  1.0000
  C   C18       1.0  0.23604  0.93551  0.08353  1.0000
  C   C19       1.0  0.69354  0.90823  0.84677  1.0000
  C   C20       1.0  0.30646  0.09178  0.15323  1.0000
  C   C21       1.0  0.08771  0.59785  0.79303  1.0000
  C   C22       1.0  0.91229  0.40215  0.20696  1.0000
  C   C23       1.0  0.97909  0.55719  0.87477  1.0000
  C   C24       1.0  0.02091  0.44281  0.12523  1.0000
  C   C25       1.0  0.61988  0.51724  0.92383  1.0000
  C   C26       1.0  0.38012  0.48276  0.07617  1.0000
  C   C27       1.0  0.63120  0.63039  0.02272  1.0000
  C   C28       1.0  0.36880  0.36961  0.97727  1.0000
  C   C29       1.0  0.48934  0.38717  0.89978  1.0000
  C   C30       1.0  0.51066  0.61282  0.10022  1.0000
  O   O1        1.0  0.46877  0.39642  0.61393  1.0000
  O   O2        1.0  0.53123  0.60358  0.38608  1.0000
  O   O3        1.0  0.30132  0.36263  0.44425  1.0000
  O   O4        1.0  0.69869  0.63737  0.55575  1.0000
  O   O5        1.0  0.75716  0.82374  0.88578  1.0000
  O   O6        1.0  0.24285  0.17626  0.11422  1.0000
  O   O7        1.0  0.57160  0.86343  0.75120  1.0000
  O   O8        1.0  0.42840  0.13657  0.24880  1.0000
  O   O9        1.0  0.35444  0.11343  0.56531  1.0000
  O   O10       1.0  0.64556  0.88657  0.43470  1.0000
  O   O11       1.0  0.75805  0.14670  0.85410  1.0000
  O   O12       1.0  0.24195  0.85330  0.14590  1.0000
  O   O13       1.0  0.95762  0.61138  0.71708  1.0000
  O   O14       1.0  0.04238  0.38862  0.28292  1.0000
  O   O15       1.0  0.30069  0.61563  0.80419  1.0000
  O   O16       1.0  0.69931  0.38437  0.19581  1.0000
  O   O17       1.0  0.73658  0.53455  0.84384  1.0000
  O   O18       1.0  0.26342  0.46545  0.15616  1.0000
  O   O19       1.0  0.26050  0.62086  0.58804  1.0000
  O   O20       1.0  0.73950  0.37914  0.41196  1.0000
