data_image0
_chemical_formula_structural       Yb2H28C30O20
_chemical_formula_sum              "Yb2 H28 C30 O20"
_cell_length_a       6.04644
_cell_length_b       10.584
_cell_length_c       13.4151
_cell_angle_alpha    112.543
_cell_angle_beta     96.8868
_cell_angle_gamma    97.728

_space_group_name_H-M_alt    "P 1"
_space_group_IT_number       1

loop_
  _space_group_symop_operation_xyz
  'x, y, z'

loop_
  _atom_site_type_symbol
  _atom_site_label
  _atom_site_symmetry_multiplicity
  _atom_site_fract_x
  _atom_site_fract_y
  _atom_site_fract_z
  _atom_site_occupancy
  Yb  Yb1       1.0  0.08364  0.13193  0.21084  1.0000
  Yb  Yb2       1.0  0.91636  0.86807  0.78916  1.0000
  H   H1        1.0  0.53207  0.96196  0.37439  1.0000
  H   H2        1.0  0.46793  0.03804  0.62561  1.0000
  H   H3        1.0  0.54101  0.14142  0.45771  1.0000
  H   H4        1.0  0.45899  0.85858  0.54229  1.0000
  H   H5        1.0  0.22814  0.23250  0.53785  1.0000
  H   H6        1.0  0.77186  0.76750  0.46215  1.0000
  H   H7        1.0  0.98265  0.79974  0.32243  1.0000
  H   H8        1.0  0.01735  0.20026  0.67757  1.0000
  H   H9        1.0  0.63896  0.62093  0.93473  1.0000
  H   H10       1.0  0.36104  0.37907  0.06527  1.0000
  H   H11       1.0  0.92634  0.61778  0.92322  1.0000
  H   H12       1.0  0.07366  0.38223  0.07678  1.0000
  H   H13       1.0  0.86663  0.49713  0.19978  1.0000
  H   H14       1.0  0.13337  0.50287  0.80022  1.0000
  H   H15       1.0  0.61151  0.50272  0.32958  1.0000
  H   H16       1.0  0.38848  0.49728  0.67042  1.0000
  H   H17       1.0  0.22881  0.74853  0.20908  1.0000
  H   H18       1.0  0.77119  0.25147  0.79092  1.0000
  H   H19       1.0  0.48347  0.74301  0.07923  1.0000
  H   H20       1.0  0.51653  0.25699  0.92076  1.0000
  H   H21       1.0  0.13944  0.59459  0.47032  1.0000
  H   H22       1.0  0.86056  0.40541  0.52968  1.0000
  H   H23       1.0  0.43092  0.58582  0.46915  1.0000
  H   H24       1.0  0.56908  0.41418  0.53085  1.0000
  H   H25       1.0  0.62470  0.12089  0.12309  1.0000
  H   H26       1.0  0.37530  0.87911  0.87691  1.0000
  H   H27       1.0  0.74289  0.02997  0.02523  1.0000
  H   H28       1.0  0.25711  0.97003  0.97477  1.0000
  C   C1        1.0  0.58812  0.09848  0.29290  1.0000
  C   C2        1.0  0.41189  0.90152  0.70710  1.0000
  C   C3        1.0  0.47991  0.05797  0.37483  1.0000
  C   C4        1.0  0.52010  0.94203  0.62517  1.0000
  C   C5        1.0  0.13099  0.13053  0.52250  1.0000
  C   C6        1.0  0.86901  0.86947  0.47750  1.0000
  C   C7        1.0  0.11993  0.01719  0.42370  1.0000
  C   C8        1.0  0.88007  0.98281  0.57630  1.0000
  C   C9        1.0  0.98966  0.88702  0.39993  1.0000
  C   C10       1.0  0.01034  0.11298  0.60007  1.0000
  C   C11       1.0  0.86760  0.81864  0.01751  1.0000
  C   C12       1.0  0.13240  0.18136  0.98250  1.0000
  C   C13       1.0  0.81466  0.66142  0.98108  1.0000
  C   C14       1.0  0.18534  0.33857  0.01892  1.0000
  C   C15       1.0  0.69767  0.62160  0.13221  1.0000
  C   C16       1.0  0.30232  0.37840  0.86779  1.0000
  C   C17       1.0  0.72755  0.55309  0.20222  1.0000
  C   C18       1.0  0.27245  0.44691  0.79778  1.0000
  C   C19       1.0  0.58273  0.55730  0.27635  1.0000
  C   C20       1.0  0.41727  0.44269  0.72365  1.0000
  C   C21       1.0  0.40552  0.63076  0.28084  1.0000
  C   C22       1.0  0.59449  0.36924  0.71916  1.0000
  C   C23       1.0  0.37173  0.69600  0.20883  1.0000
  C   C24       1.0  0.62827  0.30399  0.79117  1.0000
  C   C25       1.0  0.51651  0.69189  0.13464  1.0000
  C   C26       1.0  0.48349  0.30810  0.86535  1.0000
  C   C27       1.0  0.26370  0.56345  0.41620  1.0000
  C   C28       1.0  0.73630  0.43656  0.58380  1.0000
  C   C29       1.0  0.19393  0.40720  0.34630  1.0000
  C   C30       1.0  0.80607  0.59280  0.65370  1.0000
  O   O1        1.0  0.80162  0.11627  0.30370  1.0000
  O   O2        1.0  0.19838  0.88373  0.69630  1.0000
  O   O3        1.0  0.45688  0.11195  0.21703  1.0000
  O   O4        1.0  0.54312  0.88805  0.78297  1.0000
  O   O5        1.0  0.23662  0.03438  0.34364  1.0000
  O   O6        1.0  0.76338  0.96562  0.65636  1.0000
  O   O7        1.0  0.96896  0.89746  0.11427  1.0000
  O   O8        1.0  0.03103  0.10254  0.88573  1.0000
  O   O9        1.0  0.80195  0.86308  0.94424  1.0000
  O   O10       1.0  0.19805  0.13692  0.05576  1.0000
  O   O11       1.0  0.85574  0.61411  0.06568  1.0000
  O   O12       1.0  0.14426  0.38589  0.93432  1.0000
  O   O13       1.0  0.25780  0.64590  0.35403  1.0000
  O   O14       1.0  0.74220  0.35410  0.64597  1.0000
  O   O15       1.0  0.07272  0.36231  0.25043  1.0000
  O   O16       1.0  0.92728  0.63769  0.74957  1.0000
  O   O17       1.0  0.25711  0.32253  0.38531  1.0000
  O   O18       1.0  0.74289  0.67747  0.61470  1.0000
  O   O19       1.0  0.76096  0.12125  0.08827  1.0000
  O   O20       1.0  0.23904  0.87875  0.91173  1.0000
