data_image0
_chemical_formula_structural       Zn4P4H36C24N8O12
_chemical_formula_sum              "Zn4 P4 H36 C24 N8 O12"
_cell_length_a       7.95396
_cell_length_b       8.06743
_cell_length_c       13.4976
_cell_angle_alpha    90
_cell_angle_beta     90.0001
_cell_angle_gamma    90.0002

_space_group_name_H-M_alt    "P 1"
_space_group_IT_number       1

loop_
  _space_group_symop_operation_xyz
  'x, y, z'

loop_
  _atom_site_type_symbol
  _atom_site_label
  _atom_site_symmetry_multiplicity
  _atom_site_fract_x
  _atom_site_fract_y
  _atom_site_fract_z
  _atom_site_occupancy
  Zn  Zn1       1.0  0.65185  0.65757  0.93097  1.0000
  Zn  Zn2       1.0  0.34815  0.15757  0.06903  1.0000
  Zn  Zn3       1.0  0.84815  0.15757  0.93097  1.0000
  Zn  Zn4       1.0  0.15185  0.65757  0.06903  1.0000
  P   P1        1.0  0.00328  0.78212  0.87754  1.0000
  P   P2        1.0  0.99671  0.28212  0.12246  1.0000
  P   P3        1.0  0.49671  0.28212  0.87754  1.0000
  P   P4        1.0  0.50329  0.78212  0.12246  1.0000
  H   H1        1.0  0.05090  0.82703  0.78098  1.0000
  H   H2        1.0  0.94909  0.32703  0.21902  1.0000
  H   H3        1.0  0.44909  0.32703  0.78098  1.0000
  H   H4        1.0  0.55091  0.82703  0.21902  1.0000
  H   H5        1.0  0.67744  0.79003  0.52433  1.0000
  H   H6        1.0  0.32256  0.29003  0.47567  1.0000
  H   H7        1.0  0.82255  0.29003  0.52433  1.0000
  H   H8        1.0  0.17744  0.79003  0.47567  1.0000
  H   H9        1.0  0.46570  0.58134  0.47690  1.0000
  H   H10       1.0  0.53430  0.08135  0.52310  1.0000
  H   H11       1.0  0.03430  0.08134  0.47690  1.0000
  H   H12       1.0  0.96570  0.58134  0.52310  1.0000
  H   H13       1.0  0.25711  0.47832  0.60353  1.0000
  H   H14       1.0  0.74289  0.97833  0.39646  1.0000
  H   H15       1.0  0.24289  0.97833  0.60353  1.0000
  H   H16       1.0  0.75711  0.47832  0.39647  1.0000
  H   H17       1.0  0.27265  0.58784  0.77551  1.0000
  H   H18       1.0  0.72734  0.08784  0.22449  1.0000
  H   H19       1.0  0.22734  0.08785  0.77551  1.0000
  H   H20       1.0  0.77265  0.58785  0.22449  1.0000
  H   H21       1.0  0.37398  0.78650  0.88304  1.0000
  H   H22       1.0  0.62601  0.28650  0.11695  1.0000
  H   H23       1.0  0.12601  0.28651  0.88305  1.0000
  H   H24       1.0  0.87398  0.78650  0.11696  1.0000
  H   H25       1.0  0.52726  0.92250  0.85848  1.0000
  H   H26       1.0  0.47273  0.42250  0.14152  1.0000
  H   H27       1.0  0.97273  0.42250  0.85848  1.0000
  H   H28       1.0  0.02726  0.92250  0.14152  1.0000
  H   H29       1.0  0.78609  0.97399  0.64515  1.0000
  H   H30       1.0  0.21391  0.47399  0.35485  1.0000
  H   H31       1.0  0.71391  0.47399  0.64515  1.0000
  H   H32       1.0  0.28609  0.97399  0.35485  1.0000
  H   H33       1.0  0.69064  0.00917  0.75564  1.0000
  H   H34       1.0  0.30936  0.50917  0.24436  1.0000
  H   H35       1.0  0.80936  0.50917  0.75564  1.0000
  H   H36       1.0  0.19064  0.00917  0.24436  1.0000
  C   C1        1.0  0.47922  0.75062  0.74673  1.0000
  C   C2        1.0  0.52078  0.25062  0.25327  1.0000
  C   C3        1.0  0.02078  0.25062  0.74673  1.0000
  C   C4        1.0  0.97922  0.75061  0.25327  1.0000
  C   C5        1.0  0.59541  0.81171  0.67594  1.0000
  C   C6        1.0  0.40460  0.31172  0.32407  1.0000
  C   C7        1.0  0.90460  0.31172  0.67593  1.0000
  C   C8        1.0  0.09541  0.81171  0.32406  1.0000
  C   C9        1.0  0.58683  0.74654  0.57913  1.0000
  C   C10       1.0  0.41318  0.24654  0.42087  1.0000
  C   C11       1.0  0.91317  0.24654  0.57913  1.0000
  C   C12       1.0  0.08683  0.74654  0.42087  1.0000
  C   C13       1.0  0.46762  0.62794  0.55266  1.0000
  C   C14       1.0  0.53239  0.12795  0.44734  1.0000
  C   C15       1.0  0.03239  0.12795  0.55266  1.0000
  C   C16       1.0  0.96762  0.62794  0.44734  1.0000
  C   C17       1.0  0.35173  0.57074  0.62259  1.0000
  C   C18       1.0  0.64828  0.07075  0.37741  1.0000
  C   C19       1.0  0.14827  0.07075  0.62259  1.0000
  C   C20       1.0  0.85173  0.57074  0.37741  1.0000
  C   C21       1.0  0.35940  0.63276  0.71903  1.0000
  C   C22       1.0  0.64060  0.13277  0.28097  1.0000
  C   C23       1.0  0.14060  0.13277  0.71903  1.0000
  C   C24       1.0  0.85940  0.63276  0.28097  1.0000
  N   N1        1.0  0.49019  0.80069  0.84912  1.0000
  N   N2        1.0  0.50981  0.30069  0.15088  1.0000
  N   N3        1.0  0.00981  0.30069  0.84912  1.0000
  N   N4        1.0  0.99019  0.80069  0.15088  1.0000
  N   N5        1.0  0.71848  0.92444  0.70182  1.0000
  N   N6        1.0  0.28153  0.42445  0.29818  1.0000
  N   N7        1.0  0.78152  0.42445  0.70182  1.0000
  N   N8        1.0  0.21848  0.92445  0.29818  1.0000
  O   O1        1.0  0.87483  0.63789  0.86817  1.0000
  O   O2        1.0  0.12517  0.13789  0.13184  1.0000
  O   O3        1.0  0.62517  0.13789  0.86816  1.0000
  O   O4        1.0  0.37482  0.63789  0.13184  1.0000
  O   O5        1.0  0.16596  0.71939  0.92806  1.0000
  O   O6        1.0  0.83404  0.21939  0.07194  1.0000
  O   O7        1.0  0.33404  0.21939  0.92806  1.0000
  O   O8        1.0  0.66596  0.71939  0.07194  1.0000
  O   O9        1.0  0.92654  0.92911  0.93173  1.0000
  O   O10       1.0  0.07346  0.42911  0.06827  1.0000
  O   O11       1.0  0.57346  0.42912  0.93173  1.0000
  O   O12       1.0  0.42654  0.92912  0.06827  1.0000
