data_image0
_chemical_formula_structural       Mn4H42C28N2O20
_chemical_formula_sum              "Mn4 H42 C28 N2 O20"
_cell_length_a       9.7123
_cell_length_b       10.2442
_cell_length_c       11.1253
_cell_angle_alpha    64.9621
_cell_angle_beta     82.4019
_cell_angle_gamma    65.1788

_space_group_name_H-M_alt    "P 1"
_space_group_IT_number       1

loop_
  _space_group_symop_operation_xyz
  'x, y, z'

loop_
  _atom_site_type_symbol
  _atom_site_label
  _atom_site_symmetry_multiplicity
  _atom_site_fract_x
  _atom_site_fract_y
  _atom_site_fract_z
  _atom_site_occupancy
  Mn  Mn1       1.0  0.50000  0.50001  0.50000  1.0000
  Mn  Mn2       1.0  0.54691  0.10141  0.64827  1.0000
  Mn  Mn3       1.0  0.45309  0.89859  0.35173  1.0000
  Mn  Mn4       1.0  0.50000  0.00000  1.00000  1.0000
  H   H1        1.0  0.15926  0.15305  0.61174  1.0000
  H   H2        1.0  0.84073  0.84694  0.38826  1.0000
  H   H3        1.0  0.14929  0.12052  0.84903  1.0000
  H   H4        1.0  0.85070  0.87947  0.15097  1.0000
  H   H5        1.0  0.89972  0.14602  0.95931  1.0000
  H   H6        1.0  0.10026  0.85399  0.04069  1.0000
  H   H7        1.0  0.67280  0.21569  0.82546  1.0000
  H   H8        1.0  0.32719  0.78433  0.17452  1.0000
  H   H9        1.0  0.86819  0.14009  0.44992  1.0000
  H   H10       1.0  0.13180  0.85991  0.55007  1.0000
  H   H11       1.0  0.03944  0.17358  0.42098  1.0000
  H   H12       1.0  0.96055  0.82642  0.57901  1.0000
  H   H13       1.0  0.85469  0.33480  0.38794  1.0000
  H   H14       1.0  0.14530  0.66520  0.61205  1.0000
  H   H15       1.0  0.66398  0.65528  0.04008  1.0000
  H   H16       1.0  0.33602  0.34473  0.95992  1.0000
  H   H17       1.0  0.71288  0.47140  0.18383  1.0000
  H   H18       1.0  0.28711  0.52861  0.81617  1.0000
  H   H19       1.0  0.83180  0.57491  0.14069  1.0000
  H   H20       1.0  0.16821  0.42508  0.85931  1.0000
  H   H21       1.0  0.22231  0.31398  0.27180  1.0000
  H   H22       1.0  0.77770  0.68603  0.72821  1.0000
  H   H23       1.0  0.21847  0.50975  0.19479  1.0000
  H   H24       1.0  0.78154  0.49026  0.80522  1.0000
  H   H25       1.0  0.10341  0.45940  0.33041  1.0000
  H   H26       1.0  0.89660  0.54060  0.66960  1.0000
  H   H27       1.0  0.67474  0.90654  0.52384  1.0000
  H   H28       1.0  0.32527  0.09346  0.47616  1.0000
  H   H29       1.0  0.61993  0.06731  0.40807  1.0000
  H   H30       1.0  0.38007  0.93270  0.59194  1.0000
  H   H31       1.0  0.03428  0.80177  0.85466  1.0000
  H   H32       1.0  0.96572  0.19822  0.14533  1.0000
  H   H33       1.0  0.97699  0.64818  0.88814  1.0000
  H   H34       1.0  0.02301  0.35181  0.11185  1.0000
  H   H35       1.0  0.99163  0.69811  0.02050  1.0000
  H   H36       1.0  0.00838  0.30188  0.97950  1.0000
  H   H37       1.0  0.26904  0.77656  0.80022  1.0000
  H   H38       1.0  0.73096  0.22343  0.19978  1.0000
  H   H39       1.0  0.35011  0.66126  0.96758  1.0000
  H   H40       1.0  0.64990  0.33873  0.03242  1.0000
  H   H41       1.0  0.45901  0.63717  0.82936  1.0000
  H   H42       1.0  0.54100  0.36283  0.17064  1.0000
  C   C1        1.0  0.92632  0.19849  0.59241  1.0000
  C   C2        1.0  0.07367  0.80151  0.40758  1.0000
  C   C3        1.0  0.05401  0.16547  0.66263  1.0000
  C   C4        1.0  0.94598  0.83453  0.33737  1.0000
  C   C5        1.0  0.04860  0.14702  0.79455  1.0000
  C   C6        1.0  0.95139  0.85297  0.20545  1.0000
  C   C7        1.0  0.91084  0.16263  0.85588  1.0000
  C   C8        1.0  0.08915  0.83737  0.14412  1.0000
  C   C9        1.0  0.78351  0.20074  0.78458  1.0000
  C   C10       1.0  0.21648  0.79927  0.21541  1.0000
  C   C11       1.0  0.92365  0.21225  0.45428  1.0000
  C   C12       1.0  0.07635  0.78775  0.54571  1.0000
  C   C13       1.0  0.63020  0.67039  0.23116  1.0000
  C   C14       1.0  0.36982  0.32961  0.76884  1.0000
  C   C15       1.0  0.71317  0.58907  0.14166  1.0000
  C   C16       1.0  0.28684  0.41093  0.85834  1.0000
  C   C17       1.0  0.33854  0.36502  0.38801  1.0000
  C   C18       1.0  0.66147  0.63499  0.61199  1.0000
  C   C19       1.0  0.21407  0.41518  0.28871  1.0000
  C   C20       1.0  0.78594  0.58483  0.71130  1.0000
  C   C21       1.0  0.79584  0.86313  0.88089  1.0000
  C   C22       1.0  0.20417  0.13686  0.11910  1.0000
  C   C23       1.0  0.95962  0.74532  0.91505  1.0000
  C   C24       1.0  0.04038  0.25468  0.08495  1.0000
  C   C25       1.0  0.42285  0.84953  0.84845  1.0000
  C   C26       1.0  0.57715  0.15047  0.15156  1.0000
  C   C27       1.0  0.37224  0.72263  0.86428  1.0000
  C   C28       1.0  0.62776  0.27737  0.13572  1.0000
  N   N1        1.0  0.79263  0.21927  0.65579  1.0000
  N   N2        1.0  0.20736  0.78073  0.34421  1.0000
  O   O1        1.0  0.66658  0.25869  0.58826  1.0000
  O   O2        1.0  0.33341  0.74132  0.41174  1.0000
  O   O3        1.0  0.64355  0.58615  0.35531  1.0000
  O   O4        1.0  0.35647  0.41386  0.64469  1.0000
  O   O5        1.0  0.54981  0.82157  0.18521  1.0000
  O   O6        1.0  0.45021  0.17844  0.81479  1.0000
  O   O7        1.0  0.41022  0.45147  0.36526  1.0000
  O   O8        1.0  0.58979  0.54853  0.63474  1.0000
  O   O9        1.0  0.36348  0.23616  0.49107  1.0000
  O   O10       1.0  0.63654  0.76384  0.50893  1.0000
  O   O11       1.0  0.74795  0.91855  0.76102  1.0000
  O   O12       1.0  0.25206  0.08144  0.23897  1.0000
  O   O13       1.0  0.71874  0.89671  0.97385  1.0000
  O   O14       1.0  0.28127  0.10329  0.02614  1.0000
  O   O15       1.0  0.44585  0.93264  0.72995  1.0000
  O   O16       1.0  0.55415  0.06736  0.27006  1.0000
  O   O17       1.0  0.43963  0.86438  0.95271  1.0000
  O   O18       1.0  0.56037  0.13562  0.04730  1.0000
  O   O19       1.0  0.67081  0.01391  0.49835  1.0000
  O   O20       1.0  0.32920  0.98609  0.50165  1.0000
