data_image0
_chemical_formula_structural       Cd2H40C28N8O12
_chemical_formula_sum              "Cd2 H40 C28 N8 O12"
_cell_length_a       9.27851
_cell_length_b       9.2785
_cell_length_c       10.98
_cell_angle_alpha    73.9755
_cell_angle_beta     73.9755
_cell_angle_gamma    82.6845

_space_group_name_H-M_alt    "P 1"
_space_group_IT_number       1

loop_
  _space_group_symop_operation_xyz
  'x, y, z'

loop_
  _atom_site_type_symbol
  _atom_site_label
  _atom_site_symmetry_multiplicity
  _atom_site_fract_x
  _atom_site_fract_y
  _atom_site_fract_z
  _atom_site_occupancy
  Cd  Cd1       1.0  0.44193  0.55807  0.25000  1.0000
  Cd  Cd2       1.0  0.55807  0.44193  0.75000  1.0000
  H   H1        1.0  0.39152  0.31494  0.18980  1.0000
  H   H2        1.0  0.68506  0.60848  0.31020  1.0000
  H   H3        1.0  0.60848  0.68506  0.81020  1.0000
  H   H4        1.0  0.31494  0.39152  0.68980  1.0000
  H   H5        1.0  0.34537  0.43473  0.06271  1.0000
  H   H6        1.0  0.56527  0.65463  0.43729  1.0000
  H   H7        1.0  0.65463  0.56527  0.93730  1.0000
  H   H8        1.0  0.43473  0.34537  0.56271  1.0000
  H   H9        1.0  0.06605  0.58236  0.26449  1.0000
  H   H10       1.0  0.41764  0.93395  0.23551  1.0000
  H   H11       1.0  0.93395  0.41764  0.73551  1.0000
  H   H12       1.0  0.58236  0.06605  0.76449  1.0000
  H   H13       1.0  0.85145  0.72255  0.43162  1.0000
  H   H14       1.0  0.27745  0.14855  0.06838  1.0000
  H   H15       1.0  0.14855  0.27746  0.56838  1.0000
  H   H16       1.0  0.72255  0.85145  0.93162  1.0000
  H   H17       1.0  0.26120  0.66325  0.54294  1.0000
  H   H18       1.0  0.33675  0.73880  0.95706  1.0000
  H   H19       1.0  0.73880  0.33675  0.45706  1.0000
  H   H20       1.0  0.66325  0.26120  0.04294  1.0000
  H   H21       1.0  0.05101  0.78918  0.67319  1.0000
  H   H22       1.0  0.21082  0.94898  0.82682  1.0000
  H   H23       1.0  0.94898  0.21082  0.32682  1.0000
  H   H24       1.0  0.78918  0.05101  0.17319  1.0000
  H   H25       1.0  0.86850  0.74243  0.68135  1.0000
  H   H26       1.0  0.25757  0.13150  0.81865  1.0000
  H   H27       1.0  0.13150  0.25757  0.31865  1.0000
  H   H28       1.0  0.74243  0.86850  0.18135  1.0000
  H   H29       1.0  0.83967  0.96730  0.50453  1.0000
  H   H30       1.0  0.03270  0.16033  0.99548  1.0000
  H   H31       1.0  0.16033  0.03270  0.49548  1.0000
  H   H32       1.0  0.96730  0.83967  0.00453  1.0000
  H   H33       1.0  0.88913  0.02062  0.62879  1.0000
  H   H34       1.0  0.97938  0.11086  0.87121  1.0000
  H   H35       1.0  0.11086  0.97938  0.37121  1.0000
  H   H36       1.0  0.02062  0.88913  0.12879  1.0000
  H   H37       1.0  0.52626  0.09958  0.58208  1.0000
  H   H38       1.0  0.90042  0.47374  0.91792  1.0000
  H   H39       1.0  0.47374  0.90042  0.41792  1.0000
  H   H40       1.0  0.09958  0.52626  0.08208  1.0000
  C   C1        1.0  0.07734  0.62233  0.34499  1.0000
  C   C2        1.0  0.37767  0.92266  0.15501  1.0000
  C   C3        1.0  0.92266  0.37767  0.65501  1.0000
  C   C4        1.0  0.62233  0.07734  0.84499  1.0000
  C   C5        1.0  0.96907  0.69155  0.42696  1.0000
  C   C6        1.0  0.30845  0.03092  0.07304  1.0000
  C   C7        1.0  0.03093  0.30845  0.57304  1.0000
  C   C8        1.0  0.69155  0.96907  0.92696  1.0000
  C   C9        1.0  0.18202  0.66083  0.48698  1.0000
  C   C10       1.0  0.33917  0.81798  0.01302  1.0000
  C   C11       1.0  0.81798  0.33917  0.51302  1.0000
  C   C12       1.0  0.66083  0.18202  0.98698  1.0000
  C   C13       1.0  0.96932  0.79786  0.61531  1.0000
  C   C14       1.0  0.20214  0.03067  0.88469  1.0000
  C   C15       1.0  0.03067  0.20214  0.38469  1.0000
  C   C16       1.0  0.79786  0.96932  0.11531  1.0000
  C   C17       1.0  0.93245  0.96154  0.55068  1.0000
  C   C18       1.0  0.03846  0.06755  0.94931  1.0000
  C   C19       1.0  0.06755  0.03846  0.44931  1.0000
  C   C20       1.0  0.96154  0.93245  0.05068  1.0000
  C   C21       1.0  0.48493  0.19953  0.38581  1.0000
  C   C22       1.0  0.80047  0.51507  0.11419  1.0000
  C   C23       1.0  0.51507  0.80047  0.61418  1.0000
  C   C24       1.0  0.19954  0.48493  0.88581  1.0000
  C   C25       1.0  0.50534  0.07182  0.49852  1.0000
  C   C26       1.0  0.92818  0.49466  0.00148  1.0000
  C   C27       1.0  0.49466  0.92818  0.50148  1.0000
  C   C28       1.0  0.07182  0.50534  0.99852  1.0000
  N   N1        1.0  0.20953  0.60363  0.38363  1.0000
  N   N2        1.0  0.39637  0.79047  0.11637  1.0000
  N   N3        1.0  0.79048  0.39637  0.61637  1.0000
  N   N4        1.0  0.60363  0.20952  0.88363  1.0000
  N   N5        1.0  0.03708  0.71441  0.51675  1.0000
  N   N6        1.0  0.28559  0.96292  0.98325  1.0000
  N   N7        1.0  0.96292  0.28559  0.48325  1.0000
  N   N8        1.0  0.71441  0.03708  0.01675  1.0000
  O   O1        1.0  0.46941  0.17274  0.28366  1.0000
  O   O2        1.0  0.82726  0.53059  0.21634  1.0000
  O   O3        1.0  0.53059  0.82726  0.71634  1.0000
  O   O4        1.0  0.17274  0.46941  0.78366  1.0000
  O   O5        1.0  0.48365  0.33168  0.40384  1.0000
  O   O6        1.0  0.66832  0.51635  0.09616  1.0000
  O   O7        1.0  0.51635  0.66832  0.59615  1.0000
  O   O8        1.0  0.33168  0.48365  0.90385  1.0000
  O   O9        1.0  0.33331  0.41108  0.15923  1.0000
  O   O10       1.0  0.58892  0.66669  0.34077  1.0000
  O   O11       1.0  0.66669  0.58892  0.84077  1.0000
  O   O12       1.0  0.41108  0.33331  0.65923  1.0000
