data_image0
_chemical_formula_structural       Zn4P4H24C20N4Cl8O12
_chemical_formula_sum              "Zn4 P4 H24 C20 N4 Cl8 O12"
_cell_length_a       8.49281
_cell_length_b       9.35121
_cell_length_c       12.3787
_cell_angle_alpha    89.9999
_cell_angle_beta     91.2654
_cell_angle_gamma    90

_space_group_name_H-M_alt    "P 1"
_space_group_IT_number       1

loop_
  _space_group_symop_operation_xyz
  'x, y, z'

loop_
  _atom_site_type_symbol
  _atom_site_label
  _atom_site_symmetry_multiplicity
  _atom_site_fract_x
  _atom_site_fract_y
  _atom_site_fract_z
  _atom_site_occupancy
  Zn  Zn1       1.0  0.13692  0.29456  0.52800  1.0000
  Zn  Zn2       1.0  0.36308  0.79456  0.97200  1.0000
  Zn  Zn3       1.0  0.86309  0.70544  0.47200  1.0000
  Zn  Zn4       1.0  0.63691  0.20544  0.02800  1.0000
  P   P1        1.0  0.86238  0.40237  0.35400  1.0000
  P   P2        1.0  0.63762  0.90238  0.14600  1.0000
  P   P3        1.0  0.13762  0.59762  0.64600  1.0000
  P   P4        1.0  0.36238  0.09763  0.85400  1.0000
  H   H1        1.0  0.64967  0.34924  0.26034  1.0000
  H   H2        1.0  0.85033  0.84924  0.23966  1.0000
  H   H3        1.0  0.35033  0.65076  0.73966  1.0000
  H   H4        1.0  0.14967  0.15076  0.76034  1.0000
  H   H5        1.0  0.95743  0.12662  0.25881  1.0000
  H   H6        1.0  0.54257  0.62662  0.24119  1.0000
  H   H7        1.0  0.04256  0.87338  0.74119  1.0000
  H   H8        1.0  0.45743  0.37338  0.75881  1.0000
  H   H9        1.0  0.27985  0.25734  0.02842  1.0000
  H   H10       1.0  0.22015  0.75734  0.47158  1.0000
  H   H11       1.0  0.72015  0.74266  0.97158  1.0000
  H   H12       1.0  0.77985  0.24266  0.52842  1.0000
  H   H13       1.0  0.14852  0.07106  0.11136  1.0000
  H   H14       1.0  0.35148  0.57106  0.38864  1.0000
  H   H15       1.0  0.85148  0.92894  0.88864  1.0000
  H   H16       1.0  0.64852  0.42894  0.61136  1.0000
  H   H17       1.0  0.04507  0.57688  0.20159  1.0000
  H   H18       1.0  0.45493  0.07688  0.29840  1.0000
  H   H19       1.0  0.95493  0.42312  0.79841  1.0000
  H   H20       1.0  0.54507  0.92312  0.70159  1.0000
  H   H21       1.0  0.23667  0.50254  0.05852  1.0000
  H   H22       1.0  0.26334  0.00254  0.44148  1.0000
  H   H23       1.0  0.76333  0.49746  0.94148  1.0000
  H   H24       1.0  0.73667  0.99746  0.55852  1.0000
  C   C1        1.0  0.01655  0.21285  0.21679  1.0000
  C   C2        1.0  0.48345  0.71285  0.28321  1.0000
  C   C3        1.0  0.98344  0.78715  0.78321  1.0000
  C   C4        1.0  0.51656  0.28715  0.71679  1.0000
  C   C5        1.0  0.99031  0.35641  0.24322  1.0000
  C   C6        1.0  0.50969  0.85641  0.25678  1.0000
  C   C7        1.0  0.00968  0.64359  0.75678  1.0000
  C   C8        1.0  0.49032  0.14359  0.74322  1.0000
  C   C9        1.0  0.12117  0.18027  0.13617  1.0000
  C   C10       1.0  0.37883  0.68027  0.36383  1.0000
  C   C11       1.0  0.87883  0.81973  0.86383  1.0000
  C   C12       1.0  0.62117  0.31973  0.63617  1.0000
  C   C13       1.0  0.06613  0.46414  0.18535  1.0000
  C   C14       1.0  0.43386  0.96414  0.31464  1.0000
  C   C15       1.0  0.93386  0.53586  0.81464  1.0000
  C   C16       1.0  0.56614  0.03586  0.68535  1.0000
  C   C17       1.0  0.17081  0.42602  0.10602  1.0000
  C   C18       1.0  0.32919  0.92602  0.39398  1.0000
  C   C19       1.0  0.82919  0.57398  0.89398  1.0000
  C   C20       1.0  0.67081  0.07398  0.60602  1.0000
  N   N1        1.0  0.19622  0.28673  0.08516  1.0000
  N   N2        1.0  0.30378  0.78674  0.41484  1.0000
  N   N3        1.0  0.80378  0.71327  0.91484  1.0000
  N   N4        1.0  0.69622  0.21326  0.58516  1.0000
  Cl  Cl1       1.0  0.33165  0.30905  0.41326  1.0000
  Cl  Cl2       1.0  0.16835  0.80905  0.08674  1.0000
  Cl  Cl3       1.0  0.66835  0.69095  0.58674  1.0000
  Cl  Cl4       1.0  0.83165  0.19095  0.91326  1.0000
  Cl  Cl5       1.0  0.09424  0.08343  0.61217  1.0000
  Cl  Cl6       1.0  0.40576  0.58343  0.88784  1.0000
  Cl  Cl7       1.0  0.90576  0.91657  0.38783  1.0000
  Cl  Cl8       1.0  0.59424  0.41657  0.11216  1.0000
  O   O1        1.0  0.92395  0.33364  0.45894  1.0000
  O   O2        1.0  0.57605  0.83364  0.04106  1.0000
  O   O3        1.0  0.07605  0.66636  0.54106  1.0000
  O   O4        1.0  0.42395  0.16636  0.95894  1.0000
  O   O5        1.0  0.84819  0.56379  0.35352  1.0000
  O   O6        1.0  0.65181  0.06380  0.14648  1.0000
  O   O7        1.0  0.15181  0.43620  0.64648  1.0000
  O   O8        1.0  0.34819  0.93620  0.85352  1.0000
  O   O9        1.0  0.70126  0.32228  0.33147  1.0000
  O   O10       1.0  0.79874  0.82228  0.16853  1.0000
  O   O11       1.0  0.29874  0.67772  0.66853  1.0000
  O   O12       1.0  0.20126  0.17772  0.83147  1.0000
