data_image0
_chemical_formula_structural       K4V4H48C28N8O36
_chemical_formula_sum              "K4 V4 H48 C28 N8 O36"
_cell_length_a       6.85173
_cell_length_b       8.26147
_cell_length_c       23.1048
_cell_angle_alpha    89.9998
_cell_angle_beta     98.1338
_cell_angle_gamma    90.0003

_space_group_name_H-M_alt    "P 1"
_space_group_IT_number       1

loop_
  _space_group_symop_operation_xyz
  'x, y, z'

loop_
  _atom_site_type_symbol
  _atom_site_label
  _atom_site_symmetry_multiplicity
  _atom_site_fract_x
  _atom_site_fract_y
  _atom_site_fract_z
  _atom_site_occupancy
  K   K1        1.0  0.62292  0.17110  0.18478  1.0000
  K   K2        1.0  0.87708  0.67110  0.31522  1.0000
  K   K3        1.0  0.37707  0.82890  0.81522  1.0000
  K   K4        1.0  0.12293  0.32890  0.68478  1.0000
  V   V1        1.0  0.07779  0.83851  0.15786  1.0000
  V   V2        1.0  0.42221  0.33852  0.34213  1.0000
  V   V3        1.0  0.92221  0.16149  0.84213  1.0000
  V   V4        1.0  0.57779  0.66149  0.65787  1.0000
  H   H1        1.0  0.35695  0.59665  0.24214  1.0000
  H   H2        1.0  0.14305  0.09666  0.25786  1.0000
  H   H3        1.0  0.64304  0.40335  0.75786  1.0000
  H   H4        1.0  0.85694  0.90335  0.74214  1.0000
  H   H5        1.0  0.54190  0.55286  0.19791  1.0000
  H   H6        1.0  0.95810  0.05286  0.30209  1.0000
  H   H7        1.0  0.45810  0.44714  0.80209  1.0000
  H   H8        1.0  0.04190  0.94715  0.69791  1.0000
  H   H9        1.0  0.09445  0.93923  0.95510  1.0000
  H   H10       1.0  0.40555  0.43922  0.54490  1.0000
  H   H11       1.0  0.90555  0.06077  0.04490  1.0000
  H   H12       1.0  0.59445  0.56078  0.45510  1.0000
  H   H13       1.0  0.16473  0.74398  0.93635  1.0000
  H   H14       1.0  0.33527  0.24397  0.56365  1.0000
  H   H15       1.0  0.83527  0.25602  0.06365  1.0000
  H   H16       1.0  0.66473  0.75603  0.43635  1.0000
  H   H17       1.0  0.11044  0.45940  0.20167  1.0000
  H   H18       1.0  0.38956  0.95941  0.29833  1.0000
  H   H19       1.0  0.88955  0.54060  0.79833  1.0000
  H   H20       1.0  0.61044  0.04059  0.70167  1.0000
  H   H21       1.0  0.17471  0.36699  0.13746  1.0000
  H   H22       1.0  0.32529  0.86699  0.36254  1.0000
  H   H23       1.0  0.82528  0.63301  0.86254  1.0000
  H   H24       1.0  0.67471  0.13301  0.63746  1.0000
  H   H25       1.0  0.47399  0.69589  0.10082  1.0000
  H   H26       1.0  0.02602  0.19589  0.39918  1.0000
  H   H27       1.0  0.52602  0.30410  0.89918  1.0000
  H   H28       1.0  0.97398  0.80410  0.60082  1.0000
  H   H29       1.0  0.43760  0.48450  0.10067  1.0000
  H   H30       1.0  0.06240  0.98450  0.39933  1.0000
  H   H31       1.0  0.56240  0.51550  0.89933  1.0000
  H   H32       1.0  0.93760  0.01550  0.60067  1.0000
  H   H33       1.0  0.09442  0.53785  0.03956  1.0000
  H   H34       1.0  0.40559  0.03784  0.46043  1.0000
  H   H35       1.0  0.90559  0.46215  0.96043  1.0000
  H   H36       1.0  0.59442  0.96216  0.53957  1.0000
  H   H37       1.0  0.30448  0.56126  0.00520  1.0000
  H   H38       1.0  0.19553  0.06124  0.49480  1.0000
  H   H39       1.0  0.69553  0.43875  0.99480  1.0000
  H   H40       1.0  0.80448  0.93875  0.50520  1.0000
  H   H41       1.0  0.43913  0.16453  0.04525  1.0000
  H   H42       1.0  0.06088  0.66453  0.45474  1.0000
  H   H43       1.0  0.56088  0.83547  0.95474  1.0000
  H   H44       1.0  0.93911  0.33546  0.54525  1.0000
  H   H45       1.0  0.27690  0.09242  0.07817  1.0000
  H   H46       1.0  0.22311  0.59240  0.42183  1.0000
  H   H47       1.0  0.72311  0.90759  0.92183  1.0000
  H   H48       1.0  0.77690  0.40759  0.57816  1.0000
  C   C1        1.0  0.41483  0.63136  0.20196  1.0000
  C   C2        1.0  0.08518  0.13136  0.29804  1.0000
  C   C3        1.0  0.58517  0.36864  0.79804  1.0000
  C   C4        1.0  0.91483  0.86864  0.70196  1.0000
  C   C5        1.0  0.47936  0.80703  0.20838  1.0000
  C   C6        1.0  0.02065  0.30704  0.29162  1.0000
  C   C7        1.0  0.52064  0.19297  0.79161  1.0000
  C   C8        1.0  0.97935  0.69297  0.70838  1.0000
  C   C9        1.0  0.12258  0.47969  0.15538  1.0000
  C   C10       1.0  0.37742  0.97969  0.34462  1.0000
  C   C11       1.0  0.87741  0.52031  0.84462  1.0000
  C   C12       1.0  0.62258  0.02031  0.65538  1.0000
  C   C13       1.0  0.91660  0.52217  0.12578  1.0000
  C   C14       1.0  0.58340  0.02218  0.37422  1.0000
  C   C15       1.0  0.08339  0.47783  0.87422  1.0000
  C   C16       1.0  0.41660  0.97782  0.62578  1.0000
  C   C17       1.0  0.36030  0.60143  0.09800  1.0000
  C   C18       1.0  0.13970  0.10143  0.40200  1.0000
  C   C19       1.0  0.63970  0.39857  0.90200  1.0000
  C   C20       1.0  0.86030  0.89857  0.59800  1.0000
  C   C21       1.0  0.22729  0.61242  0.03959  1.0000
  C   C22       1.0  0.27271  0.11241  0.46041  1.0000
  C   C23       1.0  0.77271  0.38758  0.96041  1.0000
  C   C24       1.0  0.72730  0.88758  0.53959  1.0000
  C   C25       1.0  0.16536  0.78428  0.02431  1.0000
  C   C26       1.0  0.33464  0.28427  0.47569  1.0000
  C   C27       1.0  0.83464  0.21572  0.97569  1.0000
  C   C28       1.0  0.66536  0.71572  0.52431  1.0000
  N   N1        1.0  0.25886  0.61683  0.15081  1.0000
  N   N2        1.0  0.24114  0.11683  0.34920  1.0000
  N   N3        1.0  0.74114  0.38317  0.84919  1.0000
  N   N4        1.0  0.75886  0.88317  0.65081  1.0000
  N   N5        1.0  0.14790  0.82761  0.96855  1.0000
  N   N6        1.0  0.35211  0.32760  0.53145  1.0000
  N   N7        1.0  0.85210  0.17238  0.03145  1.0000
  N   N8        1.0  0.64789  0.67239  0.46855  1.0000
  O   O1        1.0  0.36072  0.91116  0.17877  1.0000
  O   O2        1.0  0.13928  0.41116  0.32123  1.0000
  O   O3        1.0  0.63929  0.08884  0.82123  1.0000
  O   O4        1.0  0.86072  0.58885  0.67877  1.0000
  O   O5        1.0  0.63074  0.84843  0.24089  1.0000
  O   O6        1.0  0.86926  0.34844  0.25911  1.0000
  O   O7        1.0  0.36926  0.15157  0.75911  1.0000
  O   O8        1.0  0.13075  0.65156  0.74089  1.0000
  O   O9        1.0  0.88077  0.67492  0.11769  1.0000
  O   O10       1.0  0.61923  0.17493  0.38231  1.0000
  O   O11       1.0  0.11922  0.32507  0.88231  1.0000
  O   O12       1.0  0.38077  0.82506  0.61769  1.0000
  O   O13       1.0  0.79102  0.41421  0.11118  1.0000
  O   O14       1.0  0.70899  0.91422  0.38882  1.0000
  O   O15       1.0  0.20898  0.58579  0.88882  1.0000
  O   O16       1.0  0.29101  0.08578  0.61118  1.0000
  O   O17       1.0  0.13682  0.88356  0.06412  1.0000
  O   O18       1.0  0.36318  0.38355  0.43589  1.0000
  O   O19       1.0  0.86318  0.11644  0.93588  1.0000
  O   O20       1.0  0.63683  0.61644  0.56412  1.0000
  O   O21       1.0  0.05456  0.78401  0.22397  1.0000
  O   O22       1.0  0.44544  0.28402  0.27603  1.0000
  O   O23       1.0  0.94544  0.21599  0.77603  1.0000
  O   O24       1.0  0.55455  0.71599  0.72397  1.0000
  O   O25       1.0  0.86571  0.97584  0.13330  1.0000
  O   O26       1.0  0.63429  0.47585  0.36671  1.0000
  O   O27       1.0  0.13430  0.02417  0.86671  1.0000
  O   O28       1.0  0.36570  0.52416  0.63329  1.0000
  O   O29       1.0  0.04315  0.06338  0.15539  1.0000
  O   O30       1.0  0.45685  0.56339  0.34461  1.0000
  O   O31       1.0  0.95686  0.93661  0.84461  1.0000
  O   O32       1.0  0.54314  0.43662  0.65539  1.0000
  O   O33       1.0  0.36578  0.18581  0.07752  1.0000
  O   O34       1.0  0.13421  0.68581  0.42248  1.0000
  O   O35       1.0  0.63422  0.81419  0.92248  1.0000
  O   O36       1.0  0.86578  0.31419  0.57752  1.0000
