data_image0
_chemical_formula_structural       Cd2H34C42N6O12
_chemical_formula_sum              "Cd2 H34 C42 N6 O12"
_cell_length_a       8.7664
_cell_length_b       10.5152
_cell_length_c       10.9781
_cell_angle_alpha    90
_cell_angle_beta     90
_cell_angle_gamma    104.034

_space_group_name_H-M_alt    "P 1"
_space_group_IT_number       1

loop_
  _space_group_symop_operation_xyz
  'x, y, z'

loop_
  _atom_site_type_symbol
  _atom_site_label
  _atom_site_symmetry_multiplicity
  _atom_site_fract_x
  _atom_site_fract_y
  _atom_site_fract_z
  _atom_site_occupancy
  Cd  Cd1       1.0  0.75000  0.25000  0.44105  1.0000
  Cd  Cd2       1.0  0.25000  0.75000  0.55895  1.0000
  H   H1        1.0  0.04270  0.48177  0.39016  1.0000
  H   H2        1.0  0.45730  0.01822  0.39016  1.0000
  H   H3        1.0  0.95730  0.51823  0.60984  1.0000
  H   H4        1.0  0.54270  0.98177  0.60984  1.0000
  H   H5        1.0  0.14581  0.66713  0.24924  1.0000
  H   H6        1.0  0.35419  0.83287  0.24924  1.0000
  H   H7        1.0  0.85419  0.33287  0.75076  1.0000
  H   H8        1.0  0.64581  0.16713  0.75076  1.0000
  H   H9        1.0  0.99206  0.69110  0.06170  1.0000
  H   H10       1.0  0.50794  0.80890  0.06170  1.0000
  H   H11       1.0  0.00794  0.30890  0.93830  1.0000
  H   H12       1.0  0.49206  0.19110  0.93830  1.0000
  H   H13       1.0  0.64696  0.34376  0.17532  1.0000
  H   H14       1.0  0.85304  0.15624  0.17532  1.0000
  H   H15       1.0  0.35304  0.65624  0.82468  1.0000
  H   H16       1.0  0.14696  0.84376  0.82469  1.0000
  H   H17       1.0  0.70688  0.53889  0.74294  1.0000
  H   H18       1.0  0.79312  0.96111  0.74294  1.0000
  H   H19       1.0  0.29312  0.46111  0.25706  1.0000
  H   H20       1.0  0.20688  0.03889  0.25707  1.0000
  H   H21       1.0  0.75000  0.75000  0.62663  1.0000
  H   H22       1.0  0.25000  0.25000  0.37337  1.0000
  H   H23       1.0  0.10527  0.15278  0.72752  1.0000
  H   H24       1.0  0.39472  0.34722  0.72752  1.0000
  H   H25       1.0  0.89472  0.84722  0.27247  1.0000
  H   H26       1.0  0.60527  0.65278  0.27248  1.0000
  H   H27       1.0  0.20125  0.12732  0.58912  1.0000
  H   H28       1.0  0.29875  0.37269  0.58912  1.0000
  H   H29       1.0  0.79875  0.87269  0.41088  1.0000
  H   H30       1.0  0.70125  0.62731  0.41088  1.0000
  H   H31       1.0  0.04562  0.00042  0.65153  1.0000
  H   H32       1.0  0.45437  0.49958  0.65153  1.0000
  H   H33       1.0  0.95437  0.99958  0.34847  1.0000
  H   H34       1.0  0.54562  0.50042  0.34847  1.0000
  C   C1        1.0  0.97679  0.49581  0.30921  1.0000
  C   C2        1.0  0.52321  0.00419  0.30921  1.0000
  C   C3        1.0  0.02321  0.50420  0.69079  1.0000
  C   C4        1.0  0.47679  0.99580  0.69079  1.0000
  C   C5        1.0  0.03428  0.59872  0.22900  1.0000
  C   C6        1.0  0.46572  0.90128  0.22900  1.0000
  C   C7        1.0  0.96572  0.40128  0.77100  1.0000
  C   C8        1.0  0.53428  0.09872  0.77100  1.0000
  C   C9        1.0  0.94856  0.61053  0.12478  1.0000
  C   C10       1.0  0.55144  0.88947  0.12478  1.0000
  C   C11       1.0  0.05144  0.38947  0.87521  1.0000
  C   C12       1.0  0.44856  0.11053  0.87521  1.0000
  C   C13       1.0  0.80739  0.51667  0.10279  1.0000
  C   C14       1.0  0.69261  0.98333  0.10279  1.0000
  C   C15       1.0  0.19261  0.48334  0.89721  1.0000
  C   C16       1.0  0.30739  0.01666  0.89722  1.0000
  C   C17       1.0  0.75751  0.41703  0.18872  1.0000
  C   C18       1.0  0.74250  0.08297  0.18872  1.0000
  C   C19       1.0  0.24250  0.58297  0.81128  1.0000
  C   C20       1.0  0.25751  0.91703  0.81128  1.0000
  C   C21       1.0  0.71400  0.51373  0.98898  1.0000
  C   C22       1.0  0.78600  0.98628  0.98898  1.0000
  C   C23       1.0  0.28600  0.48628  0.01102  1.0000
  C   C24       1.0  0.21400  0.01372  0.01102  1.0000
  C   C25       1.0  0.73162  0.63814  0.91798  1.0000
  C   C26       1.0  0.76838  0.86186  0.91798  1.0000
  C   C27       1.0  0.26838  0.36186  0.08202  1.0000
  C   C28       1.0  0.23162  0.13814  0.08202  1.0000
  C   C29       1.0  0.72643  0.63274  0.79038  1.0000
  C   C30       1.0  0.77357  0.86726  0.79038  1.0000
  C   C31       1.0  0.27357  0.36726  0.20962  1.0000
  C   C32       1.0  0.22643  0.13274  0.20962  1.0000
  C   C33       1.0  0.75000  0.75000  0.72570  1.0000
  C   C34       1.0  0.25000  0.25000  0.27430  1.0000
  C   C35       1.0  0.96747  0.15791  0.56845  1.0000
  C   C36       1.0  0.53253  0.34209  0.56845  1.0000
  C   C37       1.0  0.03253  0.84209  0.43155  1.0000
  C   C38       1.0  0.46747  0.65791  0.43155  1.0000
  C   C39       1.0  0.08847  0.10613  0.63719  1.0000
  C   C40       1.0  0.41152  0.39387  0.63719  1.0000
  C   C41       1.0  0.91152  0.89387  0.36281  1.0000
  C   C42       1.0  0.58847  0.60613  0.36281  1.0000
  N   N1        1.0  0.83952  0.40721  0.28987  1.0000
  N   N2        1.0  0.66048  0.09279  0.28986  1.0000
  N   N3        1.0  0.16048  0.59279  0.71013  1.0000
  N   N4        1.0  0.33952  0.90721  0.71014  1.0000
  N   N5        1.0  0.75000  0.75000  0.98174  1.0000
  N   N6        1.0  0.25000  0.25000  0.01826  1.0000
  O   O1        1.0  0.62775  0.41027  0.95133  1.0000
  O   O2        1.0  0.87225  0.08972  0.95133  1.0000
  O   O3        1.0  0.37225  0.58972  0.04866  1.0000
  O   O4        1.0  0.12775  0.91028  0.04867  1.0000
  O   O5        1.0  0.82159  0.10832  0.58957  1.0000
  O   O6        1.0  0.67841  0.39168  0.58957  1.0000
  O   O7        1.0  0.17841  0.89168  0.41043  1.0000
  O   O8        1.0  0.32159  0.60832  0.41043  1.0000
  O   O9        1.0  0.01268  0.25084  0.49155  1.0000
  O   O10       1.0  0.48732  0.24916  0.49155  1.0000
  O   O11       1.0  0.98732  0.74916  0.50845  1.0000
  O   O12       1.0  0.51268  0.75084  0.50845  1.0000
