data_image0
_chemical_formula_structural       Zn2H34C42N6O12
_chemical_formula_sum              "Zn2 H34 C42 N6 O12"
_cell_length_a       8.58553
_cell_length_b       10.4429
_cell_length_c       11.0043
_cell_angle_alpha    90
_cell_angle_beta     89.9999
_cell_angle_gamma    102.916

_space_group_name_H-M_alt    "P 1"
_space_group_IT_number       1

loop_
  _space_group_symop_operation_xyz
  'x, y, z'

loop_
  _atom_site_type_symbol
  _atom_site_label
  _atom_site_symmetry_multiplicity
  _atom_site_fract_x
  _atom_site_fract_y
  _atom_site_fract_z
  _atom_site_occupancy
  Zn  Zn1       1.0  0.75000  0.25000  0.08373  1.0000
  Zn  Zn2       1.0  0.25000  0.75000  0.91627  1.0000
  H   H1        1.0  0.02401  0.47756  0.10141  1.0000
  H   H2        1.0  0.47599  0.02244  0.10141  1.0000
  H   H3        1.0  0.97599  0.52244  0.89859  1.0000
  H   H4        1.0  0.52401  0.97756  0.89859  1.0000
  H   H5        1.0  0.13299  0.66391  0.23832  1.0000
  H   H6        1.0  0.36701  0.83609  0.23832  1.0000
  H   H7        1.0  0.86701  0.33609  0.76168  1.0000
  H   H8        1.0  0.63299  0.16391  0.76168  1.0000
  H   H9        1.0  0.98767  0.68901  0.43182  1.0000
  H   H10       1.0  0.51233  0.81099  0.43182  1.0000
  H   H11       1.0  0.01233  0.31099  0.56818  1.0000
  H   H12       1.0  0.48767  0.18901  0.56818  1.0000
  H   H13       1.0  0.63675  0.34038  0.32940  1.0000
  H   H14       1.0  0.86325  0.15962  0.32940  1.0000
  H   H15       1.0  0.36325  0.65962  0.67060  1.0000
  H   H16       1.0  0.13675  0.84038  0.67060  1.0000
  H   H17       1.0  0.71101  0.53848  0.75899  1.0000
  H   H18       1.0  0.78899  0.96152  0.75899  1.0000
  H   H19       1.0  0.28899  0.46152  0.24101  1.0000
  H   H20       1.0  0.21101  0.03848  0.24101  1.0000
  H   H21       1.0  0.75000  0.75000  0.87442  1.0000
  H   H22       1.0  0.25000  0.25000  0.12558  1.0000
  H   H23       1.0  0.04023  0.00992  0.84959  1.0000
  H   H24       1.0  0.45977  0.49008  0.84959  1.0000
  H   H25       1.0  0.95977  0.99008  0.15041  1.0000
  H   H26       1.0  0.54023  0.50992  0.15041  1.0000
  H   H27       1.0  0.18238  0.12983  0.93284  1.0000
  H   H28       1.0  0.31762  0.37017  0.93284  1.0000
  H   H29       1.0  0.81762  0.87018  0.06716  1.0000
  H   H30       1.0  0.68238  0.62982  0.06716  1.0000
  H   H31       1.0  0.09975  0.17258  0.79386  1.0000
  H   H32       1.0  0.40026  0.32742  0.79387  1.0000
  H   H33       1.0  0.90025  0.82742  0.20613  1.0000
  H   H34       1.0  0.59975  0.67258  0.20613  1.0000
  C   C1        1.0  0.96116  0.49205  0.18434  1.0000
  C   C2        1.0  0.53884  0.00795  0.18434  1.0000
  C   C3        1.0  0.03884  0.50795  0.81566  1.0000
  C   C4        1.0  0.46116  0.99205  0.81566  1.0000
  C   C5        1.0  0.02187  0.59592  0.26251  1.0000
  C   C6        1.0  0.47813  0.90408  0.26251  1.0000
  C   C7        1.0  0.97813  0.40408  0.73749  1.0000
  C   C8        1.0  0.52187  0.09592  0.73749  1.0000
  C   C9        1.0  0.94089  0.60830  0.36979  1.0000
  C   C10       1.0  0.55911  0.89170  0.36979  1.0000
  C   C11       1.0  0.05911  0.39170  0.63021  1.0000
  C   C12       1.0  0.44089  0.10830  0.63021  1.0000
  C   C13       1.0  0.80025  0.51460  0.39628  1.0000
  C   C14       1.0  0.69974  0.98540  0.39628  1.0000
  C   C15       1.0  0.19975  0.48540  0.60372  1.0000
  C   C16       1.0  0.30025  0.01460  0.60372  1.0000
  C   C17       1.0  0.74661  0.41390  0.31231  1.0000
  C   C18       1.0  0.75339  0.08610  0.31231  1.0000
  C   C19       1.0  0.25339  0.58610  0.68769  1.0000
  C   C20       1.0  0.24661  0.91390  0.68769  1.0000
  C   C21       1.0  0.71189  0.51261  0.51300  1.0000
  C   C22       1.0  0.78811  0.98739  0.51300  1.0000
  C   C23       1.0  0.28811  0.48739  0.48700  1.0000
  C   C24       1.0  0.21189  0.01261  0.48700  1.0000
  C   C25       1.0  0.73179  0.63768  0.58398  1.0000
  C   C26       1.0  0.76821  0.86232  0.58398  1.0000
  C   C27       1.0  0.26821  0.36232  0.41602  1.0000
  C   C28       1.0  0.23179  0.13768  0.41602  1.0000
  C   C29       1.0  0.72810  0.63235  0.71136  1.0000
  C   C30       1.0  0.77190  0.86765  0.71136  1.0000
  C   C31       1.0  0.27189  0.36765  0.28864  1.0000
  C   C32       1.0  0.22810  0.13235  0.28864  1.0000
  C   C33       1.0  0.75000  0.75000  0.77568  1.0000
  C   C34       1.0  0.25000  0.25000  0.22433  1.0000
  C   C35       1.0  0.93725  0.15103  0.94317  1.0000
  C   C36       1.0  0.56275  0.34897  0.94317  1.0000
  C   C37       1.0  0.06275  0.84897  0.05683  1.0000
  C   C38       1.0  0.43725  0.65103  0.05683  1.0000
  C   C39       1.0  0.07416  0.11315  0.87705  1.0000
  C   C40       1.0  0.42584  0.38685  0.87706  1.0000
  C   C41       1.0  0.92584  0.88684  0.12294  1.0000
  C   C42       1.0  0.57416  0.61316  0.12295  1.0000
  N   N1        1.0  0.82492  0.40284  0.20866  1.0000
  N   N2        1.0  0.67508  0.09716  0.20866  1.0000
  N   N3        1.0  0.17508  0.59716  0.79134  1.0000
  N   N4        1.0  0.32492  0.90284  0.79134  1.0000
  N   N5        1.0  0.75000  0.75000  0.52048  1.0000
  N   N6        1.0  0.25000  0.25000  0.47952  1.0000
  O   O1        1.0  0.62741  0.40945  0.55267  1.0000
  O   O2        1.0  0.87259  0.09055  0.55267  1.0000
  O   O3        1.0  0.37259  0.59055  0.44733  1.0000
  O   O4        1.0  0.12741  0.90945  0.44733  1.0000
  O   O5        1.0  0.97100  0.24043  0.02662  1.0000
  O   O6        1.0  0.52900  0.25957  0.02662  1.0000
  O   O7        1.0  0.02900  0.75956  0.97338  1.0000
  O   O8        1.0  0.47100  0.74044  0.97338  1.0000
  O   O9        1.0  0.79472  0.09758  0.91652  1.0000
  O   O10       1.0  0.70528  0.40243  0.91652  1.0000
  O   O11       1.0  0.20528  0.90243  0.08348  1.0000
  O   O12       1.0  0.29472  0.59757  0.08348  1.0000
