data_image0
_chemical_formula_structural       Hg2H34C42N6O12
_chemical_formula_sum              "Hg2 H34 C42 N6 O12"
_cell_length_a       8.79968
_cell_length_b       10.5142
_cell_length_c       10.9944
_cell_angle_alpha    90
_cell_angle_beta     89.9998
_cell_angle_gamma    104.183

_space_group_name_H-M_alt    "P 1"
_space_group_IT_number       1

loop_
  _space_group_symop_operation_xyz
  'x, y, z'

loop_
  _atom_site_type_symbol
  _atom_site_label
  _atom_site_symmetry_multiplicity
  _atom_site_fract_x
  _atom_site_fract_y
  _atom_site_fract_z
  _atom_site_occupancy
  Hg  Hg1       1.0  0.75000  0.25000  0.05584  1.0000
  Hg  Hg2       1.0  0.25000  0.75000  0.94416  1.0000
  H   H1        1.0  0.04954  0.48312  0.11238  1.0000
  H   H2        1.0  0.45046  0.01688  0.11237  1.0000
  H   H3        1.0  0.95046  0.51688  0.88763  1.0000
  H   H4        1.0  0.54954  0.98312  0.88763  1.0000
  H   H5        1.0  0.14931  0.66984  0.25336  1.0000
  H   H6        1.0  0.35070  0.83016  0.25336  1.0000
  H   H7        1.0  0.85070  0.33016  0.74664  1.0000
  H   H8        1.0  0.64930  0.16984  0.74664  1.0000
  H   H9        1.0  0.99340  0.69289  0.43905  1.0000
  H   H10       1.0  0.50660  0.80711  0.43905  1.0000
  H   H11       1.0  0.00661  0.30711  0.56095  1.0000
  H   H12       1.0  0.49340  0.19289  0.56095  1.0000
  H   H13       1.0  0.65362  0.34243  0.32476  1.0000
  H   H14       1.0  0.84638  0.15757  0.32476  1.0000
  H   H15       1.0  0.34639  0.65758  0.67524  1.0000
  H   H16       1.0  0.15362  0.84242  0.67524  1.0000
  H   H17       1.0  0.70474  0.53864  0.75541  1.0000
  H   H18       1.0  0.79526  0.96135  0.75541  1.0000
  H   H19       1.0  0.29526  0.46136  0.24458  1.0000
  H   H20       1.0  0.20474  0.03864  0.24459  1.0000
  H   H21       1.0  0.75000  0.75000  0.87182  1.0000
  H   H22       1.0  0.24999  0.25000  0.12818  1.0000
  H   H23       1.0  0.05173  0.99673  0.84882  1.0000
  H   H24       1.0  0.44827  0.50327  0.84882  1.0000
  H   H25       1.0  0.94827  0.00327  0.15118  1.0000
  H   H26       1.0  0.55173  0.49674  0.15118  1.0000
  H   H27       1.0  0.20917  0.12654  0.90480  1.0000
  H   H28       1.0  0.29082  0.37346  0.90480  1.0000
  H   H29       1.0  0.79082  0.87346  0.09520  1.0000
  H   H30       1.0  0.70918  0.62655  0.09520  1.0000
  H   H31       1.0  0.10910  0.14573  0.76670  1.0000
  H   H32       1.0  0.39090  0.35427  0.76670  1.0000
  H   H33       1.0  0.89090  0.85427  0.23330  1.0000
  H   H34       1.0  0.60911  0.64573  0.23329  1.0000
  C   C1        1.0  0.98328  0.49678  0.19302  1.0000
  C   C2        1.0  0.51673  0.00323  0.19302  1.0000
  C   C3        1.0  0.01673  0.50322  0.80698  1.0000
  C   C4        1.0  0.48327  0.99677  0.80698  1.0000
  C   C5        1.0  0.03852  0.60041  0.27296  1.0000
  C   C6        1.0  0.46148  0.89959  0.27296  1.0000
  C   C7        1.0  0.96149  0.39959  0.72704  1.0000
  C   C8        1.0  0.53852  0.10041  0.72704  1.0000
  C   C9        1.0  0.95141  0.61190  0.37622  1.0000
  C   C10       1.0  0.54859  0.88810  0.37622  1.0000
  C   C11       1.0  0.04859  0.38810  0.62378  1.0000
  C   C12       1.0  0.45141  0.11190  0.62378  1.0000
  C   C13       1.0  0.81112  0.51705  0.39772  1.0000
  C   C14       1.0  0.68888  0.98295  0.39772  1.0000
  C   C15       1.0  0.18889  0.48295  0.60228  1.0000
  C   C16       1.0  0.31112  0.01706  0.60228  1.0000
  C   C17       1.0  0.76333  0.41662  0.31221  1.0000
  C   C18       1.0  0.73667  0.08338  0.31221  1.0000
  C   C19       1.0  0.23668  0.58338  0.68779  1.0000
  C   C20       1.0  0.26333  0.91662  0.68779  1.0000
  C   C21       1.0  0.71587  0.51374  0.51021  1.0000
  C   C22       1.0  0.78413  0.98626  0.51020  1.0000
  C   C23       1.0  0.28413  0.48625  0.48979  1.0000
  C   C24       1.0  0.21587  0.01375  0.48980  1.0000
  C   C25       1.0  0.73137  0.63808  0.58080  1.0000
  C   C26       1.0  0.76863  0.86192  0.58079  1.0000
  C   C27       1.0  0.26863  0.36192  0.41920  1.0000
  C   C28       1.0  0.23137  0.13808  0.41920  1.0000
  C   C29       1.0  0.72549  0.63265  0.70819  1.0000
  C   C30       1.0  0.77451  0.86735  0.70819  1.0000
  C   C31       1.0  0.27451  0.36735  0.29181  1.0000
  C   C32       1.0  0.22548  0.13265  0.29181  1.0000
  C   C33       1.0  0.75000  0.75000  0.77283  1.0000
  C   C34       1.0  0.24999  0.25000  0.22717  1.0000
  C   C35       1.0  0.97748  0.15841  0.92702  1.0000
  C   C36       1.0  0.52251  0.34158  0.92702  1.0000
  C   C37       1.0  0.02251  0.84158  0.07298  1.0000
  C   C38       1.0  0.47749  0.65842  0.07298  1.0000
  C   C39       1.0  0.09555  0.10309  0.85859  1.0000
  C   C40       1.0  0.40445  0.39691  0.85859  1.0000
  C   C41       1.0  0.90445  0.89691  0.14141  1.0000
  C   C42       1.0  0.59555  0.60310  0.14141  1.0000
  N   N1        1.0  0.84704  0.40743  0.21233  1.0000
  N   N2        1.0  0.65296  0.09257  0.21233  1.0000
  N   N3        1.0  0.15297  0.59257  0.78767  1.0000
  N   N4        1.0  0.34704  0.90743  0.78767  1.0000
  N   N5        1.0  0.75000  0.75000  0.51708  1.0000
  N   N6        1.0  0.25000  0.25000  0.48292  1.0000
  O   O1        1.0  0.63001  0.40971  0.54713  1.0000
  O   O2        1.0  0.87000  0.09029  0.54713  1.0000
  O   O3        1.0  0.36999  0.59028  0.45287  1.0000
  O   O4        1.0  0.13001  0.90972  0.45287  1.0000
  O   O5        1.0  0.02532  0.25228  0.00174  1.0000
  O   O6        1.0  0.47467  0.24772  0.00174  1.0000
  O   O7        1.0  0.97467  0.74772  0.99826  1.0000
  O   O8        1.0  0.52533  0.75229  0.99826  1.0000
  O   O9        1.0  0.83170  0.10886  0.90630  1.0000
  O   O10       1.0  0.66830  0.39113  0.90631  1.0000
  O   O11       1.0  0.16830  0.89113  0.09369  1.0000
  O   O12       1.0  0.33171  0.60888  0.09369  1.0000
