data_image0
_chemical_formula_structural       Zn4H56C32N8Cl8O8
_chemical_formula_sum              "Zn4 H56 C32 N8 Cl8 O8"
_cell_length_a       5.9137
_cell_length_b       11.8489
_cell_length_c       17.1791
_cell_angle_alpha    89.9993
_cell_angle_beta     96.6553
_cell_angle_gamma    90.0004

_space_group_name_H-M_alt    "P 1"
_space_group_IT_number       1

loop_
  _space_group_symop_operation_xyz
  'x, y, z'

loop_
  _atom_site_type_symbol
  _atom_site_label
  _atom_site_symmetry_multiplicity
  _atom_site_fract_x
  _atom_site_fract_y
  _atom_site_fract_z
  _atom_site_occupancy
  Zn  Zn1       1.0  0.00243  0.38185  0.15689  1.0000
  Zn  Zn2       1.0  0.99757  0.88186  0.84311  1.0000
  Zn  Zn3       1.0  0.06251  0.42685  0.62865  1.0000
  Zn  Zn4       1.0  0.93749  0.92685  0.37135  1.0000
  H   H1        1.0  0.07509  0.60101  0.51815  1.0000
  H   H2        1.0  0.92493  0.10101  0.48185  1.0000
  H   H3        1.0  0.18529  0.62963  0.42974  1.0000
  H   H4        1.0  0.81474  0.12964  0.57027  1.0000
  H   H5        1.0  0.24364  0.65790  0.22335  1.0000
  H   H6        1.0  0.75637  0.15791  0.77665  1.0000
  H   H7        1.0  0.39150  0.55874  0.17111  1.0000
  H   H8        1.0  0.60849  0.05875  0.82889  1.0000
  H   H9        1.0  0.12215  0.62585  0.72409  1.0000
  H   H10       1.0  0.87783  0.12584  0.27591  1.0000
  H   H11       1.0  0.32515  0.68551  0.79467  1.0000
  H   H12       1.0  0.67483  0.18549  0.20533  1.0000
  H   H13       1.0  0.76172  0.55728  0.38254  1.0000
  H   H14       1.0  0.23830  0.05730  0.61745  1.0000
  H   H15       1.0  0.55866  0.66330  0.39797  1.0000
  H   H16       1.0  0.44137  0.16331  0.60203  1.0000
  H   H17       1.0  0.74880  0.55267  0.77178  1.0000
  H   H18       1.0  0.25119  0.05265  0.22822  1.0000
  H   H19       1.0  0.56329  0.35513  0.86158  1.0000
  H   H20       1.0  0.43667  0.85512  0.13842  1.0000
  H   H21       1.0  0.66127  0.34744  0.76863  1.0000
  H   H22       1.0  0.33870  0.84742  0.23137  1.0000
  H   H23       1.0  0.71227  0.81331  0.97281  1.0000
  H   H24       1.0  0.28775  0.31331  0.02720  1.0000
  H   H25       1.0  0.88911  0.69893  0.00909  1.0000
  H   H26       1.0  0.11089  0.19893  0.99091  1.0000
  H   H27       1.0  0.27902  0.35955  0.38576  1.0000
  H   H28       1.0  0.72100  0.85957  0.61425  1.0000
  H   H29       1.0  0.59994  0.47788  0.97502  1.0000
  H   H30       1.0  0.40005  0.97788  0.02498  1.0000
  H   H31       1.0  0.33533  0.52505  0.92479  1.0000
  H   H32       1.0  0.66466  0.02505  0.07521  1.0000
  H   H33       1.0  0.62184  0.72611  0.27058  1.0000
  H   H34       1.0  0.37816  0.22612  0.72941  1.0000
  H   H35       1.0  0.74523  0.59538  0.24855  1.0000
  H   H36       1.0  0.25477  0.09538  0.75144  1.0000
  H   H37       1.0  0.54581  0.63312  0.05905  1.0000
  H   H38       1.0  0.45418  0.13312  0.94095  1.0000
  H   H39       1.0  0.37014  0.70630  0.98434  1.0000
  H   H40       1.0  0.62986  0.20630  0.01567  1.0000
  H   H41       1.0  0.05175  0.40540  0.82447  1.0000
  H   H42       1.0  0.94822  0.90540  0.17553  1.0000
  H   H43       1.0  0.96300  0.28467  0.87320  1.0000
  H   H44       1.0  0.03694  0.78466  0.12680  1.0000
  H   H45       1.0  0.96222  0.41815  0.91982  1.0000
  H   H46       1.0  0.03775  0.91815  0.08018  1.0000
  H   H47       1.0  0.57709  0.31947  0.49840  1.0000
  H   H48       1.0  0.42294  0.81947  0.50161  1.0000
  H   H49       1.0  0.72742  0.44041  0.47597  1.0000
  H   H50       1.0  0.27261  0.94041  0.52403  1.0000
  H   H51       1.0  0.61797  0.23405  0.36865  1.0000
  H   H52       1.0  0.38205  0.73406  0.63136  1.0000
  H   H53       1.0  0.89196  0.27417  0.41348  1.0000
  H   H54       1.0  0.10807  0.77417  0.58652  1.0000
  H   H55       1.0  0.75109  0.35690  0.33698  1.0000
  H   H56       1.0  0.24891  0.85691  0.66303  1.0000
  C   C1        1.0  0.75191  0.67942  0.89116  1.0000
  C   C2        1.0  0.24808  0.17941  0.10884  1.0000
  C   C3        1.0  0.29923  0.50221  0.28138  1.0000
  C   C4        1.0  0.70078  0.00222  0.71862  1.0000
  C   C5        1.0  0.39378  0.52472  0.75573  1.0000
  C   C6        1.0  0.60620  0.02471  0.24427  1.0000
  C   C7        1.0  0.37704  0.59273  0.22955  1.0000
  C   C8        1.0  0.62296  0.09274  0.77044  1.0000
  C   C9        1.0  0.25507  0.47143  0.47918  1.0000
  C   C10       1.0  0.74492  0.97142  0.52083  1.0000
  C   C11       1.0  0.59883  0.59467  0.35867  1.0000
  C   C12       1.0  0.40119  0.09469  0.64133  1.0000
  C   C13       1.0  0.62351  0.51545  0.80725  1.0000
  C   C14       1.0  0.37647  0.01544  0.19274  1.0000
  C   C15       1.0  0.68576  0.39170  0.82496  1.0000
  C   C16       1.0  0.31422  0.89169  0.17504  1.0000
  C   C17       1.0  0.72994  0.72126  0.97252  1.0000
  C   C18       1.0  0.27006  0.22126  0.02748  1.0000
  C   C19       1.0  0.38790  0.42669  0.41457  1.0000
  C   C20       1.0  0.61212  0.92670  0.58543  1.0000
  C   C21       1.0  0.51111  0.54997  0.94491  1.0000
  C   C22       1.0  0.48887  0.04996  0.05509  1.0000
  C   C23       1.0  0.60164  0.63456  0.27341  1.0000
  C   C24       1.0  0.39836  0.13456  0.72658  1.0000
  C   C25       1.0  0.52585  0.65589  0.99690  1.0000
  C   C26       1.0  0.47415  0.15589  0.00310  1.0000
  C   C27       1.0  0.92906  0.37496  0.86307  1.0000
  C   C28       1.0  0.07091  0.87495  0.13694  1.0000
  C   C29       1.0  0.61406  0.37361  0.44964  1.0000
  C   C30       1.0  0.38596  0.87362  0.55036  1.0000
  C   C31       1.0  0.72510  0.30648  0.38886  1.0000
  C   C32       1.0  0.27492  0.80649  0.61114  1.0000
  N   N1        1.0  0.41862  0.50804  0.35310  1.0000
  N   N2        1.0  0.58140  0.00806  0.64690  1.0000
  N   N3        1.0  0.62887  0.58434  0.87763  1.0000
  N   N4        1.0  0.37112  0.08433  0.12237  1.0000
  N   N5        1.0  0.17235  0.57539  0.47564  1.0000
  N   N6        1.0  0.82772  0.07541  0.52434  1.0000
  N   N7        1.0  0.27032  0.61681  0.76080  1.0000
  N   N8        1.0  0.72967  0.11680  0.23920  1.0000
  Cl  Cl1       1.0  0.06661  0.49960  0.06141  1.0000
  Cl  Cl2       1.0  0.93337  0.99961  0.93859  1.0000
  Cl  Cl3       1.0  0.63034  0.35859  0.16588  1.0000
  Cl  Cl4       1.0  0.36966  0.85860  0.83413  1.0000
  Cl  Cl5       1.0  0.84324  0.58412  0.61794  1.0000
  Cl  Cl6       1.0  0.15676  0.08412  0.38205  1.0000
  Cl  Cl7       1.0  0.88498  0.26823  0.65255  1.0000
  Cl  Cl8       1.0  0.11503  0.76823  0.34745  1.0000
  O   O1        1.0  0.87044  0.72211  0.84184  1.0000
  O   O2        1.0  0.12954  0.22210  0.15815  1.0000
  O   O3        1.0  0.33423  0.44380  0.70953  1.0000
  O   O4        1.0  0.66576  0.94378  0.29046  1.0000
  O   O5        1.0  0.14202  0.43089  0.26480  1.0000
  O   O6        1.0  0.85797  0.93091  0.73521  1.0000
  O   O7        1.0  0.22591  0.40301  0.53385  1.0000
  O   O8        1.0  0.77411  0.90301  0.46614  1.0000
