data_image0
_chemical_formula_structural       Na2Cd2H34C22O26
_chemical_formula_sum              "Na2 Cd2 H34 C22 O26"
_cell_length_a       6.76656
_cell_length_b       10.6869
_cell_length_c       12.6546
_cell_angle_alpha    73.6226
_cell_angle_beta     91.8005
_cell_angle_gamma    77.599

_space_group_name_H-M_alt    "P 1"
_space_group_IT_number       1

loop_
  _space_group_symop_operation_xyz
  'x, y, z'

loop_
  _atom_site_type_symbol
  _atom_site_label
  _atom_site_symmetry_multiplicity
  _atom_site_fract_x
  _atom_site_fract_y
  _atom_site_fract_z
  _atom_site_occupancy
  Na  Na1       1.0  0.32726  0.86654  0.88704  1.0000
  Na  Na2       1.0  0.67273  0.13346  0.11296  1.0000
  Cd  Cd1       1.0  0.29865  0.23830  0.64215  1.0000
  Cd  Cd2       1.0  0.70135  0.76169  0.35786  1.0000
  H   H1        1.0  0.15214  0.98832  0.63954  1.0000
  H   H2        1.0  0.84786  0.01169  0.36045  1.0000
  H   H3        1.0  0.93830  0.09456  0.60736  1.0000
  H   H4        1.0  0.06169  0.90545  0.39264  1.0000
  H   H5        1.0  0.43076  0.32828  0.43694  1.0000
  H   H6        1.0  0.56924  0.67171  0.56307  1.0000
  H   H7        1.0  0.20609  0.42160  0.43006  1.0000
  H   H8        1.0  0.79393  0.57840  0.56994  1.0000
  H   H9        1.0  0.64748  0.36738  0.65095  1.0000
  H   H10       1.0  0.35251  0.63262  0.34904  1.0000
  H   H11       1.0  0.45673  0.47364  0.66458  1.0000
  H   H12       1.0  0.54328  0.52637  0.33542  1.0000
  H   H13       1.0  0.40131  0.75081  0.14650  1.0000
  H   H14       1.0  0.59871  0.24918  0.85350  1.0000
  H   H15       1.0  0.44909  0.88940  0.12124  1.0000
  H   H16       1.0  0.55093  0.11059  0.87874  1.0000
  H   H17       1.0  0.01525  0.05989  0.78814  1.0000
  H   H18       1.0  0.98476  0.94011  0.21186  1.0000
  H   H19       1.0  0.89430  0.05926  0.89202  1.0000
  H   H20       1.0  0.10569  0.94075  0.10797  1.0000
  H   H21       1.0  0.85623  0.64529  0.70879  1.0000
  H   H22       1.0  0.14378  0.35469  0.29121  1.0000
  H   H23       1.0  0.66567  0.62840  0.03320  1.0000
  H   H24       1.0  0.33429  0.37160  0.96679  1.0000
  H   H25       1.0  0.92440  0.26271  0.95324  1.0000
  H   H26       1.0  0.07561  0.73729  0.04676  1.0000
  H   H27       1.0  0.68481  0.82761  0.67393  1.0000
  H   H28       1.0  0.31517  0.17240  0.32607  1.0000
  H   H29       1.0  0.90215  0.85784  0.73859  1.0000
  H   H30       1.0  0.09784  0.14216  0.26142  1.0000
  H   H31       1.0  0.52862  0.47859  0.15834  1.0000
  H   H32       1.0  0.47137  0.52141  0.84166  1.0000
  H   H33       1.0  0.78327  0.47785  0.19803  1.0000
  H   H34       1.0  0.21670  0.52217  0.80196  1.0000
  C   C1        1.0  0.89021  0.44799  0.82192  1.0000
  C   C2        1.0  0.10981  0.55201  0.17808  1.0000
  C   C3        1.0  0.83306  0.58819  0.79111  1.0000
  C   C4        1.0  0.16695  0.41181  0.20888  1.0000
  C   C5        1.0  0.75509  0.65057  0.86876  1.0000
  C   C6        1.0  0.24489  0.34942  0.13124  1.0000
  C   C7        1.0  0.72608  0.57546  0.97505  1.0000
  C   C8        1.0  0.27391  0.42454  0.02495  1.0000
  C   C9        1.0  0.77918  0.43581  0.00245  1.0000
  C   C10       1.0  0.22082  0.56420  0.99755  1.0000
  C   C11       1.0  0.86769  0.37113  0.92760  1.0000
  C   C12       1.0  0.13229  0.62887  0.07241  1.0000
  C   C13       1.0  0.99386  0.38111  0.74286  1.0000
  C   C14       1.0  0.00617  0.61888  0.25716  1.0000
  C   C15       1.0  0.73816  0.86422  0.74033  1.0000
  C   C16       1.0  0.26184  0.13578  0.25966  1.0000
  C   C17       1.0  0.62006  0.00767  0.71373  1.0000
  C   C18       1.0  0.37996  0.99234  0.28626  1.0000
  C   C19       1.0  0.68264  0.41445  0.18508  1.0000
  C   C20       1.0  0.31735  0.58555  0.81491  1.0000
  C   C21       1.0  0.67713  0.30896  0.29392  1.0000
  C   C22       1.0  0.32286  0.69104  0.70608  1.0000
  O   O1        1.0  0.14494  0.28242  0.78559  1.0000
  O   O2        1.0  0.85507  0.71759  0.21443  1.0000
  O   O3        1.0  0.93602  0.42374  0.63945  1.0000
  O   O4        1.0  0.06403  0.57626  0.36056  1.0000
  O   O5        1.0  0.65940  0.09223  0.63004  1.0000
  O   O6        1.0  0.34060  0.90777  0.36995  1.0000
  O   O7        1.0  0.47352  0.03571  0.77213  1.0000
  O   O8        1.0  0.52648  0.96429  0.22786  1.0000
  O   O9        1.0  0.62591  0.35983  0.37226  1.0000
  O   O10       1.0  0.37410  0.64017  0.62775  1.0000
  O   O11       1.0  0.71719  0.18694  0.29860  1.0000
  O   O12       1.0  0.28281  0.81307  0.70140  1.0000
  O   O13       1.0  0.69663  0.78712  0.84645  1.0000
  O   O14       1.0  0.30337  0.21288  0.15355  1.0000
  O   O15       1.0  0.75334  0.35213  0.10280  1.0000
  O   O16       1.0  0.24664  0.64788  0.89720  1.0000
  O   O17       1.0  0.08252  0.08202  0.63335  1.0000
  O   O18       1.0  0.91747  0.91798  0.36664  1.0000
  O   O19       1.0  0.29166  0.32829  0.46358  1.0000
  O   O20       1.0  0.70833  0.67170  0.53642  1.0000
  O   O21       1.0  0.51932  0.37376  0.68536  1.0000
  O   O22       1.0  0.48067  0.62624  0.31464  1.0000
  O   O23       1.0  0.37691  0.83677  0.08763  1.0000
  O   O24       1.0  0.62309  0.16322  0.91237  1.0000
  O   O25       1.0  0.00757  0.00680  0.86458  1.0000
  O   O26       1.0  0.99244  0.99320  0.13542  1.0000
