data_image0
_chemical_formula_structural       Cd4H52C60N12O20
_chemical_formula_sum              "Cd4 H52 C60 N12 O20"
_cell_length_a       9.09158
_cell_length_b       10.5762
_cell_length_c       16.0919
_cell_angle_alpha    100.061
_cell_angle_beta     90
_cell_angle_gamma    90

_space_group_name_H-M_alt    "P 1"
_space_group_IT_number       1

loop_
  _space_group_symop_operation_xyz
  'x, y, z'

loop_
  _atom_site_type_symbol
  _atom_site_label
  _atom_site_symmetry_multiplicity
  _atom_site_fract_x
  _atom_site_fract_y
  _atom_site_fract_z
  _atom_site_occupancy
  Cd  Cd1       1.0  0.85924  0.30348  0.84428  1.0000
  Cd  Cd2       1.0  0.14076  0.30349  0.34428  1.0000
  Cd  Cd3       1.0  0.12097  0.02753  0.74547  1.0000
  Cd  Cd4       1.0  0.87904  0.02753  0.24547  1.0000
  H   H1        1.0  0.34424  0.78345  0.78724  1.0000
  H   H2        1.0  0.65576  0.78345  0.28724  1.0000
  H   H3        1.0  0.60636  0.53963  0.80903  1.0000
  H   H4        1.0  0.39364  0.53963  0.30902  1.0000
  H   H5        1.0  0.78615  0.28379  0.54964  1.0000
  H   H6        1.0  0.21385  0.28379  0.04964  1.0000
  H   H7        1.0  0.97982  0.28380  0.55447  1.0000
  H   H8        1.0  0.02019  0.28380  0.05447  1.0000
  H   H9        1.0  0.78994  0.03815  0.53503  1.0000
  H   H10       1.0  0.21006  0.03814  0.03503  1.0000
  H   H11       1.0  0.98426  0.04376  0.53954  1.0000
  H   H12       1.0  0.01574  0.04376  0.03953  1.0000
  H   H13       1.0  0.11666  0.72850  0.50682  1.0000
  H   H14       1.0  0.88335  0.72849  0.00682  1.0000
  H   H15       1.0  0.29913  0.76669  0.48466  1.0000
  H   H16       1.0  0.70088  0.76670  0.98466  1.0000
  H   H17       1.0  0.22793  0.57850  0.60495  1.0000
  H   H18       1.0  0.77206  0.57850  0.10495  1.0000
  H   H19       1.0  0.39998  0.60490  0.56047  1.0000
  H   H20       1.0  0.60001  0.60490  0.06047  1.0000
  H   H21       1.0  0.73257  0.17877  0.98489  1.0000
  H   H22       1.0  0.26743  0.17878  0.48489  1.0000
  H   H23       1.0  0.57436  0.99663  0.01655  1.0000
  H   H24       1.0  0.42564  0.99663  0.51655  1.0000
  H   H25       1.0  0.48100  0.90561  0.74890  1.0000
  H   H26       1.0  0.51900  0.90561  0.24890  1.0000
  H   H27       1.0  0.64345  0.08604  0.72986  1.0000
  H   H28       1.0  0.35655  0.08604  0.22986  1.0000
  H   H29       1.0  0.10665  0.45138  0.97135  1.0000
  H   H30       1.0  0.89335  0.45138  0.47135  1.0000
  H   H31       1.0  0.29153  0.62479  0.97967  1.0000
  H   H32       1.0  0.70847  0.62479  0.47967  1.0000
  H   H33       1.0  0.18827  0.64608  0.72066  1.0000
  H   H34       1.0  0.81172  0.64608  0.22066  1.0000
  H   H35       1.0  0.01167  0.46496  0.72157  1.0000
  H   H36       1.0  0.98833  0.46496  0.22157  1.0000
  H   H37       1.0  0.87681  0.91346  0.62104  1.0000
  H   H38       1.0  0.12319  0.91346  0.12103  1.0000
  H   H39       1.0  0.69094  0.73805  0.59023  1.0000
  H   H40       1.0  0.30906  0.73804  0.09023  1.0000
  H   H41       1.0  0.78408  0.64801  0.83740  1.0000
  H   H42       1.0  0.21592  0.64801  0.33740  1.0000
  H   H43       1.0  0.96247  0.82944  0.85763  1.0000
  H   H44       1.0  0.03754  0.82943  0.35763  1.0000
  H   H45       1.0  0.31587  0.22264  0.87506  1.0000
  H   H46       1.0  0.68413  0.22264  0.37506  1.0000
  H   H47       1.0  0.48240  0.40992  0.87899  1.0000
  H   H48       1.0  0.51760  0.40992  0.37899  1.0000
  H   H49       1.0  0.43886  0.36269  0.60778  1.0000
  H   H50       1.0  0.56114  0.36268  0.10777  1.0000
  H   H51       1.0  0.27362  0.17597  0.61584  1.0000
  H   H52       1.0  0.72637  0.17597  0.11584  1.0000
  C   C1        1.0  0.87376  0.24013  0.66380  1.0000
  C   C2        1.0  0.12624  0.24013  0.16379  1.0000
  C   C3        1.0  0.88092  0.23090  0.56869  1.0000
  C   C4        1.0  0.11908  0.23090  0.06869  1.0000
  C   C5        1.0  0.88622  0.09319  0.52044  1.0000
  C   C6        1.0  0.11378  0.09319  0.02044  1.0000
  C   C7        1.0  0.89310  0.08276  0.42541  1.0000
  C   C8        1.0  0.10691  0.08275  0.92541  1.0000
  C   C9        1.0  0.22803  0.83895  0.61024  1.0000
  C   C10       1.0  0.77196  0.83895  0.11024  1.0000
  C   C11       1.0  0.22938  0.73364  0.53238  1.0000
  C   C12       1.0  0.77062  0.73364  0.03238  1.0000
  C   C13       1.0  0.28081  0.60267  0.54870  1.0000
  C   C14       1.0  0.71919  0.60267  0.04870  1.0000
  C   C15       1.0  0.24925  0.49448  0.47613  1.0000
  C   C16       1.0  0.75075  0.49448  0.97612  1.0000
  C   C17       1.0  0.67437  0.11450  0.93535  1.0000
  C   C18       1.0  0.32563  0.11450  0.43535  1.0000
  C   C19       1.0  0.58639  0.01482  0.95239  1.0000
  C   C20       1.0  0.41362  0.01483  0.45239  1.0000
  C   C21       1.0  0.51426  0.93578  0.88591  1.0000
  C   C22       1.0  0.48573  0.93579  0.38591  1.0000
  C   C23       1.0  0.53459  0.96130  0.80408  1.0000
  C   C24       1.0  0.46541  0.96131  0.30408  1.0000
  C   C25       1.0  0.62484  0.06335  0.79258  1.0000
  C   C26       1.0  0.37516  0.06335  0.29258  1.0000
  C   C27       1.0  0.12820  0.49657  0.91663  1.0000
  C   C28       1.0  0.87179  0.49657  0.41663  1.0000
  C   C29       1.0  0.23029  0.59564  0.92180  1.0000
  C   C30       1.0  0.76971  0.59564  0.42180  1.0000
  C   C31       1.0  0.25329  0.65250  0.85011  1.0000
  C   C32       1.0  0.74671  0.65250  0.35011  1.0000
  C   C33       1.0  0.17368  0.60314  0.77680  1.0000
  C   C34       1.0  0.82632  0.60314  0.27680  1.0000
  C   C35       1.0  0.07621  0.50323  0.77735  1.0000
  C   C36       1.0  0.92378  0.50323  0.27735  1.0000
  C   C37       1.0  0.42320  0.82790  0.90906  1.0000
  C   C38       1.0  0.57680  0.82790  0.40906  1.0000
  C   C39       1.0  0.85236  0.85185  0.66683  1.0000
  C   C40       1.0  0.14764  0.85185  0.16683  1.0000
  C   C41       1.0  0.75052  0.75306  0.64972  1.0000
  C   C42       1.0  0.24948  0.75305  0.14972  1.0000
  C   C43       1.0  0.72489  0.67487  0.71005  1.0000
  C   C44       1.0  0.27510  0.67486  0.21004  1.0000
  C   C45       1.0  0.79881  0.70436  0.78732  1.0000
  C   C46       1.0  0.20119  0.70436  0.28732  1.0000
  C   C47       1.0  0.89941  0.80557  0.79930  1.0000
  C   C48       1.0  0.10059  0.80556  0.29930  1.0000
  C   C49       1.0  0.34597  0.25628  0.81712  1.0000
  C   C50       1.0  0.65403  0.25629  0.31712  1.0000
  C   C51       1.0  0.43808  0.36059  0.81924  1.0000
  C   C52       1.0  0.56192  0.36059  0.31924  1.0000
  C   C53       1.0  0.47455  0.40270  0.74347  1.0000
  C   C54       1.0  0.52545  0.40270  0.24346  1.0000
  C   C55       1.0  0.41515  0.33439  0.66797  1.0000
  C   C56       1.0  0.58485  0.33439  0.16797  1.0000
  C   C57       1.0  0.32327  0.23093  0.67250  1.0000
  C   C58       1.0  0.67673  0.23093  0.17250  1.0000
  C   C59       1.0  0.62406  0.56167  0.68463  1.0000
  C   C60       1.0  0.37593  0.56166  0.18462  1.0000
  N   N1        1.0  0.69365  0.13870  0.85674  1.0000
  N   N2        1.0  0.30636  0.13870  0.35674  1.0000
  N   N3        1.0  0.34955  0.75281  0.84430  1.0000
  N   N4        1.0  0.65045  0.75282  0.34430  1.0000
  N   N5        1.0  0.05152  0.45015  0.84635  1.0000
  N   N6        1.0  0.94847  0.45016  0.34635  1.0000
  N   N7        1.0  0.92792  0.87686  0.73988  1.0000
  N   N8        1.0  0.07208  0.87686  0.23987  1.0000
  N   N9        1.0  0.56400  0.51024  0.74954  1.0000
  N   N10       1.0  0.43600  0.51023  0.24954  1.0000
  N   N11       1.0  0.28807  0.19139  0.74510  1.0000
  N   N12       1.0  0.71193  0.19138  0.24510  1.0000
  O   O1        1.0  0.93049  0.15307  0.69938  1.0000
  O   O2        1.0  0.06951  0.15308  0.19937  1.0000
  O   O3        1.0  0.81024  0.33794  0.70643  1.0000
  O   O4        1.0  0.18976  0.33794  0.20643  1.0000
  O   O5        1.0  0.82580  0.98846  0.38062  1.0000
  O   O6        1.0  0.17421  0.98846  0.88062  1.0000
  O   O7        1.0  0.96378  0.16500  0.39221  1.0000
  O   O8        1.0  0.03623  0.16499  0.89221  1.0000
  O   O9        1.0  0.16740  0.94530  0.60200  1.0000
  O   O10       1.0  0.83260  0.94530  0.10200  1.0000
  O   O11       1.0  0.28007  0.81837  0.68012  1.0000
  O   O12       1.0  0.71993  0.81837  0.18012  1.0000
  O   O13       1.0  0.28729  0.50682  0.40132  1.0000
  O   O14       1.0  0.71271  0.50683  0.90131  1.0000
  O   O15       1.0  0.18388  0.39410  0.49098  1.0000
  O   O16       1.0  0.81611  0.39410  0.99097  1.0000
  O   O17       1.0  0.59806  0.52241  0.60909  1.0000
  O   O18       1.0  0.40194  0.52241  0.10908  1.0000
  O   O19       1.0  0.42147  0.80914  0.98285  1.0000
  O   O20       1.0  0.57853  0.80914  0.48284  1.0000
