data_image0
_chemical_formula_structural       Ag8H12C20N12O20
_chemical_formula_sum              "Ag8 H12 C20 N12 O20"
_cell_length_a       6.03109
_cell_length_b       8.8688
_cell_length_c       15.3831
_cell_angle_alpha    93.1561
_cell_angle_beta     89.9994
_cell_angle_gamma    90.0003

_space_group_name_H-M_alt    "P 1"
_space_group_IT_number       1

loop_
  _space_group_symop_operation_xyz
  'x, y, z'

loop_
  _atom_site_type_symbol
  _atom_site_label
  _atom_site_symmetry_multiplicity
  _atom_site_fract_x
  _atom_site_fract_y
  _atom_site_fract_z
  _atom_site_occupancy
  Ag  Ag1       1.0  0.78390  0.36237  0.80549  1.0000
  Ag  Ag2       1.0  0.28389  0.63762  0.69451  1.0000
  Ag  Ag3       1.0  0.21610  0.63763  0.19450  1.0000
  Ag  Ag4       1.0  0.71611  0.36237  0.30550  1.0000
  Ag  Ag5       1.0  0.44473  0.24896  0.67887  1.0000
  Ag  Ag6       1.0  0.94473  0.75103  0.82113  1.0000
  Ag  Ag7       1.0  0.55527  0.75104  0.32113  1.0000
  Ag  Ag8       1.0  0.05528  0.24896  0.17887  1.0000
  H   H1        1.0  0.79897  0.15015  0.96697  1.0000
  H   H2        1.0  0.29897  0.84986  0.53303  1.0000
  H   H3        1.0  0.20105  0.84987  0.03304  1.0000
  H   H4        1.0  0.70102  0.15014  0.46697  1.0000
  H   H5        1.0  0.07892  0.38768  0.00571  1.0000
  H   H6        1.0  0.57893  0.61232  0.49429  1.0000
  H   H7        1.0  0.92108  0.61233  0.99429  1.0000
  H   H8        1.0  0.42107  0.38768  0.50571  1.0000
  H   H9        1.0  0.56201  0.10451  0.09860  1.0000
  H   H10       1.0  0.06200  0.89550  0.40140  1.0000
  H   H11       1.0  0.43800  0.89548  0.90140  1.0000
  H   H12       1.0  0.93799  0.10450  0.59860  1.0000
  C   C1        1.0  0.37675  0.37031  0.92843  1.0000
  C   C2        1.0  0.87676  0.62969  0.57157  1.0000
  C   C3        1.0  0.62325  0.62969  0.07158  1.0000
  C   C4        1.0  0.12324  0.37031  0.42843  1.0000
  C   C5        1.0  0.63958  0.20664  0.97710  1.0000
  C   C6        1.0  0.13959  0.79337  0.52290  1.0000
  C   C7        1.0  0.36043  0.79336  0.02290  1.0000
  C   C8        1.0  0.86042  0.20664  0.47710  1.0000
  C   C9        1.0  0.29667  0.48571  0.86692  1.0000
  C   C10       1.0  0.79667  0.51428  0.63307  1.0000
  C   C11       1.0  0.70333  0.51428  0.13308  1.0000
  C   C12       1.0  0.20333  0.48572  0.36692  1.0000
  C   C13       1.0  0.24105  0.33566  0.99795  1.0000
  C   C14       1.0  0.74105  0.66435  0.50205  1.0000
  C   C15       1.0  0.75896  0.66435  0.00206  1.0000
  C   C16       1.0  0.25895  0.33566  0.49794  1.0000
  C   C17       1.0  0.50608  0.17894  0.04889  1.0000
  C   C18       1.0  0.00607  0.82107  0.45111  1.0000
  C   C19       1.0  0.49393  0.82106  0.95111  1.0000
  C   C20       1.0  0.99393  0.17893  0.54888  1.0000
  N   N1        1.0  0.57684  0.30417  0.91773  1.0000
  N   N2        1.0  0.07684  0.69584  0.58227  1.0000
  N   N3        1.0  0.42317  0.69584  0.08227  1.0000
  N   N4        1.0  0.92316  0.30417  0.41773  1.0000
  N   N5        1.0  0.10137  0.06363  0.80296  1.0000
  N   N6        1.0  0.60137  0.93636  0.69704  1.0000
  N   N7        1.0  0.89863  0.93636  0.19704  1.0000
  N   N8        1.0  0.39863  0.06364  0.30296  1.0000
  N   N9        1.0  0.19436  0.24336  0.55905  1.0000
  N   N10       1.0  0.69436  0.75663  0.94095  1.0000
  N   N11       1.0  0.80564  0.75663  0.44095  1.0000
  N   N12       1.0  0.30564  0.24337  0.05906  1.0000
  O   O1        1.0  0.42764  0.52436  0.80761  1.0000
  O   O2        1.0  0.92764  0.47565  0.69239  1.0000
  O   O3        1.0  0.57235  0.47564  0.19239  1.0000
  O   O4        1.0  0.07236  0.52435  0.30761  1.0000
  O   O5        1.0  0.13105  0.19971  0.78301  1.0000
  O   O6        1.0  0.63105  0.80028  0.71698  1.0000
  O   O7        1.0  0.86894  0.80029  0.21699  1.0000
  O   O8        1.0  0.36894  0.19971  0.28302  1.0000
  O   O9        1.0  0.10272  0.53693  0.88122  1.0000
  O   O10       1.0  0.60273  0.46305  0.61877  1.0000
  O   O11       1.0  0.89728  0.46306  0.11878  1.0000
  O   O12       1.0  0.39726  0.53695  0.38122  1.0000
  O   O13       1.0  0.58684  0.03982  0.75775  1.0000
  O   O14       1.0  0.08685  0.96017  0.74225  1.0000
  O   O15       1.0  0.41315  0.96018  0.24225  1.0000
  O   O16       1.0  0.91315  0.03983  0.25775  1.0000
  O   O17       1.0  0.08396  0.03188  0.88168  1.0000
  O   O18       1.0  0.58396  0.96812  0.61832  1.0000
  O   O19       1.0  0.91605  0.96812  0.11832  1.0000
  O   O20       1.0  0.41605  0.03188  0.38168  1.0000
