data_image0
_chemical_formula_structural       Zn4H44C58N4O16
_chemical_formula_sum              "Zn4 H44 C58 N4 O16"
_cell_length_a       9.48536
_cell_length_b       9.81877
_cell_length_c       15.1672
_cell_angle_alpha    81.3628
_cell_angle_beta     73.3245
_cell_angle_gamma    75.458

_space_group_name_H-M_alt    "P 1"
_space_group_IT_number       1

loop_
  _space_group_symop_operation_xyz
  'x, y, z'

loop_
  _atom_site_type_symbol
  _atom_site_label
  _atom_site_symmetry_multiplicity
  _atom_site_fract_x
  _atom_site_fract_y
  _atom_site_fract_z
  _atom_site_occupancy
  Zn  Zn1       1.0  0.25119  0.90846  0.30375  1.0000
  Zn  Zn2       1.0  0.74881  0.09154  0.69625  1.0000
  Zn  Zn3       1.0  0.31329  0.12741  0.10192  1.0000
  Zn  Zn4       1.0  0.68670  0.87259  0.89808  1.0000
  H   H1        1.0  0.78533  0.08248  0.10938  1.0000
  H   H2        1.0  0.21467  0.91752  0.89062  1.0000
  H   H3        1.0  0.14526  0.05163  0.48409  1.0000
  H   H4        1.0  0.85473  0.94837  0.51591  1.0000
  H   H5        1.0  0.22486  0.46664  0.27584  1.0000
  H   H6        1.0  0.77514  0.53336  0.72416  1.0000
  H   H7        1.0  0.56681  0.19529  0.95021  1.0000
  H   H8        1.0  0.43319  0.80471  0.04978  1.0000
  H   H9        1.0  0.55462  0.65658  0.81673  1.0000
  H   H10       1.0  0.44538  0.34342  0.18327  1.0000
  H   H11       1.0  0.37839  0.75571  0.87274  1.0000
  H   H12       1.0  0.62160  0.24428  0.12726  1.0000
  H   H13       1.0  0.26106  0.70907  0.75666  1.0000
  H   H14       1.0  0.73894  0.29093  0.24333  1.0000
  H   H15       1.0  0.43028  0.59176  0.70465  1.0000
  H   H16       1.0  0.56972  0.40824  0.29535  1.0000
  H   H17       1.0  0.21200  0.01894  0.63250  1.0000
  H   H18       1.0  0.78800  0.98106  0.36750  1.0000
  H   H19       1.0  0.69911  0.66669  0.19984  1.0000
  H   H20       1.0  0.30089  0.33331  0.80017  1.0000
  H   H21       1.0  0.12237  0.40063  0.05583  1.0000
  H   H22       1.0  0.87764  0.59937  0.94417  1.0000
  H   H23       1.0  0.14864  0.73741  0.14558  1.0000
  H   H24       1.0  0.85136  0.26259  0.85442  1.0000
  H   H25       1.0  0.62101  0.40319  0.84220  1.0000
  H   H26       1.0  0.37899  0.59681  0.15780  1.0000
  H   H27       1.0  0.97384  0.57184  0.18600  1.0000
  H   H28       1.0  0.02616  0.42816  0.81400  1.0000
  H   H29       1.0  0.16243  0.62447  0.95678  1.0000
  H   H30       1.0  0.83757  0.37553  0.04322  1.0000
  H   H31       1.0  0.82608  0.68130  0.46131  1.0000
  H   H32       1.0  0.17392  0.31871  0.53869  1.0000
  H   H33       1.0  0.49934  0.72537  0.37668  1.0000
  H   H34       1.0  0.50066  0.27463  0.62332  1.0000
  H   H35       1.0  0.39997  0.90720  0.72009  1.0000
  H   H36       1.0  0.60003  0.09280  0.27991  1.0000
  H   H37       1.0  0.56807  0.78882  0.66880  1.0000
  H   H38       1.0  0.43193  0.21118  0.33120  1.0000
  H   H39       1.0  0.57849  0.67459  0.52429  1.0000
  H   H40       1.0  0.42151  0.32541  0.47571  1.0000
  H   H41       1.0  0.87103  0.24741  0.41249  1.0000
  H   H42       1.0  0.12897  0.75259  0.58751  1.0000
  H   H43       1.0  0.71981  0.46254  0.49094  1.0000
  H   H44       1.0  0.28019  0.53746  0.50906  1.0000
  C   C1        1.0  0.56090  0.93740  0.16135  1.0000
  C   C2        1.0  0.43910  0.06260  0.83865  1.0000
  C   C3        1.0  0.39743  0.53331  0.89236  1.0000
  C   C4        1.0  0.60257  0.46669  0.10764  1.0000
  C   C5        1.0  0.14346  0.21901  0.28603  1.0000
  C   C6        1.0  0.85655  0.78099  0.71398  1.0000
  C   C7        1.0  0.05598  0.34413  0.33842  1.0000
  C   C8        1.0  0.94402  0.65587  0.66159  1.0000
  C   C9        1.0  0.72466  0.88021  0.15501  1.0000
  C   C10       1.0  0.27534  0.11979  0.84499  1.0000
  C   C11       1.0  0.82452  0.97093  0.12830  1.0000
  C   C12       1.0  0.17548  0.02907  0.87170  1.0000
  C   C13       1.0  0.97602  0.92102  0.12813  1.0000
  C   C14       1.0  0.02398  0.07898  0.87187  1.0000
  C   C15       1.0  0.07445  0.02487  0.11190  1.0000
  C   C16       1.0  0.92555  0.97513  0.88810  1.0000
  C   C17       1.0  0.24210  0.97028  0.49475  1.0000
  C   C18       1.0  0.75790  0.02972  0.50525  1.0000
  C   C19       1.0  0.11466  0.46543  0.32339  1.0000
  C   C20       1.0  0.88534  0.53456  0.67661  1.0000
  C   C21       1.0  0.03223  0.58579  0.36847  1.0000
  C   C22       1.0  0.96778  0.41421  0.63153  1.0000
  C   C23       1.0  0.47972  0.29160  0.94892  1.0000
  C   C24       1.0  0.52028  0.70840  0.05108  1.0000
  C   C25       1.0  0.43268  0.66310  0.83304  1.0000
  C   C26       1.0  0.56732  0.33690  0.16696  1.0000
  C   C27       1.0  0.38486  0.68765  0.74231  1.0000
  C   C28       1.0  0.61514  0.31235  0.25769  1.0000
  C   C29       1.0  0.28056  0.95054  0.57841  1.0000
  C   C30       1.0  0.71944  0.04945  0.42159  1.0000
  C   C31       1.0  0.77816  0.73650  0.17809  1.0000
  C   C32       1.0  0.22183  0.26350  0.82192  1.0000
  C   C33       1.0  0.23134  0.40837  0.00834  1.0000
  C   C34       1.0  0.76866  0.59163  0.99166  1.0000
  C   C35       1.0  0.03012  0.77611  0.14701  1.0000
  C   C36       1.0  0.96988  0.22389  0.85299  1.0000
  C   C37       1.0  0.40237  0.84241  0.59176  1.0000
  C   C38       1.0  0.59763  0.15759  0.40824  1.0000
  C   C39       1.0  0.50970  0.40930  0.89012  1.0000
  C   C40       1.0  0.49030  0.59070  0.10988  1.0000
  C   C41       1.0  0.93155  0.68423  0.17061  1.0000
  C   C42       1.0  0.06844  0.31577  0.82939  1.0000
  C   C43       1.0  0.25451  0.53092  0.95276  1.0000
  C   C44       1.0  0.74549  0.46908  0.04724  1.0000
  C   C45       1.0  0.88862  0.58535  0.42779  1.0000
  C   C46       1.0  0.11138  0.41465  0.57221  1.0000
  C   C47       1.0  0.43871  0.78627  0.43597  1.0000
  C   C48       1.0  0.56129  0.21373  0.56403  1.0000
  C   C49       1.0  0.44442  0.81245  0.68184  1.0000
  C   C50       1.0  0.55558  0.18755  0.31816  1.0000
  C   C51       1.0  0.48205  0.75960  0.51788  1.0000
  C   C52       1.0  0.51794  0.24040  0.48212  1.0000
  C   C53       1.0  0.91435  0.34305  0.40008  1.0000
  C   C54       1.0  0.08565  0.65695  0.59992  1.0000
  C   C55       1.0  0.83039  0.46436  0.44356  1.0000
  C   C56       1.0  0.16961  0.53564  0.55644  1.0000
  C   C57       1.0  0.09294  0.71642  0.35265  1.0000
  C   C58       1.0  0.90706  0.28358  0.64735  1.0000
  N   N1        1.0  0.34259  0.29113  0.00738  1.0000
  N   N2        1.0  0.65742  0.70887  0.99262  1.0000
  N   N3        1.0  0.31968  0.88968  0.42452  1.0000
  N   N4        1.0  0.68032  0.11032  0.57548  1.0000
  O   O1        1.0  0.52752  0.03664  0.10089  1.0000
  O   O2        1.0  0.47248  0.96336  0.89911  1.0000
  O   O3        1.0  0.46787  0.88331  0.22637  1.0000
  O   O4        1.0  0.53213  0.11669  0.77363  1.0000
  O   O5        1.0  0.11467  0.09862  0.31877  1.0000
  O   O6        1.0  0.88533  0.90138  0.68123  1.0000
  O   O7        1.0  0.24149  0.24277  0.21147  1.0000
  O   O8        1.0  0.75851  0.75723  0.78853  1.0000
  O   O9        1.0  0.22643  0.71326  0.29689  1.0000
  O   O10       1.0  0.77357  0.28674  0.70311  1.0000
  O   O11       1.0  0.01580  0.82484  0.39200  1.0000
  O   O12       1.0  0.98420  0.17516  0.60800  1.0000
  O   O13       1.0  0.21349  0.97086  0.11669  1.0000
  O   O14       1.0  0.78651  0.02914  0.88331  1.0000
  O   O15       1.0  0.02442  0.15448  0.09782  1.0000
  O   O16       1.0  0.97558  0.84552  0.90218  1.0000
