data_image0
_chemical_formula_structural       Cd4H32C48S8N40O8
_chemical_formula_sum              "Cd4 H32 C48 S8 N40 O8"
_cell_length_a       10.8946
_cell_length_b       11.008
_cell_length_c       13.842
_cell_angle_alpha    90.0002
_cell_angle_beta     90.0001
_cell_angle_gamma    89.9999

_space_group_name_H-M_alt    "P 1"
_space_group_IT_number       1

loop_
  _space_group_symop_operation_xyz
  'x, y, z'

loop_
  _atom_site_type_symbol
  _atom_site_label
  _atom_site_symmetry_multiplicity
  _atom_site_fract_x
  _atom_site_fract_y
  _atom_site_fract_z
  _atom_site_occupancy
  Cd  Cd1       1.0  0.56360  0.72667  0.86646  1.0000
  Cd  Cd2       1.0  0.93640  0.27333  0.36647  1.0000
  Cd  Cd3       1.0  0.06360  0.77333  0.13353  1.0000
  Cd  Cd4       1.0  0.43640  0.22667  0.63353  1.0000
  H   H1        1.0  0.07331  0.98527  0.83830  1.0000
  H   H2        1.0  0.42669  0.01474  0.33831  1.0000
  H   H3        1.0  0.57331  0.51473  0.16170  1.0000
  H   H4        1.0  0.92670  0.48526  0.66170  1.0000
  H   H5        1.0  0.15651  0.09765  0.68563  1.0000
  H   H6        1.0  0.34348  0.90235  0.18564  1.0000
  H   H7        1.0  0.65652  0.40235  0.31437  1.0000
  H   H8        1.0  0.84348  0.59765  0.81437  1.0000
  H   H9        1.0  0.01799  0.05132  0.53092  1.0000
  H   H10       1.0  0.48200  0.94867  0.03092  1.0000
  H   H11       1.0  0.51799  0.44867  0.46908  1.0000
  H   H12       1.0  0.98201  0.55132  0.96908  1.0000
  H   H13       1.0  0.19920  0.71898  0.67877  1.0000
  H   H14       1.0  0.30080  0.28102  0.17878  1.0000
  H   H15       1.0  0.69920  0.78102  0.32123  1.0000
  H   H16       1.0  0.80079  0.21898  0.82122  1.0000
  H   H17       1.0  0.05525  0.61471  0.54985  1.0000
  H   H18       1.0  0.44475  0.38529  0.04986  1.0000
  H   H19       1.0  0.55525  0.88529  0.45015  1.0000
  H   H20       1.0  0.94474  0.11470  0.95014  1.0000
  H   H21       1.0  0.07788  0.71859  0.37900  1.0000
  H   H22       1.0  0.42212  0.28141  0.87901  1.0000
  H   H23       1.0  0.57788  0.78141  0.62100  1.0000
  H   H24       1.0  0.92212  0.21858  0.12099  1.0000
  H   H25       1.0  0.97464  0.85485  0.92088  1.0000
  H   H26       1.0  0.52536  0.14515  0.42088  1.0000
  H   H27       1.0  0.47464  0.64514  0.07912  1.0000
  H   H28       1.0  0.02536  0.35485  0.57912  1.0000
  H   H29       1.0  0.32585  0.84230  0.74369  1.0000
  H   H30       1.0  0.17415  0.15770  0.24370  1.0000
  H   H31       1.0  0.82585  0.65770  0.25630  1.0000
  H   H32       1.0  0.67415  0.34230  0.75630  1.0000
  C   C1        1.0  0.81785  0.78921  0.98265  1.0000
  C   C2        1.0  0.68215  0.21079  0.48265  1.0000
  C   C3        1.0  0.31785  0.71079  0.01734  1.0000
  C   C4        1.0  0.18215  0.28921  0.51735  1.0000
  C   C5        1.0  0.84734  0.84100  0.81109  1.0000
  C   C6        1.0  0.65266  0.15900  0.31109  1.0000
  C   C7        1.0  0.34733  0.65900  0.18891  1.0000
  C   C8        1.0  0.15266  0.34100  0.68891  1.0000
  C   C9        1.0  0.92525  0.91206  0.74733  1.0000
  C   C10       1.0  0.57475  0.08794  0.24733  1.0000
  C   C11       1.0  0.42525  0.58794  0.25267  1.0000
  C   C12       1.0  0.07475  0.41206  0.75268  1.0000
  C   C13       1.0  0.03002  0.97986  0.76748  1.0000
  C   C14       1.0  0.46998  0.02014  0.26748  1.0000
  C   C15       1.0  0.53002  0.52014  0.23252  1.0000
  C   C16       1.0  0.96999  0.47986  0.73252  1.0000
  C   C17       1.0  0.07522  0.04042  0.68516  1.0000
  C   C18       1.0  0.42477  0.95958  0.18516  1.0000
  C   C19       1.0  0.57523  0.45957  0.31484  1.0000
  C   C20       1.0  0.92477  0.54042  0.81484  1.0000
  C   C21       1.0  0.00452  0.01825  0.60405  1.0000
  C   C22       1.0  0.49547  0.98174  0.10405  1.0000
  C   C23       1.0  0.50453  0.48174  0.39595  1.0000
  C   C24       1.0  0.99547  0.51825  0.89595  1.0000
  C   C25       1.0  0.45461  0.97575  0.75733  1.0000
  C   C26       1.0  0.04540  0.02425  0.25733  1.0000
  C   C27       1.0  0.95461  0.52425  0.24267  1.0000
  C   C28       1.0  0.54540  0.47576  0.74267  1.0000
  C   C29       1.0  0.34684  0.92628  0.60821  1.0000
  C   C30       1.0  0.15316  0.07373  0.10822  1.0000
  C   C31       1.0  0.84684  0.57373  0.39178  1.0000
  C   C32       1.0  0.65316  0.42627  0.89178  1.0000
  C   C33       1.0  0.25938  0.84304  0.56439  1.0000
  C   C34       1.0  0.24062  0.15697  0.06440  1.0000
  C   C35       1.0  0.75938  0.65696  0.43560  1.0000
  C   C36       1.0  0.74062  0.34304  0.93560  1.0000
  C   C37       1.0  0.19233  0.74784  0.60376  1.0000
  C   C38       1.0  0.30767  0.25217  0.10377  1.0000
  C   C39       1.0  0.69233  0.75216  0.39624  1.0000
  C   C40       1.0  0.80767  0.24784  0.89623  1.0000
  C   C41       1.0  0.11551  0.69122  0.53503  1.0000
  C   C42       1.0  0.38448  0.30879  0.03504  1.0000
  C   C43       1.0  0.61551  0.80878  0.46497  1.0000
  C   C44       1.0  0.88448  0.19121  0.96496  1.0000
  C   C45       1.0  0.12539  0.74371  0.44480  1.0000
  C   C46       1.0  0.37461  0.25629  0.94481  1.0000
  C   C47       1.0  0.62538  0.75629  0.55520  1.0000
  C   C48       1.0  0.87461  0.24370  0.05519  1.0000
  S   S1        1.0  0.88421  0.92407  0.62693  1.0000
  S   S2        1.0  0.61579  0.07593  0.12693  1.0000
  S   S3        1.0  0.38421  0.57592  0.37307  1.0000
  S   S4        1.0  0.11579  0.42407  0.87308  1.0000
  S   S5        1.0  0.22664  0.86171  0.44298  1.0000
  S   S6        1.0  0.27336  0.13829  0.94298  1.0000
  S   S7        1.0  0.72664  0.63829  0.55702  1.0000
  S   S8        1.0  0.77336  0.36171  0.05702  1.0000
  N   N1        1.0  0.69924  0.75553  0.98424  1.0000
  N   N2        1.0  0.80076  0.24447  0.48424  1.0000
  N   N3        1.0  0.19924  0.74447  0.01576  1.0000
  N   N4        1.0  0.30076  0.25553  0.51576  1.0000
  N   N5        1.0  0.67555  0.71964  0.07606  1.0000
  N   N6        1.0  0.82446  0.28036  0.57606  1.0000
  N   N7        1.0  0.17555  0.78036  0.92394  1.0000
  N   N8        1.0  0.32445  0.21964  0.42394  1.0000
  N   N9        1.0  0.77502  0.73153  0.12745  1.0000
  N   N10       1.0  0.72499  0.26847  0.62745  1.0000
  N   N11       1.0  0.27502  0.76847  0.87255  1.0000
  N   N12       1.0  0.22498  0.23153  0.37255  1.0000
  N   N13       1.0  0.88479  0.83457  0.90635  1.0000
  N   N14       1.0  0.61521  0.16543  0.40635  1.0000
  N   N15       1.0  0.38479  0.66542  0.09365  1.0000
  N   N16       1.0  0.11522  0.33457  0.59365  1.0000
  N   N17       1.0  0.52285  0.92636  0.82770  1.0000
  N   N18       1.0  0.97715  0.07364  0.32771  1.0000
  N   N19       1.0  0.02285  0.57364  0.17230  1.0000
  N   N20       1.0  0.47715  0.42636  0.67229  1.0000
  N   N21       1.0  0.36779  0.91136  0.70568  1.0000
  N   N22       1.0  0.13221  0.08864  0.20568  1.0000
  N   N23       1.0  0.86779  0.58864  0.29432  1.0000
  N   N24       1.0  0.63221  0.41137  0.79432  1.0000
  N   N25       1.0  0.59597  0.01667  0.86161  1.0000
  N   N26       1.0  0.90403  0.98333  0.36161  1.0000
  N   N27       1.0  0.09597  0.48333  0.13839  1.0000
  N   N28       1.0  0.40403  0.51667  0.63839  1.0000
  N   N29       1.0  0.57331  0.11598  0.81350  1.0000
  N   N30       1.0  0.92669  0.88402  0.31349  1.0000
  N   N31       1.0  0.07331  0.38401  0.18650  1.0000
  N   N32       1.0  0.42669  0.61598  0.68650  1.0000
  N   N33       1.0  0.86659  0.77503  0.07088  1.0000
  N   N34       1.0  0.63341  0.22497  0.57088  1.0000
  N   N35       1.0  0.36659  0.72497  0.92911  1.0000
  N   N36       1.0  0.13341  0.27503  0.42912  1.0000
  N   N37       1.0  0.48362  0.09354  0.74769  1.0000
  N   N38       1.0  0.01637  0.90646  0.24769  1.0000
  N   N39       1.0  0.98363  0.40646  0.25230  1.0000
  N   N40       1.0  0.51637  0.59354  0.75231  1.0000
  O   O1        1.0  0.75233  0.78954  0.78106  1.0000
  O   O2        1.0  0.74767  0.21047  0.28106  1.0000
  O   O3        1.0  0.25234  0.71046  0.21894  1.0000
  O   O4        1.0  0.24768  0.28954  0.71894  1.0000
  O   O5        1.0  0.39992  0.00735  0.56015  1.0000
  O   O6        1.0  0.10009  0.99265  0.06015  1.0000
  O   O7        1.0  0.89991  0.49265  0.43985  1.0000
  O   O8        1.0  0.60008  0.50736  0.93985  1.0000
