data_image0
_chemical_formula_structural       Cu2H36C20O8
_chemical_formula_sum              "Cu2 H36 C20 O8"
_cell_length_a       5.22588
_cell_length_b       10.4799
_cell_length_c       10.879
_cell_angle_alpha    82.604
_cell_angle_beta     86.6542
_cell_angle_gamma    86.4102

_space_group_name_H-M_alt    "P 1"
_space_group_IT_number       1

loop_
  _space_group_symop_operation_xyz
  'x, y, z'

loop_
  _atom_site_type_symbol
  _atom_site_label
  _atom_site_symmetry_multiplicity
  _atom_site_fract_x
  _atom_site_fract_y
  _atom_site_fract_z
  _atom_site_occupancy
  Cu  Cu1       1.0  0.20484  0.04859  0.95315  1.0000
  Cu  Cu2       1.0  0.79520  0.95141  0.04683  1.0000
  H   H1        1.0  0.77810  0.23789  0.31283  1.0000
  H   H2        1.0  0.22189  0.76210  0.68717  1.0000
  H   H3        1.0  0.11906  0.23453  0.30740  1.0000
  H   H4        1.0  0.88092  0.76547  0.69259  1.0000
  H   H5        1.0  0.12127  0.41092  0.13387  1.0000
  H   H6        1.0  0.87870  0.58907  0.86612  1.0000
  H   H7        1.0  0.94274  0.58681  0.25503  1.0000
  H   H8        1.0  0.05726  0.41318  0.74497  1.0000
  H   H9        1.0  0.11080  0.46348  0.35257  1.0000
  H   H10       1.0  0.88920  0.53652  0.64742  1.0000
  H   H11       1.0  0.76997  0.47337  0.35741  1.0000
  H   H12       1.0  0.23004  0.52662  0.64260  1.0000
  H   H13       1.0  0.71722  0.37211  0.03652  1.0000
  H   H14       1.0  0.28274  0.62788  0.96348  1.0000
  H   H15       1.0  0.71216  0.53334  0.07150  1.0000
  H   H16       1.0  0.28782  0.46665  0.92849  1.0000
  H   H17       1.0  0.53351  0.41683  0.16805  1.0000
  H   H18       1.0  0.46645  0.58317  0.83195  1.0000
  H   H19       1.0  0.42611  0.28127  0.78424  1.0000
  H   H20       1.0  0.57394  0.71873  0.21578  1.0000
  H   H21       1.0  0.72033  0.32426  0.70222  1.0000
  H   H22       1.0  0.27969  0.67575  0.29777  1.0000
  H   H23       1.0  0.39692  0.09755  0.67379  1.0000
  H   H24       1.0  0.60309  0.90246  0.32624  1.0000
  H   H25       1.0  0.72619  0.04338  0.50681  1.0000
  H   H26       1.0  0.27381  0.95663  0.49319  1.0000
  H   H27       1.0  0.85368  0.01827  0.65626  1.0000
  H   H28       1.0  0.14633  0.98174  0.34374  1.0000
  H   H29       1.0  0.92966  0.15637  0.55235  1.0000
  H   H30       1.0  0.07033  0.84364  0.44766  1.0000
  H   H31       1.0  0.37677  0.20918  0.45478  1.0000
  H   H32       1.0  0.62322  0.79081  0.54524  1.0000
  H   H33       1.0  0.55628  0.33442  0.49555  1.0000
  H   H34       1.0  0.44369  0.66559  0.50445  1.0000
  H   H35       1.0  0.24403  0.30992  0.56497  1.0000
  H   H36       1.0  0.75595  0.69008  0.43505  1.0000
  C   C1        1.0  0.96649  0.16214  0.15608  1.0000
  C   C2        1.0  0.03350  0.83786  0.84392  1.0000
  C   C3        1.0  0.94938  0.25622  0.25137  1.0000
  C   C4        1.0  0.05060  0.74378  0.74862  1.0000
  C   C5        1.0  0.94466  0.39776  0.19328  1.0000
  C   C6        1.0  0.05531  0.60224  0.80672  1.0000
  C   C7        1.0  0.94307  0.48519  0.29532  1.0000
  C   C8        1.0  0.05692  0.51480  0.70467  1.0000
  C   C9        1.0  0.71450  0.43190  0.11256  1.0000
  C   C10       1.0  0.28547  0.56810  0.88744  1.0000
  C   C11       1.0  0.75476  0.16074  0.83941  1.0000
  C   C12       1.0  0.24531  0.83927  0.16058  1.0000
  C   C13       1.0  0.60508  0.24331  0.74097  1.0000
  C   C14       1.0  0.39496  0.75671  0.25903  1.0000
  C   C15       1.0  0.54010  0.16669  0.63552  1.0000
  C   C16       1.0  0.45992  0.83331  0.36448  1.0000
  C   C17       1.0  0.77525  0.09191  0.58529  1.0000
  C   C18       1.0  0.22476  0.90810  0.41471  1.0000
  C   C19       1.0  0.42142  0.26047  0.53218  1.0000
  C   C20       1.0  0.57856  0.73954  0.46783  1.0000
  O   O1        1.0  0.15488  0.17191  0.07619  1.0000
  O   O2        1.0  0.84509  0.82810  0.92380  1.0000
  O   O3        1.0  0.20725  0.91941  0.83570  1.0000
  O   O4        1.0  0.79275  0.08057  0.16431  1.0000
  O   O5        1.0  0.99658  0.17052  0.83678  1.0000
  O   O6        1.0  0.00351  0.82948  0.16319  1.0000
  O   O7        1.0  0.37100  0.91737  0.08284  1.0000
  O   O8        1.0  0.62906  0.08264  0.91715  1.0000
