data_image0
_chemical_formula_structural       Ag2H28C24S2N6O6
_chemical_formula_sum              "Ag2 H28 C24 S2 N6 O6"
_cell_length_a       5.66152
_cell_length_b       8.85258
_cell_length_c       14.341
_cell_angle_alpha    73.6888
_cell_angle_beta     88.2695
_cell_angle_gamma    74.5229

_space_group_name_H-M_alt    "P 1"
_space_group_IT_number       1

loop_
  _space_group_symop_operation_xyz
  'x, y, z'

loop_
  _atom_site_type_symbol
  _atom_site_label
  _atom_site_symmetry_multiplicity
  _atom_site_fract_x
  _atom_site_fract_y
  _atom_site_fract_z
  _atom_site_occupancy
  Ag  Ag1       1.0  0.07206  0.11682  0.04639  1.0000
  Ag  Ag2       1.0  0.92792  0.88320  0.95361  1.0000
  H   H1        1.0  0.82810  0.86688  0.30438  1.0000
  H   H2        1.0  0.17190  0.13311  0.69562  1.0000
  H   H3        1.0  0.73868  0.68062  0.45734  1.0000
  H   H4        1.0  0.26131  0.31936  0.54265  1.0000
  H   H5        1.0  0.98831  0.97157  0.42748  1.0000
  H   H6        1.0  0.01170  0.02841  0.57252  1.0000
  H   H7        1.0  0.07869  0.16202  0.27640  1.0000
  H   H8        1.0  0.92132  0.83798  0.72361  1.0000
  H   H9        1.0  0.10265  0.71682  0.55162  1.0000
  H   H10       1.0  0.89738  0.28315  0.44838  1.0000
  H   H11       1.0  0.36255  0.72776  0.61265  1.0000
  H   H12       1.0  0.63747  0.27223  0.38734  1.0000
  H   H13       1.0  0.39249  0.57385  0.55367  1.0000
  H   H14       1.0  0.60753  0.42613  0.44633  1.0000
  H   H15       1.0  0.13693  0.56996  0.72571  1.0000
  H   H16       1.0  0.86305  0.43005  0.27430  1.0000
  H   H17       1.0  0.83696  0.50887  0.62623  1.0000
  H   H18       1.0  0.16304  0.49116  0.37377  1.0000
  H   H19       1.0  0.59776  0.30960  0.70858  1.0000
  H   H20       1.0  0.40223  0.69043  0.29141  1.0000
  H   H21       1.0  0.51964  0.13432  0.86136  1.0000
  H   H22       1.0  0.48034  0.86570  0.13864  1.0000
  H   H23       1.0  0.61487  0.15213  0.96601  1.0000
  H   H24       1.0  0.38513  0.84788  0.03398  1.0000
  H   H25       1.0  0.22252  0.39704  0.98925  1.0000
  H   H26       1.0  0.77747  0.60297  0.01076  1.0000
  H   H27       1.0  0.28333  0.54030  0.88470  1.0000
  H   H28       1.0  0.71668  0.45972  0.11530  1.0000
  C   C1        1.0  0.46117  0.03000  0.28398  1.0000
  C   C2        1.0  0.53881  0.97001  0.71603  1.0000
  C   C3        1.0  0.64653  0.89304  0.33361  1.0000
  C   C4        1.0  0.35347  0.10695  0.66640  1.0000
  C   C5        1.0  0.59412  0.78805  0.41922  1.0000
  C   C6        1.0  0.40587  0.21193  0.58078  1.0000
  C   C7        1.0  0.35823  0.81567  0.45568  1.0000
  C   C8        1.0  0.64178  0.18431  0.54432  1.0000
  C   C9        1.0  0.17499  0.95136  0.40276  1.0000
  C   C10       1.0  0.82501  0.04863  0.59724  1.0000
  C   C11       1.0  0.22420  0.05907  0.31773  1.0000
  C   C12       1.0  0.77580  0.94092  0.68227  1.0000
  C   C13       1.0  0.30100  0.70260  0.54780  1.0000
  C   C14       1.0  0.69902  0.29737  0.45220  1.0000
  C   C15       1.0  0.05974  0.40853  0.85958  1.0000
  C   C16       1.0  0.94025  0.59147  0.14042  1.0000
  C   C17       1.0  0.03047  0.48453  0.75798  1.0000
  C   C18       1.0  0.96954  0.51547  0.24202  1.0000
  C   C19       1.0  0.86533  0.44897  0.70426  1.0000
  C   C20       1.0  0.13469  0.55104  0.29574  1.0000
  C   C21       1.0  0.73191  0.33771  0.74898  1.0000
  C   C22       1.0  0.26809  0.66231  0.25102  1.0000
  C   C23       1.0  0.77794  0.26270  0.84818  1.0000
  C   C24       1.0  0.22206  0.73730  0.15182  1.0000
  S   S1        1.0  0.52903  0.16697  0.17635  1.0000
  S   S2        1.0  0.47097  0.83304  0.82365  1.0000
  N   N1        1.0  0.93851  0.29545  0.90246  1.0000
  N   N2        1.0  0.06148  0.70456  0.09754  1.0000
  N   N3        1.0  0.21426  0.44312  0.91538  1.0000
  N   N4        1.0  0.78574  0.55688  0.08462  1.0000
  N   N5        1.0  0.66655  0.14034  0.89855  1.0000
  N   N6        1.0  0.33344  0.85967  0.10144  1.0000
  O   O1        1.0  0.29110  0.26413  0.12521  1.0000
  O   O2        1.0  0.70890  0.73587  0.87480  1.0000
  O   O3        1.0  0.66350  0.26698  0.20673  1.0000
  O   O4        1.0  0.33652  0.73301  0.79328  1.0000
  O   O5        1.0  0.68004  0.05997  0.12116  1.0000
  O   O6        1.0  0.31996  0.94004  0.87884  1.0000
