data_image0
_chemical_formula_structural       Zn4H44C32N20Cl8
_chemical_formula_sum              "Zn4 H44 C32 N20 Cl8"
_cell_length_a       6.87546
_cell_length_b       13.0238
_cell_length_c       13.8452
_cell_angle_alpha    108.245
_cell_angle_beta     90
_cell_angle_gamma    90.0001

_space_group_name_H-M_alt    "P 1"
_space_group_IT_number       1

loop_
  _space_group_symop_operation_xyz
  'x, y, z'

loop_
  _atom_site_type_symbol
  _atom_site_label
  _atom_site_symmetry_multiplicity
  _atom_site_fract_x
  _atom_site_fract_y
  _atom_site_fract_z
  _atom_site_occupancy
  Zn  Zn1       1.0  0.12360  0.18486  0.55204  1.0000
  Zn  Zn2       1.0  0.62360  0.31514  0.94796  1.0000
  Zn  Zn3       1.0  0.87640  0.81514  0.44796  1.0000
  Zn  Zn4       1.0  0.37640  0.68486  0.05204  1.0000
  H   H1        1.0  0.42698  0.99770  0.90221  1.0000
  H   H2        1.0  0.92699  0.50231  0.59780  1.0000
  H   H3        1.0  0.57302  0.00230  0.09780  1.0000
  H   H4        1.0  0.07301  0.49769  0.40220  1.0000
  H   H5        1.0  0.58245  0.00531  0.80337  1.0000
  H   H6        1.0  0.08245  0.49469  0.69663  1.0000
  H   H7        1.0  0.41756  0.99469  0.19663  1.0000
  H   H8        1.0  0.91755  0.50531  0.30337  1.0000
  H   H9        1.0  0.88860  0.07581  0.05174  1.0000
  H   H10       1.0  0.38860  0.42419  0.44826  1.0000
  H   H11       1.0  0.11140  0.92419  0.94826  1.0000
  H   H12       1.0  0.61140  0.57581  0.55174  1.0000
  H   H13       1.0  0.77160  0.19818  0.05807  1.0000
  H   H14       1.0  0.27160  0.30182  0.44192  1.0000
  H   H15       1.0  0.22840  0.80182  0.94192  1.0000
  H   H16       1.0  0.72840  0.69818  0.55807  1.0000
  H   H17       1.0  0.41159  0.84469  0.68155  1.0000
  H   H18       1.0  0.91158  0.65531  0.81846  1.0000
  H   H19       1.0  0.58841  0.15531  0.31845  1.0000
  H   H20       1.0  0.08842  0.34469  0.18154  1.0000
  H   H21       1.0  0.24636  0.84410  0.77954  1.0000
  H   H22       1.0  0.74636  0.65590  0.72046  1.0000
  H   H23       1.0  0.75364  0.15590  0.22046  1.0000
  H   H24       1.0  0.25364  0.34410  0.27954  1.0000
  H   H25       1.0  0.72593  0.90023  0.91778  1.0000
  H   H26       1.0  0.22594  0.59979  0.58223  1.0000
  H   H27       1.0  0.27407  0.09977  0.08222  1.0000
  H   H28       1.0  0.77407  0.40022  0.41777  1.0000
  H   H29       1.0  0.72692  0.82987  0.78533  1.0000
  H   H30       1.0  0.22692  0.67013  0.71468  1.0000
  H   H31       1.0  0.27308  0.17013  0.21467  1.0000
  H   H32       1.0  0.77309  0.32987  0.28533  1.0000
  H   H33       1.0  0.55191  0.79867  0.86698  1.0000
  H   H34       1.0  0.05191  0.70134  0.63303  1.0000
  H   H35       1.0  0.44809  0.20133  0.13302  1.0000
  H   H36       1.0  0.94809  0.29866  0.36697  1.0000
  H   H37       1.0  0.83036  0.24789  0.75079  1.0000
  H   H38       1.0  0.33036  0.25211  0.74921  1.0000
  H   H39       1.0  0.16964  0.75210  0.24921  1.0000
  H   H40       1.0  0.66964  0.74789  0.25079  1.0000
  H   H41       1.0  0.35293  0.97357  0.58383  1.0000
  H   H42       1.0  0.85293  0.52643  0.91617  1.0000
  H   H43       1.0  0.64707  0.02643  0.41617  1.0000
  H   H44       1.0  0.14707  0.47357  0.08383  1.0000
  C   C1        1.0  0.49842  0.94891  0.83179  1.0000
  C   C2        1.0  0.99842  0.55110  0.66822  1.0000
  C   C3        1.0  0.50158  0.05109  0.16821  1.0000
  C   C4        1.0  0.00158  0.44890  0.33178  1.0000
  C   C5        1.0  0.08610  0.04040  0.78740  1.0000
  C   C6        1.0  0.58609  0.45960  0.71260  1.0000
  C   C7        1.0  0.91391  0.95960  0.21260  1.0000
  C   C8        1.0  0.41391  0.54039  0.28740  1.0000
  C   C9        1.0  0.34459  0.89550  0.75231  1.0000
  C   C10       1.0  0.84459  0.60450  0.74769  1.0000
  C   C11       1.0  0.65541  0.10450  0.24769  1.0000
  C   C12       1.0  0.15542  0.39550  0.25231  1.0000
  C   C13       1.0  0.63270  0.86468  0.85152  1.0000
  C   C14       1.0  0.13270  0.63532  0.64849  1.0000
  C   C15       1.0  0.36730  0.13532  0.14848  1.0000
  C   C16       1.0  0.86730  0.36468  0.35151  1.0000
  C   C17       1.0  0.89447  0.11859  0.92167  1.0000
  C   C18       1.0  0.39447  0.38141  0.57832  1.0000
  C   C19       1.0  0.10553  0.88141  0.07833  1.0000
  C   C20       1.0  0.60553  0.61859  0.42168  1.0000
  C   C21       1.0  0.02780  0.11411  0.73691  1.0000
  C   C22       1.0  0.52780  0.38589  0.76309  1.0000
  C   C23       1.0  0.97220  0.88589  0.26309  1.0000
  C   C24       1.0  0.47220  0.61411  0.23691  1.0000
  C   C25       1.0  0.88914  0.18962  0.78494  1.0000
  C   C26       1.0  0.38914  0.31038  0.71506  1.0000
  C   C27       1.0  0.11086  0.81038  0.21506  1.0000
  C   C28       1.0  0.61086  0.68962  0.28494  1.0000
  C   C29       1.0  0.24903  0.01098  0.64365  1.0000
  C   C30       1.0  0.74903  0.48902  0.85635  1.0000
  C   C31       1.0  0.75097  0.98903  0.35635  1.0000
  C   C32       1.0  0.25097  0.51097  0.14365  1.0000
  N   N1        1.0  0.82228  0.19160  0.87682  1.0000
  N   N2        1.0  0.32228  0.30840  0.62317  1.0000
  N   N3        1.0  0.17771  0.80840  0.12317  1.0000
  N   N4        1.0  0.67771  0.69160  0.37683  1.0000
  N   N5        1.0  0.83041  0.12643  0.01554  1.0000
  N   N6        1.0  0.33041  0.37357  0.48446  1.0000
  N   N7        1.0  0.16959  0.87357  0.98446  1.0000
  N   N8        1.0  0.66959  0.62643  0.51554  1.0000
  N   N9        1.0  0.13317  0.09357  0.64700  1.0000
  N   N10       1.0  0.63317  0.40643  0.85299  1.0000
  N   N11       1.0  0.86683  0.90643  0.35300  1.0000
  N   N12       1.0  0.36683  0.59356  0.14700  1.0000
  N   N13       1.0  0.22528  0.97576  0.72632  1.0000
  N   N14       1.0  0.72528  0.52424  0.77368  1.0000
  N   N15       1.0  0.77472  0.02424  0.27368  1.0000
  N   N16       1.0  0.27472  0.47575  0.22632  1.0000
  N   N17       1.0  0.02213  0.03851  0.87727  1.0000
  N   N18       1.0  0.52213  0.46149  0.62273  1.0000
  N   N19       1.0  0.97786  0.96149  0.12273  1.0000
  N   N20       1.0  0.47787  0.53850  0.37727  1.0000
  Cl  Cl1       1.0  0.25506  0.10403  0.39928  1.0000
  Cl  Cl2       1.0  0.75505  0.39597  0.10072  1.0000
  Cl  Cl3       1.0  0.74495  0.89597  0.60072  1.0000
  Cl  Cl4       1.0  0.24495  0.60403  0.89928  1.0000
  Cl  Cl5       1.0  0.81699  0.23911  0.55075  1.0000
  Cl  Cl6       1.0  0.31699  0.26089  0.94925  1.0000
  Cl  Cl7       1.0  0.18301  0.76089  0.44925  1.0000
  Cl  Cl8       1.0  0.68301  0.73911  0.05075  1.0000
