data_image0
_chemical_formula_structural       Hg6H44C32N20Cl12
_chemical_formula_sum              "Hg6 H44 C32 N20 Cl12"
_cell_length_a       7.33664
_cell_length_b       13.9144
_cell_length_c       14.1612
_cell_angle_alpha    70.9762
_cell_angle_beta     90.0036
_cell_angle_gamma    90.0108

_space_group_name_H-M_alt    "P 1"
_space_group_IT_number       1

loop_
  _space_group_symop_operation_xyz
  'x, y, z'

loop_
  _atom_site_type_symbol
  _atom_site_label
  _atom_site_symmetry_multiplicity
  _atom_site_fract_x
  _atom_site_fract_y
  _atom_site_fract_z
  _atom_site_occupancy
  Hg  Hg1       1.0  0.00000  0.00000  0.00000  1.0000
  Hg  Hg2       1.0  0.48695  0.84329  0.05927  1.0000
  Hg  Hg3       1.0  0.51305  0.15671  0.94073  1.0000
  Hg  Hg4       1.0  0.50000  0.50000  0.00000  1.0000
  Hg  Hg5       1.0  0.98714  0.65672  0.94094  1.0000
  Hg  Hg6       1.0  0.01286  0.34328  0.05906  1.0000
  H   H1        1.0  0.94480  0.79033  0.58703  1.0000
  H   H2        1.0  0.05519  0.20967  0.41297  1.0000
  H   H3        1.0  0.97751  0.92127  0.56577  1.0000
  H   H4        1.0  0.02249  0.07873  0.43423  1.0000
  H   H5        1.0  0.55387  0.29050  0.58707  1.0000
  H   H6        1.0  0.44613  0.70950  0.41293  1.0000
  H   H7        1.0  0.52206  0.42148  0.56581  1.0000
  H   H8        1.0  0.47794  0.57852  0.43419  1.0000
  H   H9        1.0  0.92463  0.76013  0.10678  1.0000
  H   H10       1.0  0.07537  0.23988  0.89322  1.0000
  H   H11       1.0  0.02314  0.06529  0.22957  1.0000
  H   H12       1.0  0.97686  0.93471  0.77043  1.0000
  H   H13       1.0  0.80804  0.61140  0.24846  1.0000
  H   H14       1.0  0.19196  0.38860  0.75154  1.0000
  H   H15       1.0  0.78925  0.62353  0.36922  1.0000
  H   H16       1.0  0.21075  0.37647  0.63078  1.0000
  H   H17       1.0  0.14636  0.58487  0.27432  1.0000
  H   H18       1.0  0.85364  0.41513  0.72568  1.0000
  H   H19       1.0  0.12464  0.59215  0.39579  1.0000
  H   H20       1.0  0.87536  0.40785  0.60421  1.0000
  H   H21       1.0  0.12959  0.40996  0.40442  1.0000
  H   H22       1.0  0.87041  0.59004  0.59558  1.0000
  H   H23       1.0  0.94608  0.43073  0.31860  1.0000
  H   H24       1.0  0.05392  0.56927  0.68140  1.0000
  H   H25       1.0  0.91089  0.43824  0.44033  1.0000
  H   H26       1.0  0.08911  0.56176  0.55967  1.0000
  H   H27       1.0  0.47647  0.56546  0.22952  1.0000
  H   H28       1.0  0.52353  0.43454  0.77048  1.0000
  H   H29       1.0  0.57555  0.26004  0.10702  1.0000
  H   H30       1.0  0.42445  0.73996  0.89299  1.0000
  H   H31       1.0  0.70805  0.12394  0.37069  1.0000
  H   H32       1.0  0.29195  0.87605  0.62931  1.0000
  H   H33       1.0  0.69345  0.11139  0.24995  1.0000
  H   H34       1.0  0.30656  0.88861  0.75005  1.0000
  H   H35       1.0  0.36946  0.91018  0.40520  1.0000
  H   H36       1.0  0.63054  0.08982  0.59480  1.0000
  H   H37       1.0  0.58603  0.93957  0.44292  1.0000
  H   H38       1.0  0.41397  0.06043  0.55707  1.0000
  H   H39       1.0  0.55631  0.92983  0.32166  1.0000
  H   H40       1.0  0.44369  0.07017  0.67834  1.0000
  H   H41       1.0  0.35536  0.08383  0.27274  1.0000
  H   H42       1.0  0.64465  0.91617  0.72726  1.0000
  H   H43       1.0  0.37141  0.09308  0.39371  1.0000
  H   H44       1.0  0.62859  0.90692  0.60629  1.0000
  C   C1        1.0  0.93569  0.79528  0.16446  1.0000
  C   C2        1.0  0.06431  0.20473  0.83554  1.0000
  C   C3        1.0  0.97121  0.90660  0.24189  1.0000
  C   C4        1.0  0.02879  0.09340  0.75812  1.0000
  C   C5        1.0  0.99886  0.98740  0.27817  1.0000
  C   C6        1.0  0.00114  0.01261  0.72183  1.0000
  C   C7        1.0  0.96628  0.87384  0.44023  1.0000
  C   C8        1.0  0.03372  0.12616  0.55977  1.0000
  C   C9        1.0  0.94297  0.81027  0.31472  1.0000
  C   C10       1.0  0.05703  0.18974  0.68528  1.0000
  C   C11       1.0  0.88182  0.63305  0.30591  1.0000
  C   C12       1.0  0.11818  0.36695  0.69409  1.0000
  C   C13       1.0  0.05346  0.56895  0.33840  1.0000
  C   C14       1.0  0.94654  0.43105  0.66159  1.0000
  C   C15       1.0  0.00708  0.45591  0.37754  1.0000
  C   C16       1.0  0.99292  0.54409  0.62246  1.0000
  C   C17       1.0  0.50039  0.48754  0.27813  1.0000
  C   C18       1.0  0.49961  0.51246  0.72187  1.0000
  C   C19       1.0  0.52799  0.40671  0.24189  1.0000
  C   C20       1.0  0.47201  0.59329  0.75811  1.0000
  C   C21       1.0  0.55600  0.31041  0.31481  1.0000
  C   C22       1.0  0.44401  0.68959  0.68519  1.0000
  C   C23       1.0  0.53248  0.37399  0.44027  1.0000
  C   C24       1.0  0.46752  0.62601  0.55973  1.0000
  C   C25       1.0  0.56411  0.29525  0.16463  1.0000
  C   C26       1.0  0.43589  0.70475  0.83537  1.0000
  C   C27       1.0  0.61750  0.13318  0.30660  1.0000
  C   C28       1.0  0.38250  0.86682  0.69340  1.0000
  C   C29       1.0  0.49232  0.95612  0.37911  1.0000
  C   C30       1.0  0.50768  0.04388  0.62089  1.0000
  C   C31       1.0  0.44563  0.06900  0.33781  1.0000
  C   C32       1.0  0.55437  0.93100  0.66219  1.0000
  N   N1        1.0  0.96503  0.89389  0.14829  1.0000
  N   N2        1.0  0.03497  0.10611  0.85171  1.0000
  N   N3        1.0  0.91928  0.74207  0.26308  1.0000
  N   N4        1.0  0.08072  0.25793  0.73692  1.0000
  N   N5        1.0  0.93930  0.79026  0.41260  1.0000
  N   N6        1.0  0.06070  0.20974  0.58740  1.0000
  N   N7        1.0  0.99592  0.97066  0.37650  1.0000
  N   N8        1.0  0.00409  0.02934  0.62350  1.0000
  N   N9        1.0  0.96429  0.86130  0.53843  1.0000
  N   N10       1.0  0.03571  0.13870  0.46157  1.0000
  N   N11       1.0  0.50315  0.47081  0.37646  1.0000
  N   N12       1.0  0.49685  0.52919  0.62354  1.0000
  N   N13       1.0  0.53426  0.36145  0.53846  1.0000
  N   N14       1.0  0.46574  0.63855  0.46154  1.0000
  N   N15       1.0  0.55941  0.29039  0.41269  1.0000
  N   N16       1.0  0.44060  0.70960  0.58732  1.0000
  N   N17       1.0  0.53466  0.39388  0.14834  1.0000
  N   N18       1.0  0.46534  0.60612  0.85166  1.0000
  N   N19       1.0  0.58010  0.24214  0.26330  1.0000
  N   N20       1.0  0.41991  0.75785  0.73670  1.0000
  Cl  Cl1       1.0  0.17691  0.83822  0.95109  1.0000
  Cl  Cl2       1.0  0.82309  0.16178  0.04891  1.0000
  Cl  Cl3       1.0  0.40371  0.76351  0.22742  1.0000
  Cl  Cl4       1.0  0.59629  0.23649  0.77258  1.0000
  Cl  Cl5       1.0  0.64928  0.94841  0.91545  1.0000
  Cl  Cl6       1.0  0.35072  0.05159  0.08455  1.0000
  Cl  Cl7       1.0  0.67652  0.66185  0.04885  1.0000
  Cl  Cl8       1.0  0.32348  0.33815  0.95115  1.0000
  Cl  Cl9       1.0  0.14894  0.55152  0.08486  1.0000
  Cl  Cl10      1.0  0.85105  0.44848  0.91514  1.0000
  Cl  Cl11      1.0  0.90404  0.73681  0.77283  1.0000
  Cl  Cl12      1.0  0.09596  0.26319  0.22717  1.0000
