data_image0
_chemical_formula_structural       Zn3H30C44N6O20
_chemical_formula_sum              "Zn3 H30 C44 N6 O20"
_cell_length_a       9.7622
_cell_length_b       11.3368
_cell_length_c       12.1007
_cell_angle_alpha    70.4774
_cell_angle_beta     69.7427
_cell_angle_gamma    73.3194

_space_group_name_H-M_alt    "P 1"
_space_group_IT_number       1

loop_
  _space_group_symop_operation_xyz
  'x, y, z'

loop_
  _atom_site_type_symbol
  _atom_site_label
  _atom_site_symmetry_multiplicity
  _atom_site_fract_x
  _atom_site_fract_y
  _atom_site_fract_z
  _atom_site_occupancy
  Zn  Zn1       1.0  0.14555  0.68156  0.49441  1.0000
  Zn  Zn2       1.0  0.85445  0.31844  0.50559  1.0000
  Zn  Zn3       1.0  1.00000  0.00000  0.50000  1.0000
  H   H1        1.0  0.72865  0.91841  0.67536  1.0000
  H   H2        1.0  0.27135  0.08159  0.32464  1.0000
  H   H3        1.0  0.26559  0.97002  0.69799  1.0000
  H   H4        1.0  0.73441  0.02998  0.30202  1.0000
  H   H5        1.0  0.59542  0.73246  0.48045  1.0000
  H   H6        1.0  0.40457  0.26754  0.51955  1.0000
  H   H7        1.0  0.48475  0.80320  0.90522  1.0000
  H   H8        1.0  0.51524  0.19680  0.09479  1.0000
  H   H9        1.0  0.36683  0.74604  0.12922  1.0000
  H   H10       1.0  0.63316  0.25396  0.87079  1.0000
  H   H11       1.0  0.16278  0.13845  0.11403  1.0000
  H   H12       1.0  0.83722  0.86156  0.88597  1.0000
  H   H13       1.0  0.06237  0.73128  0.75345  1.0000
  H   H14       1.0  0.93764  0.26872  0.24654  1.0000
  H   H15       1.0  0.99110  0.42378  0.67082  1.0000
  H   H16       1.0  0.00890  0.57621  0.32917  1.0000
  H   H17       1.0  0.87657  0.59637  0.96021  1.0000
  H   H18       1.0  0.12344  0.40363  0.03978  1.0000
  H   H19       1.0  0.86106  0.33799  0.99552  1.0000
  H   H20       1.0  0.13895  0.66201  0.00448  1.0000
  H   H21       1.0  0.83100  0.32184  0.86523  1.0000
  H   H22       1.0  0.16900  0.67816  0.13476  1.0000
  H   H23       1.0  0.64589  0.39070  0.15093  1.0000
  H   H24       1.0  0.35412  0.60930  0.84906  1.0000
  H   H25       1.0  0.62276  0.51760  0.77888  1.0000
  H   H26       1.0  0.37726  0.48240  0.22112  1.0000
  H   H27       1.0  0.36422  0.49400  0.44431  1.0000
  H   H28       1.0  0.63578  0.50600  0.55569  1.0000
  H   H29       1.0  0.21841  0.43949  0.46902  1.0000
  H   H30       1.0  0.78159  0.56051  0.53098  1.0000
  C   C1        1.0  0.84027  0.76460  0.52390  1.0000
  C   C2        1.0  0.15973  0.23539  0.47610  1.0000
  C   C3        1.0  0.67972  0.81725  0.57400  1.0000
  C   C4        1.0  0.32028  0.18274  0.42600  1.0000
  C   C5        1.0  0.64247  0.89636  0.65177  1.0000
  C   C6        1.0  0.35753  0.10364  0.34824  1.0000
  C   C7        1.0  0.49426  0.94958  0.69523  1.0000
  C   C8        1.0  0.50574  0.05042  0.30477  1.0000
  C   C9        1.0  0.38142  0.92488  0.66605  1.0000
  C   C10       1.0  0.61858  0.07512  0.33395  1.0000
  C   C11       1.0  0.41867  0.84361  0.59053  1.0000
  C   C12       1.0  0.58133  0.15639  0.40947  1.0000
  C   C13       1.0  0.56781  0.79006  0.54423  1.0000
  C   C14       1.0  0.43219  0.20994  0.45577  1.0000
  C   C15       1.0  0.39516  0.00422  0.88313  1.0000
  C   C16       1.0  0.60484  0.99577  0.11688  1.0000
  C   C17       1.0  0.41487  0.87653  0.95120  1.0000
  C   C18       1.0  0.58512  0.12347  0.04881  1.0000
  C   C19       1.0  0.34689  0.84448  0.07565  1.0000
  C   C20       1.0  0.65310  0.15552  0.92435  1.0000
  C   C21       1.0  0.25379  0.93740  0.13580  1.0000
  C   C22       1.0  0.74621  0.06260  0.86420  1.0000
  C   C23       1.0  0.23312  0.06452  0.06909  1.0000
  C   C24       1.0  0.76688  0.93548  0.93091  1.0000
  C   C25       1.0  0.30461  0.09792  0.94438  1.0000
  C   C26       1.0  0.69539  0.90208  0.05562  1.0000
  C   C27       1.0  0.17881  0.89793  0.27001  1.0000
  C   C28       1.0  0.82118  0.10208  0.72999  1.0000
  C   C29       1.0  0.02214  0.64599  0.76796  1.0000
  C   C30       1.0  0.97786  0.35400  0.23203  1.0000
  C   C31       1.0  0.98673  0.49041  0.71941  1.0000
  C   C32       1.0  0.01327  0.50959  0.28058  1.0000
  C   C33       1.0  0.92775  0.58238  0.86940  1.0000
  C   C34       1.0  0.07226  0.41761  0.13059  1.0000
  C   C35       1.0  0.81569  0.38984  0.91735  1.0000
  C   C36       1.0  0.18432  0.61015  0.08264  1.0000
  C   C37       1.0  0.65268  0.44804  0.96011  1.0000
  C   C38       1.0  0.34732  0.55196  0.03989  1.0000
  C   C39       1.0  0.58193  0.43823  0.08441  1.0000
  C   C40       1.0  0.41808  0.56177  0.91558  1.0000
  C   C41       1.0  0.56927  0.51056  0.87587  1.0000
  C   C42       1.0  0.43075  0.48944  0.12412  1.0000
  C   C43       1.0  0.29575  0.82032  0.55772  1.0000
  C   C44       1.0  0.70424  0.17968  0.44228  1.0000
  N   N1        1.0  0.28092  0.23204  0.87835  1.0000
  N   N2        1.0  0.71908  0.76796  0.12165  1.0000
  N   N3        1.0  0.05819  0.58778  0.67485  1.0000
  N   N4        1.0  0.94180  0.41221  0.32515  1.0000
  N   N5        1.0  0.90600  0.48493  0.83679  1.0000
  N   N6        1.0  0.09400  0.51507  0.16320  1.0000
  O   O1        1.0  0.93768  0.81755  0.52819  1.0000
  O   O2        1.0  0.06232  0.18245  0.47181  1.0000
  O   O3        1.0  0.87823  0.66710  0.48283  1.0000
  O   O4        1.0  0.12176  0.33291  0.51717  1.0000
  O   O5        1.0  0.45842  0.04047  0.76094  1.0000
  O   O6        1.0  0.54158  0.95953  0.23907  1.0000
  O   O7        1.0  0.38461  0.27374  0.79343  1.0000
  O   O8        1.0  0.61540  0.72626  0.20656  1.0000
  O   O9        1.0  0.15586  0.29813  0.91316  1.0000
  O   O10       1.0  0.84415  0.70187  0.08684  1.0000
  O   O11       1.0  0.17907  0.77921  0.31487  1.0000
  O   O12       1.0  0.82091  0.22080  0.68512  1.0000
  O   O13       1.0  0.12277  0.98607  0.32514  1.0000
  O   O14       1.0  0.87723  0.01393  0.67487  1.0000
  O   O15       1.0  0.17117  0.89601  0.57919  1.0000
  O   O16       1.0  0.82882  0.10399  0.42081  1.0000
  O   O17       1.0  0.32356  0.72488  0.51458  1.0000
  O   O18       1.0  0.67644  0.27512  0.48542  1.0000
  O   O19       1.0  0.26583  0.51819  0.43134  1.0000
  O   O20       1.0  0.73417  0.48181  0.56866  1.0000
