data_image0
_chemical_formula_structural       Ag4H20C32Cl8O8
_chemical_formula_sum              "Ag4 H20 C32 Cl8 O8"
_cell_length_a       5.08553
_cell_length_b       12.3598
_cell_length_c       15.2702
_cell_angle_alpha    102.241
_cell_angle_beta     89.9839
_cell_angle_gamma    101.884

_space_group_name_H-M_alt    "P 1"
_space_group_IT_number       1

loop_
  _space_group_symop_operation_xyz
  'x, y, z'

loop_
  _atom_site_type_symbol
  _atom_site_label
  _atom_site_symmetry_multiplicity
  _atom_site_fract_x
  _atom_site_fract_y
  _atom_site_fract_z
  _atom_site_occupancy
  Ag  Ag1       1.0  0.79565  0.00143  0.44200  1.0000
  Ag  Ag2       1.0  0.79393  0.99835  0.05792  1.0000
  Ag  Ag3       1.0  0.20435  0.99857  0.55800  1.0000
  Ag  Ag4       1.0  0.20607  0.00165  0.94208  1.0000
  H   H1        1.0  0.02243  0.45384  0.24207  1.0000
  H   H2        1.0  0.56821  0.54676  0.25818  1.0000
  H   H3        1.0  0.97757  0.54616  0.75793  1.0000
  H   H4        1.0  0.43179  0.45324  0.74182  1.0000
  H   H5        1.0  0.12343  0.34888  0.09181  1.0000
  H   H6        1.0  0.77543  0.65158  0.40831  1.0000
  H   H7        1.0  0.87655  0.65112  0.90819  1.0000
  H   H8        1.0  0.22457  0.34842  0.59169  1.0000
  H   H9        1.0  0.40739  0.20365  0.08121  1.0000
  H   H10       1.0  0.20529  0.79633  0.41863  1.0000
  H   H11       1.0  0.59260  0.79634  0.91879  1.0000
  H   H12       1.0  0.79471  0.20367  0.58137  1.0000
  H   H13       1.0  0.53636  0.33276  0.44972  1.0000
  H   H14       1.0  0.20357  0.66710  0.05012  1.0000
  H   H15       1.0  0.46364  0.66724  0.55028  1.0000
  H   H16       1.0  0.79643  0.33290  0.94988  1.0000
  H   H17       1.0  0.70422  0.23546  0.38377  1.0000
  H   H18       1.0  0.46862  0.76461  0.11593  1.0000
  H   H19       1.0  0.29578  0.76454  0.61623  1.0000
  H   H20       1.0  0.53138  0.23539  0.88407  1.0000
  C   C1        1.0  0.40287  0.28543  0.31103  1.0000
  C   C2        1.0  0.11774  0.71458  0.18885  1.0000
  C   C3        1.0  0.59714  0.71457  0.68898  1.0000
  C   C4        1.0  0.88227  0.28542  0.81115  1.0000
  C   C5        1.0  0.24691  0.36743  0.31354  1.0000
  C   C6        1.0  0.87929  0.63281  0.18649  1.0000
  C   C7        1.0  0.75309  0.63257  0.68646  1.0000
  C   C8        1.0  0.12072  0.36719  0.81351  1.0000
  C   C9        1.0  0.14386  0.39000  0.23617  1.0000
  C   C10       1.0  0.75383  0.61043  0.26395  1.0000
  C   C11       1.0  0.85613  0.61000  0.76383  1.0000
  C   C12       1.0  0.24618  0.38957  0.73605  1.0000
  C   C13       1.0  0.20037  0.33076  0.15251  1.0000
  C   C14       1.0  0.87035  0.66955  0.34753  1.0000
  C   C15       1.0  0.79962  0.66925  0.84750  1.0000
  C   C16       1.0  0.12965  0.33045  0.65247  1.0000
  C   C17       1.0  0.35634  0.24916  0.14602  1.0000
  C   C18       1.0  0.10842  0.75087  0.35386  1.0000
  C   C19       1.0  0.64365  0.75084  0.85398  1.0000
  C   C20       1.0  0.89159  0.24913  0.64614  1.0000
  C   C21       1.0  0.45150  0.22757  0.22485  1.0000
  C   C22       1.0  0.22496  0.77235  0.27496  1.0000
  C   C23       1.0  0.54849  0.77243  0.77515  1.0000
  C   C24       1.0  0.77505  0.22765  0.72504  1.0000
  C   C25       1.0  0.50731  0.25835  0.39375  1.0000
  C   C26       1.0  0.24878  0.74158  0.10603  1.0000
  C   C27       1.0  0.49269  0.74165  0.60625  1.0000
  C   C28       1.0  0.75122  0.25841  0.89397  1.0000
  C   C29       1.0  0.32031  0.16239  0.42637  1.0000
  C   C30       1.0  0.15729  0.83738  0.07341  1.0000
  C   C31       1.0  0.67970  0.83761  0.57363  1.0000
  C   C32       1.0  0.84272  0.16262  0.92659  1.0000
  Cl  Cl1       1.0  0.18019  0.44630  0.41670  1.0000
  Cl  Cl2       1.0  0.73308  0.55405  0.08339  1.0000
  Cl  Cl3       1.0  0.81981  0.55370  0.58330  1.0000
  Cl  Cl4       1.0  0.26691  0.44595  0.91660  1.0000
  Cl  Cl5       1.0  0.63868  0.12330  0.21772  1.0000
  Cl  Cl6       1.0  0.51699  0.87631  0.28193  1.0000
  Cl  Cl7       1.0  0.36132  0.87670  0.78228  1.0000
  Cl  Cl8       1.0  0.48302  0.12369  0.71807  1.0000
  O   O1        1.0  0.07814  0.13382  0.39644  1.0000
  O   O2        1.0  0.94346  0.86578  0.10331  1.0000
  O   O3        1.0  0.92186  0.86618  0.60356  1.0000
  O   O4        1.0  0.05655  0.13422  0.89669  1.0000
  O   O5        1.0  0.42725  0.12096  0.48393  1.0000
  O   O6        1.0  0.30573  0.87894  0.01588  1.0000
  O   O7        1.0  0.57275  0.87904  0.51607  1.0000
  O   O8        1.0  0.69427  0.12106  0.98411  1.0000
