data_image0
_chemical_formula_structural       Er2H28C48N4O12
_chemical_formula_sum              "Er2 H28 C48 N4 O12"
_cell_length_a       9.93848
_cell_length_b       11.0607
_cell_length_c       12.8344
_cell_angle_alpha    98.1678
_cell_angle_beta     107.833
_cell_angle_gamma    111.136

_space_group_name_H-M_alt    "P 1"
_space_group_IT_number       1

loop_
  _space_group_symop_operation_xyz
  'x, y, z'

loop_
  _atom_site_type_symbol
  _atom_site_label
  _atom_site_symmetry_multiplicity
  _atom_site_fract_x
  _atom_site_fract_y
  _atom_site_fract_z
  _atom_site_occupancy
  Er  Er1       1.0  0.15700  0.70409  0.19817  1.0000
  Er  Er2       1.0  0.84299  0.29591  0.80183  1.0000
  H   H1        1.0  0.74005  0.62295  0.17777  1.0000
  H   H2        1.0  0.25993  0.37704  0.82221  1.0000
  H   H3        1.0  0.50869  0.35662  0.83603  1.0000
  H   H4        1.0  0.49128  0.64336  0.16396  1.0000
  H   H5        1.0  0.82647  0.90757  0.29379  1.0000
  H   H6        1.0  0.17354  0.09244  0.70622  1.0000
  H   H7        1.0  0.23292  0.95258  0.57126  1.0000
  H   H8        1.0  0.76709  0.04744  0.42875  1.0000
  H   H9        1.0  0.20958  0.40155  0.42714  1.0000
  H   H10       1.0  0.79042  0.59846  0.57287  1.0000
  H   H11       1.0  0.64201  0.68893  0.43343  1.0000
  H   H12       1.0  0.35798  0.31107  0.56658  1.0000
  H   H13       1.0  0.95564  0.62262  0.91117  1.0000
  H   H14       1.0  0.04434  0.37738  0.08882  1.0000
  H   H15       1.0  0.88928  0.72586  0.75579  1.0000
  H   H16       1.0  0.11072  0.27415  0.24420  1.0000
  H   H17       1.0  0.01914  0.98145  0.79824  1.0000
  H   H18       1.0  0.98087  0.01856  0.20176  1.0000
  H   H19       1.0  0.21196  0.20290  0.93873  1.0000
  H   H20       1.0  0.78806  0.79711  0.06128  1.0000
  H   H21       1.0  0.41283  0.33477  0.13358  1.0000
  H   H22       1.0  0.58719  0.66523  0.86643  1.0000
  H   H23       1.0  0.56632  0.33813  0.33222  1.0000
  H   H24       1.0  0.43369  0.66186  0.66779  1.0000
  H   H25       1.0  0.62863  0.20476  0.46881  1.0000
  H   H26       1.0  0.37137  0.79522  0.53119  1.0000
  H   H27       1.0  0.47638  0.95303  0.40460  1.0000
  H   H28       1.0  0.52362  0.04695  0.59539  1.0000
  C   C1        1.0  0.78681  0.47933  0.01472  1.0000
  C   C2        1.0  0.21318  0.52066  0.98526  1.0000
  C   C3        1.0  0.63779  0.48804  0.00823  1.0000
  C   C4        1.0  0.36220  0.51195  0.99176  1.0000
  C   C5        1.0  0.63377  0.56893  0.10082  1.0000
  C   C6        1.0  0.36621  0.43106  0.89917  1.0000
  C   C7        1.0  0.50326  0.41883  0.90724  1.0000
  C   C8        1.0  0.49671  0.58115  0.09274  1.0000
  C   C9        1.0  0.07328  0.84291  0.34401  1.0000
  C   C10       1.0  0.92674  0.15710  0.65600  1.0000
  C   C11       1.0  0.03409  0.92253  0.42451  1.0000
  C   C12       1.0  0.96591  0.07749  0.57550  1.0000
  C   C13       1.0  0.90239  0.94890  0.38414  1.0000
  C   C14       1.0  0.09761  0.05111  0.61587  1.0000
  C   C15       1.0  0.13120  0.97384  0.54095  1.0000
  C   C16       1.0  0.86881  0.02618  0.45907  1.0000
  C   C17       1.0  0.32753  0.60197  0.33799  1.0000
  C   C18       1.0  0.67247  0.39803  0.66201  1.0000
  C   C19       1.0  0.41704  0.54903  0.42103  1.0000
  C   C20       1.0  0.58295  0.45098  0.57897  1.0000
  C   C21       1.0  0.33682  0.44309  0.45898  1.0000
  C   C22       1.0  0.66317  0.55691  0.54103  1.0000
  C   C23       1.0  0.58100  0.60599  0.46282  1.0000
  C   C24       1.0  0.41900  0.39402  0.53719  1.0000
  C   C25       1.0  0.01159  0.73192  0.92800  1.0000
  C   C26       1.0  0.98841  0.26808  0.07199  1.0000
  C   C27       1.0  0.97515  0.79134  0.83971  1.0000
  C   C28       1.0  0.02486  0.20867  0.16029  1.0000
  C   C29       1.0  0.04728  0.93003  0.86252  1.0000
  C   C30       1.0  0.95274  0.06998  0.13748  1.0000
  C   C31       1.0  0.15970  0.00869  0.97329  1.0000
  C   C32       1.0  0.84031  0.99132  0.02671  1.0000
  C   C33       1.0  0.24137  0.15274  0.00357  1.0000
  C   C34       1.0  0.75864  0.84726  0.99644  1.0000
  C   C35       1.0  0.35115  0.22495  0.11099  1.0000
  C   C36       1.0  0.64887  0.77505  0.88901  1.0000
  C   C37       1.0  0.38859  0.15853  0.19613  1.0000
  C   C38       1.0  0.61142  0.84147  0.80387  1.0000
  C   C39       1.0  0.50412  0.22806  0.30744  1.0000
  C   C40       1.0  0.49589  0.77193  0.69257  1.0000
  C   C41       1.0  0.53763  0.15587  0.38332  1.0000
  C   C42       1.0  0.46237  0.84411  0.61667  1.0000
  C   C43       1.0  0.45305  0.01438  0.34818  1.0000
  C   C44       1.0  0.54695  0.98560  0.65182  1.0000
  C   C45       1.0  0.30814  0.01558  0.16894  1.0000
  C   C46       1.0  0.69187  0.98441  0.83106  1.0000
  C   C47       1.0  0.19032  0.93988  0.05651  1.0000
  C   C48       1.0  0.80969  0.06012  0.94349  1.0000
  N   N1        1.0  0.11398  0.80342  0.03390  1.0000
  N   N2        1.0  0.88602  0.19657  0.96610  1.0000
  N   N3        1.0  0.34031  0.94578  0.24495  1.0000
  N   N4        1.0  0.65969  0.05421  0.75505  1.0000
  O   O1        1.0  0.90954  0.55027  0.10417  1.0000
  O   O2        1.0  0.09044  0.44973  0.89581  1.0000
  O   O3        1.0  0.78280  0.40323  0.92899  1.0000
  O   O4        1.0  0.21719  0.59676  0.07100  1.0000
  O   O5        1.0  0.01270  0.82797  0.23675  1.0000
  O   O6        1.0  0.98729  0.17202  0.76326  1.0000
  O   O7        1.0  0.16881  0.79219  0.38264  1.0000
  O   O8        1.0  0.83123  0.20785  0.61737  1.0000
  O   O9        1.0  0.17937  0.53393  0.28541  1.0000
  O   O10       1.0  0.82061  0.46607  0.71459  1.0000
  O   O11       1.0  0.39944  0.71502  0.32160  1.0000
  O   O12       1.0  0.60055  0.28497  0.67839  1.0000
