data_image0
_chemical_formula_structural       Tm2H54C42N2O16
_chemical_formula_sum              "Tm2 H54 C42 N2 O16"
_cell_length_a       9.9126
_cell_length_b       12.5412
_cell_length_c       13.0771
_cell_angle_alpha    72.6292
_cell_angle_beta     80.5537
_cell_angle_gamma    79.8214

_space_group_name_H-M_alt    "P 1"
_space_group_IT_number       1

loop_
  _space_group_symop_operation_xyz
  'x, y, z'

loop_
  _atom_site_type_symbol
  _atom_site_label
  _atom_site_symmetry_multiplicity
  _atom_site_fract_x
  _atom_site_fract_y
  _atom_site_fract_z
  _atom_site_occupancy
  Tm  Tm1       1.0  0.46831  0.36501  0.62678  1.0000
  Tm  Tm2       1.0  0.53169  0.63498  0.37323  1.0000
  H   H1        1.0  0.83674  0.04384  0.50244  1.0000
  H   H2        1.0  0.16324  0.95615  0.49757  1.0000
  H   H3        1.0  0.74855  0.05066  0.63040  1.0000
  H   H4        1.0  0.25143  0.94933  0.36961  1.0000
  H   H5        1.0  0.73338  0.16990  0.51752  1.0000
  H   H6        1.0  0.26661  0.83009  0.48249  1.0000
  H   H7        1.0  0.31074  0.24614  0.36096  1.0000
  H   H8        1.0  0.68926  0.75385  0.63902  1.0000
  H   H9        1.0  0.19004  0.14806  0.40713  1.0000
  H   H10       1.0  0.80997  0.85194  0.59286  1.0000
  H   H11       1.0  0.30877  0.14557  0.29117  1.0000
  H   H12       1.0  0.69123  0.85442  0.70882  1.0000
  H   H13       1.0  0.70368  0.56155  0.66575  1.0000
  H   H14       1.0  0.29633  0.43845  0.33424  1.0000
  H   H15       1.0  0.83565  0.60496  0.71493  1.0000
  H   H16       1.0  0.16435  0.39504  0.28507  1.0000
  H   H17       1.0  0.81132  0.46151  0.75367  1.0000
  H   H18       1.0  0.18869  0.53849  0.24633  1.0000
  H   H19       1.0  0.81603  0.34967  0.39760  1.0000
  H   H20       1.0  0.18397  0.65034  0.60239  1.0000
  H   H21       1.0  0.99153  0.30303  0.36086  1.0000
  H   H22       1.0  0.00848  0.69697  0.63913  1.0000
  H   H23       1.0  0.90884  0.43198  0.28362  1.0000
  H   H24       1.0  0.09117  0.56802  0.71637  1.0000
  H   H25       1.0  0.73760  0.11308  0.78435  1.0000
  H   H26       1.0  0.26238  0.88692  0.21568  1.0000
  H   H27       1.0  0.78390  0.96487  0.81212  1.0000
  H   H28       1.0  0.21609  0.03514  0.18789  1.0000
  H   H29       1.0  0.83603  0.03743  0.89223  1.0000
  H   H30       1.0  0.16397  0.96258  0.10778  1.0000
  H   H31       1.0  0.25516  0.22281  0.88630  1.0000
  H   H32       1.0  0.74484  0.77720  0.11372  1.0000
  H   H33       1.0  0.20885  0.19444  0.02748  1.0000
  H   H34       1.0  0.79116  0.80558  0.97254  1.0000
  H   H35       1.0  0.16185  0.10856  0.95780  1.0000
  H   H36       1.0  0.83816  0.89146  0.04222  1.0000
  H   H37       1.0  0.25383  0.21841  0.57821  1.0000
  H   H38       1.0  0.74618  0.78158  0.42178  1.0000
  H   H39       1.0  0.98628  0.18590  0.84640  1.0000
  H   H40       1.0  0.01374  0.81409  0.15359  1.0000
  H   H41       1.0  0.88504  0.28511  0.74936  1.0000
  H   H42       1.0  0.11497  0.71488  0.25063  1.0000
  H   H43       1.0  0.03378  0.32422  0.78530  1.0000
  H   H44       1.0  0.96624  0.67577  0.21469  1.0000
  H   H45       1.0  0.09759  0.12010  0.57749  1.0000
  H   H46       1.0  0.90242  0.87989  0.42251  1.0000
  H   H47       1.0  0.92394  0.17835  0.61460  1.0000
  H   H48       1.0  0.07607  0.82163  0.38539  1.0000
  H   H49       1.0  0.00982  0.06133  0.70762  1.0000
  H   H50       1.0  0.99020  0.93866  0.29238  1.0000
  H   H51       1.0  0.42143  0.59261  0.69026  1.0000
  H   H52       1.0  0.57853  0.40739  0.30974  1.0000
  H   H53       1.0  0.44216  0.47352  0.78636  1.0000
  H   H54       1.0  0.55783  0.52648  0.21363  1.0000
  C   C1        1.0  0.52998  0.23727  0.42531  1.0000
  C   C2        1.0  0.46999  0.76274  0.57470  1.0000
  C   C3        1.0  0.51595  0.11337  0.46163  1.0000
  C   C4        1.0  0.48404  0.88664  0.53837  1.0000
  C   C5        1.0  0.61654  0.03786  0.52059  1.0000
  C   C6        1.0  0.38344  0.96213  0.47941  1.0000
  C   C7        1.0  0.73979  0.07786  0.54362  1.0000
  C   C8        1.0  0.26019  0.92214  0.45638  1.0000
  C   C9        1.0  0.40011  0.07695  0.44012  1.0000
  C   C10       1.0  0.59988  0.92305  0.55987  1.0000
  C   C11       1.0  0.29720  0.15858  0.37202  1.0000
  C   C12       1.0  0.70280  0.84142  0.62796  1.0000
  C   C13       1.0  0.73502  0.42239  0.55181  1.0000
  C   C14       1.0  0.26499  0.57762  0.44819  1.0000
  C   C15       1.0  0.87388  0.46154  0.52451  1.0000
  C   C16       1.0  0.12612  0.53847  0.47548  1.0000
  C   C17       1.0  0.90958  0.52023  0.59030  1.0000
  C   C18       1.0  0.09043  0.47977  0.40970  1.0000
  C   C19       1.0  0.81030  0.53860  0.68577  1.0000
  C   C20       1.0  0.18971  0.46139  0.31423  1.0000
  C   C21       1.0  0.96123  0.44029  0.43472  1.0000
  C   C22       1.0  0.03878  0.55971  0.56527  1.0000
  C   C23       1.0  0.91702  0.37791  0.36639  1.0000
  C   C24       1.0  0.08298  0.62209  0.63360  1.0000
  C   C25       1.0  0.49422  0.18872  0.80775  1.0000
  C   C26       1.0  0.50578  0.81129  0.19227  1.0000
  C   C27       1.0  0.49783  0.09149  0.90804  1.0000
  C   C28       1.0  0.50217  0.90852  0.09197  1.0000
  C   C29       1.0  0.62044  0.01639  0.92602  1.0000
  C   C30       1.0  0.37956  0.98361  0.07400  1.0000
  C   C31       1.0  0.75048  0.03475  0.84935  1.0000
  C   C32       1.0  0.24950  0.96527  0.15066  1.0000
  C   C33       1.0  0.37718  0.07630  0.98120  1.0000
  C   C34       1.0  0.62281  0.92370  0.01883  1.0000
  C   C35       1.0  0.24471  0.15498  0.96130  1.0000
  C   C36       1.0  0.75529  0.84504  0.03872  1.0000
  C   C37       1.0  0.19746  0.25408  0.64307  1.0000
  C   C38       1.0  0.80255  0.74592  0.35692  1.0000
  C   C39       1.0  0.98994  0.25596  0.77202  1.0000
  C   C40       1.0  0.01007  0.74403  0.22797  1.0000
  C   C41       1.0  0.02394  0.13988  0.64361  1.0000
  C   C42       1.0  0.97608  0.86012  0.35637  1.0000
  N   N1        1.0  0.07662  0.21790  0.68505  1.0000
  N   N2        1.0  0.92340  0.78209  0.31493  1.0000
  O   O1        1.0  0.47158  0.29519  0.49066  1.0000
  O   O2        1.0  0.52844  0.70481  0.50936  1.0000
  O   O3        1.0  0.43696  0.50544  0.70937  1.0000
  O   O4        1.0  0.56304  0.49456  0.29062  1.0000
  O   O5        1.0  0.59569  0.27881  0.33513  1.0000
  O   O6        1.0  0.40426  0.72120  0.66485  1.0000
  O   O7        1.0  0.71260  0.33594  0.62976  1.0000
  O   O8        1.0  0.28741  0.66408  0.37023  1.0000
  O   O9        1.0  0.63553  0.47803  0.49782  1.0000
  O   O10       1.0  0.36448  0.52197  0.50217  1.0000
  O   O11       1.0  0.50672  0.17023  0.71559  1.0000
  O   O12       1.0  0.49328  0.82976  0.28443  1.0000
  O   O13       1.0  0.47593  0.29032  0.81463  1.0000
  O   O14       1.0  0.52407  0.70968  0.18538  1.0000
  O   O15       1.0  0.24745  0.32347  0.67365  1.0000
  O   O16       1.0  0.75256  0.67653  0.32634  1.0000
