data_image0
_chemical_formula_structural       Cd4H28C32N8O24
_chemical_formula_sum              "Cd4 H28 C32 N8 O24"
_cell_length_a       6.88823
_cell_length_b       9.74316
_cell_length_c       15.1455
_cell_angle_alpha    90
_cell_angle_beta     90
_cell_angle_gamma    106.253

_space_group_name_H-M_alt    "P 1"
_space_group_IT_number       1

loop_
  _space_group_symop_operation_xyz
  'x, y, z'

loop_
  _atom_site_type_symbol
  _atom_site_label
  _atom_site_symmetry_multiplicity
  _atom_site_fract_x
  _atom_site_fract_y
  _atom_site_fract_z
  _atom_site_occupancy
  Cd  Cd1       1.0  0.64170  0.09405  0.25000  1.0000
  Cd  Cd2       1.0  0.35830  0.90595  0.75000  1.0000
  Cd  Cd3       1.0  0.50000  0.50000  0.50000  1.0000
  Cd  Cd4       1.0  0.50000  0.50000  0.00000  1.0000
  H   H1        1.0  0.15624  0.92259  0.51127  1.0000
  H   H2        1.0  0.84376  0.07741  0.01127  1.0000
  H   H3        1.0  0.84377  0.07741  0.48873  1.0000
  H   H4        1.0  0.15624  0.92259  0.98873  1.0000
  H   H5        1.0  0.07679  0.11459  0.30094  1.0000
  H   H6        1.0  0.92321  0.88541  0.80094  1.0000
  H   H7        1.0  0.92321  0.88541  0.69906  1.0000
  H   H8        1.0  0.07679  0.11459  0.19906  1.0000
  H   H9        1.0  0.74576  0.38021  0.30409  1.0000
  H   H10       1.0  0.25424  0.61979  0.80409  1.0000
  H   H11       1.0  0.25424  0.61979  0.69591  1.0000
  H   H12       1.0  0.74576  0.38021  0.19591  1.0000
  H   H13       1.0  0.88729  0.67828  0.58595  1.0000
  H   H14       1.0  0.11271  0.32172  0.08595  1.0000
  H   H15       1.0  0.11271  0.32172  0.41405  1.0000
  H   H16       1.0  0.88729  0.67828  0.91405  1.0000
  H   H17       1.0  0.69599  0.71593  0.62055  1.0000
  H   H18       1.0  0.30401  0.28407  0.12055  1.0000
  H   H19       1.0  0.30401  0.28407  0.37945  1.0000
  H   H20       1.0  0.69599  0.71593  0.87945  1.0000
  H   H21       1.0  0.90267  0.69026  0.41318  1.0000
  H   H22       1.0  0.09733  0.30974  0.91319  1.0000
  H   H23       1.0  0.09733  0.30974  0.58681  1.0000
  H   H24       1.0  0.90267  0.69026  0.08681  1.0000
  H   H25       1.0  0.15208  0.59594  0.33192  1.0000
  H   H26       1.0  0.84791  0.40405  0.83192  1.0000
  H   H27       1.0  0.84792  0.40405  0.66807  1.0000
  H   H28       1.0  0.15208  0.59594  0.16807  1.0000
  C   C1        1.0  0.31616  0.01800  0.41045  1.0000
  C   C2        1.0  0.68383  0.98199  0.91045  1.0000
  C   C3        1.0  0.68383  0.98199  0.58955  1.0000
  C   C4        1.0  0.31616  0.01800  0.08955  1.0000
  C   C5        1.0  0.41336  0.90288  0.40744  1.0000
  C   C6        1.0  0.58664  0.09712  0.90744  1.0000
  C   C7        1.0  0.58664  0.09712  0.59256  1.0000
  C   C8        1.0  0.41336  0.90288  0.09256  1.0000
  C   C9        1.0  0.38816  0.77732  0.45705  1.0000
  C   C10       1.0  0.61184  0.22268  0.95704  1.0000
  C   C11       1.0  0.61184  0.22268  0.54296  1.0000
  C   C12       1.0  0.38816  0.77732  0.04295  1.0000
  C   C13       1.0  0.25775  0.72183  0.53373  1.0000
  C   C14       1.0  0.74225  0.27817  0.03373  1.0000
  C   C15       1.0  0.74225  0.27817  0.46627  1.0000
  C   C16       1.0  0.25775  0.72183  0.96627  1.0000
  C   C17       1.0  0.61022  0.78409  0.35285  1.0000
  C   C18       1.0  0.38978  0.21591  0.85285  1.0000
  C   C19       1.0  0.38978  0.21591  0.64715  1.0000
  C   C20       1.0  0.61022  0.78409  0.14715  1.0000
  C   C21       1.0  0.75902  0.74161  0.29703  1.0000
  C   C22       1.0  0.24098  0.25839  0.79703  1.0000
  C   C23       1.0  0.24098  0.25839  0.70297  1.0000
  C   C24       1.0  0.75902  0.74161  0.20297  1.0000
  C   C25       1.0  0.90382  0.69035  0.34129  1.0000
  C   C26       1.0  0.09618  0.30965  0.84129  1.0000
  C   C27       1.0  0.09618  0.30965  0.65871  1.0000
  C   C28       1.0  0.90382  0.69035  0.15871  1.0000
  C   C29       1.0  0.04500  0.63887  0.29601  1.0000
  C   C30       1.0  0.95499  0.36113  0.79601  1.0000
  C   C31       1.0  0.95499  0.36113  0.70399  1.0000
  C   C32       1.0  0.04500  0.63887  0.20399  1.0000
  N   N1        1.0  0.55472  0.90574  0.34407  1.0000
  N   N2        1.0  0.44528  0.09426  0.84407  1.0000
  N   N3        1.0  0.44528  0.09426  0.65593  1.0000
  N   N4        1.0  0.55472  0.90574  0.15593  1.0000
  N   N5        1.0  0.51361  0.70466  0.42224  1.0000
  N   N6        1.0  0.48639  0.29534  0.92224  1.0000
  N   N7        1.0  0.48639  0.29534  0.57776  1.0000
  N   N8        1.0  0.51361  0.70466  0.07776  1.0000
  O   O1        1.0  0.18076  0.01562  0.47104  1.0000
  O   O2        1.0  0.81924  0.98438  0.97104  1.0000
  O   O3        1.0  0.81924  0.98438  0.52896  1.0000
  O   O4        1.0  0.18076  0.01562  0.02896  1.0000
  O   O5        1.0  0.35969  0.11753  0.35419  1.0000
  O   O6        1.0  0.64031  0.88247  0.85419  1.0000
  O   O7        1.0  0.64031  0.88247  0.64581  1.0000
  O   O8        1.0  0.35969  0.11753  0.14581  1.0000
  O   O9        1.0  0.26781  0.60690  0.57066  1.0000
  O   O10       1.0  0.73220  0.39310  0.07066  1.0000
  O   O11       1.0  0.73220  0.39310  0.42934  1.0000
  O   O12       1.0  0.26781  0.60690  0.92934  1.0000
  O   O13       1.0  0.13836  0.79381  0.56119  1.0000
  O   O14       1.0  0.86164  0.20619  0.06119  1.0000
  O   O15       1.0  0.86165  0.20619  0.43882  1.0000
  O   O16       1.0  0.13836  0.79381  0.93881  1.0000
  O   O17       1.0  0.98601  0.09606  0.25000  1.0000
  O   O18       1.0  0.01399  0.90394  0.75000  1.0000
  O   O19       1.0  0.68643  0.32879  0.25000  1.0000
  O   O20       1.0  0.31357  0.67121  0.75000  1.0000
  O   O21       1.0  0.74451  0.63359  0.60252  1.0000
  O   O22       1.0  0.25549  0.36641  0.10253  1.0000
  O   O23       1.0  0.25549  0.36641  0.39748  1.0000
  O   O24       1.0  0.74451  0.63359  0.89748  1.0000
