data_image0
_chemical_formula_structural       Zn2H36C56N8O8
_chemical_formula_sum              "Zn2 H36 C56 N8 O8"
_cell_length_a       9.23593
_cell_length_b       11.934
_cell_length_c       13.7569
_cell_angle_alpha    69.3941
_cell_angle_beta     73.8438
_cell_angle_gamma    76.3559

_space_group_name_H-M_alt    "P 1"
_space_group_IT_number       1

loop_
  _space_group_symop_operation_xyz
  'x, y, z'

loop_
  _atom_site_type_symbol
  _atom_site_label
  _atom_site_symmetry_multiplicity
  _atom_site_fract_x
  _atom_site_fract_y
  _atom_site_fract_z
  _atom_site_occupancy
  Zn  Zn1       1.0  0.44953  0.83004  0.19601  1.0000
  Zn  Zn2       1.0  0.55047  0.16996  0.80399  1.0000
  H   H1        1.0  0.90317  0.96310  0.86393  1.0000
  H   H2        1.0  0.09683  0.03690  0.13605  1.0000
  H   H3        1.0  0.85492  0.94947  0.18741  1.0000
  H   H4        1.0  0.14509  0.05052  0.81258  1.0000
  H   H5        1.0  0.50997  0.84492  0.94641  1.0000
  H   H6        1.0  0.49002  0.15509  0.05358  1.0000
  H   H7        1.0  0.14142  0.72360  0.29214  1.0000
  H   H8        1.0  0.85861  0.27639  0.70787  1.0000
  H   H9        1.0  0.92676  0.61794  0.30798  1.0000
  H   H10       1.0  0.07325  0.38206  0.69203  1.0000
  H   H11       1.0  0.88380  0.58791  0.14994  1.0000
  H   H12       1.0  0.11618  0.41211  0.85008  1.0000
  H   H13       1.0  0.05683  0.65342  0.97283  1.0000
  H   H14       1.0  0.94315  0.34658  0.02718  1.0000
  H   H15       1.0  0.51950  0.43209  0.82027  1.0000
  H   H16       1.0  0.48050  0.56790  0.17973  1.0000
  H   H17       1.0  0.38827  0.23630  0.59771  1.0000
  H   H18       1.0  0.61173  0.76369  0.40229  1.0000
  H   H19       1.0  0.23755  0.36286  0.45754  1.0000
  H   H20       1.0  0.76246  0.63713  0.54246  1.0000
  H   H21       1.0  0.15156  0.58096  0.43235  1.0000
  H   H22       1.0  0.84846  0.41904  0.56764  1.0000
  H   H23       1.0  0.21426  0.68554  0.54018  1.0000
  H   H24       1.0  0.78576  0.31446  0.45981  1.0000
  H   H25       1.0  0.43743  0.75950  0.55440  1.0000
  H   H26       1.0  0.56258  0.24048  0.44560  1.0000
  H   H27       1.0  0.45363  0.94296  0.59426  1.0000
  H   H28       1.0  0.54636  0.05703  0.40573  1.0000
  H   H29       1.0  0.39785  0.94625  0.78010  1.0000
  H   H30       1.0  0.60214  0.05375  0.21989  1.0000
  H   H31       1.0  0.31648  0.57547  0.89163  1.0000
  H   H32       1.0  0.68351  0.42452  0.10838  1.0000
  H   H33       1.0  0.99173  0.90269  0.36917  1.0000
  H   H34       1.0  0.00826  0.09731  0.63083  1.0000
  H   H35       1.0  0.24946  0.03252  0.51176  1.0000
  H   H36       1.0  0.75053  0.96748  0.48824  1.0000
  C   C1        1.0  0.72138  0.89800  0.05779  1.0000
  C   C2        1.0  0.27862  0.10202  0.94220  1.0000
  C   C3        1.0  0.86495  0.95105  0.02866  1.0000
  C   C4        1.0  0.13504  0.04895  0.97132  1.0000
  C   C5        1.0  0.94746  0.97844  0.92309  1.0000
  C   C6        1.0  0.05254  0.02156  0.07690  1.0000
  C   C7        1.0  0.91855  0.97277  0.10527  1.0000
  C   C8        1.0  0.08146  0.02723  0.89472  1.0000
  C   C9        1.0  0.40709  0.80691  0.99272  1.0000
  C   C10       1.0  0.59291  0.19310  0.00728  1.0000
  C   C11       1.0  0.20290  0.71555  0.03707  1.0000
  C   C12       1.0  0.79710  0.28445  0.96294  1.0000
  C   C13       1.0  0.22559  0.73641  0.12642  1.0000
  C   C14       1.0  0.77442  0.26359  0.87358  1.0000
  C   C15       1.0  0.12614  0.70225  0.22524  1.0000
  C   C16       1.0  0.87387  0.29775  0.77477  1.0000
  C   C17       1.0  0.00621  0.64594  0.23211  1.0000
  C   C18       1.0  0.99380  0.35407  0.76789  1.0000
  C   C19       1.0  0.98260  0.62788  0.14221  1.0000
  C   C20       1.0  0.01739  0.37213  0.85780  1.0000
  C   C21       1.0  0.07945  0.66322  0.04273  1.0000
  C   C22       1.0  0.92054  0.33679  0.95728  1.0000
  C   C23       1.0  0.35141  0.76174  0.84626  1.0000
  C   C24       1.0  0.64857  0.23826  0.15374  1.0000
  C   C25       1.0  0.46454  0.43699  0.75844  1.0000
  C   C26       1.0  0.53546  0.56300  0.24156  1.0000
  C   C27       1.0  0.38592  0.39168  0.64411  1.0000
  C   C28       1.0  0.61409  0.60832  0.35589  1.0000
  C   C29       1.0  0.35045  0.33333  0.58359  1.0000
  C   C30       1.0  0.64955  0.66666  0.41641  1.0000
  C   C31       1.0  0.26711  0.40458  0.50692  1.0000
  C   C32       1.0  0.73289  0.59541  0.49308  1.0000
  C   C33       1.0  0.21849  0.52959  0.49212  1.0000
  C   C34       1.0  0.78152  0.47041  0.50787  1.0000
  C   C35       1.0  0.25264  0.58898  0.55208  1.0000
  C   C36       1.0  0.74737  0.41102  0.44791  1.0000
  C   C37       1.0  0.33823  0.51775  0.62781  1.0000
  C   C38       1.0  0.66178  0.48224  0.37219  1.0000
  C   C39       1.0  0.37897  0.65571  0.72097  1.0000
  C   C40       1.0  0.62103  0.34428  0.27903  1.0000
  C   C41       1.0  0.41351  0.75930  0.63645  1.0000
  C   C42       1.0  0.58649  0.24069  0.36355  1.0000
  C   C43       1.0  0.42104  0.86274  0.65878  1.0000
  C   C44       1.0  0.57897  0.13725  0.34122  1.0000
  C   C45       1.0  0.39157  0.86501  0.76315  1.0000
  C   C46       1.0  0.60843  0.13498  0.23685  1.0000
  C   C47       1.0  0.34487  0.65638  0.82627  1.0000
  C   C48       1.0  0.65513  0.34361  0.17373  1.0000
  C   C49       1.0  0.28265  0.92124  0.36552  1.0000
  C   C50       1.0  0.71733  0.07878  0.63449  1.0000
  C   C51       1.0  0.13577  0.96300  0.43377  1.0000
  C   C52       1.0  0.86422  0.03701  0.56623  1.0000
  C   C53       1.0  0.99455  0.94497  0.42697  1.0000
  C   C54       1.0  0.00544  0.05503  0.57303  1.0000
  C   C55       1.0  0.13946  0.01868  0.50725  1.0000
  C   C56       1.0  0.86053  0.98133  0.49276  1.0000
  N   N1        1.0  0.35427  0.79299  0.09570  1.0000
  N   N2        1.0  0.64574  0.20701  0.90430  1.0000
  N   N3        1.0  0.32081  0.76195  0.95332  1.0000
  N   N4        1.0  0.67918  0.23805  0.04669  1.0000
  N   N5        1.0  0.46450  0.34482  0.72635  1.0000
  N   N6        1.0  0.53551  0.65517  0.27365  1.0000
  N   N7        1.0  0.39005  0.54334  0.70281  1.0000
  N   N8        1.0  0.60996  0.45666  0.29719  1.0000
  O   O1        1.0  0.62425  0.91598  0.14265  1.0000
  O   O2        1.0  0.37575  0.08402  0.85735  1.0000
  O   O3        1.0  0.70083  0.84189  0.00269  1.0000
  O   O4        1.0  0.29914  0.15812  0.99729  1.0000
  O   O5        1.0  0.26645  0.89137  0.28721  1.0000
  O   O6        1.0  0.73355  0.10863  0.71279  1.0000
  O   O7        1.0  0.40778  0.91543  0.38699  1.0000
  O   O8        1.0  0.59221  0.08459  0.61301  1.0000
