data_image0
_chemical_formula_structural       Zn2H44C68N8O10
_chemical_formula_sum              "Zn2 H44 C68 N8 O10"
_cell_length_a       10.2902
_cell_length_b       12.4694
_cell_length_c       13.8475
_cell_angle_alpha    101.577
_cell_angle_beta     106.952
_cell_angle_gamma    103.33

_space_group_name_H-M_alt    "P 1"
_space_group_IT_number       1

loop_
  _space_group_symop_operation_xyz
  'x, y, z'

loop_
  _atom_site_type_symbol
  _atom_site_label
  _atom_site_symmetry_multiplicity
  _atom_site_fract_x
  _atom_site_fract_y
  _atom_site_fract_z
  _atom_site_occupancy
  Zn  Zn1       1.0  0.24539  0.56879  0.50326  1.0000
  Zn  Zn2       1.0  0.75460  0.43121  0.49673  1.0000
  H   H1        1.0  0.80616  0.72542  0.53634  1.0000
  H   H2        1.0  0.19384  0.27458  0.46366  1.0000
  H   H3        1.0  0.99009  0.67558  0.48927  1.0000
  H   H4        1.0  0.00991  0.32442  0.51073  1.0000
  H   H5        1.0  0.58596  0.68767  0.57513  1.0000
  H   H6        1.0  0.41404  0.31233  0.42487  1.0000
  H   H7        1.0  0.84209  0.52093  0.26289  1.0000
  H   H8        1.0  0.15791  0.47908  0.73710  1.0000
  H   H9        1.0  0.59398  0.91180  0.89783  1.0000
  H   H10       1.0  0.40602  0.08820  0.10217  1.0000
  H   H11       1.0  0.12848  0.65395  0.29862  1.0000
  H   H12       1.0  0.87153  0.34604  0.70138  1.0000
  H   H13       1.0  0.48243  0.73994  0.73781  1.0000
  H   H14       1.0  0.51756  0.26006  0.26219  1.0000
  H   H15       1.0  0.12602  0.78658  0.18392  1.0000
  H   H16       1.0  0.87398  0.21342  0.81608  1.0000
  H   H17       1.0  0.72697  0.42382  0.91590  1.0000
  H   H18       1.0  0.27303  0.57618  0.08410  1.0000
  H   H19       1.0  0.21721  0.30844  0.68332  1.0000
  H   H20       1.0  0.78279  0.69156  0.31668  1.0000
  H   H21       1.0  0.65071  0.52136  0.77726  1.0000
  H   H22       1.0  0.34929  0.47864  0.22274  1.0000
  H   H23       1.0  0.13332  0.05580  0.65692  1.0000
  H   H24       1.0  0.86668  0.94421  0.34307  1.0000
  H   H25       1.0  0.29138  0.21336  0.82465  1.0000
  H   H26       1.0  0.70862  0.78664  0.17535  1.0000
  H   H27       1.0  0.94637  0.15227  0.61673  1.0000
  H   H28       1.0  0.05363  0.84773  0.38326  1.0000
  H   H29       1.0  0.69044  0.03715  0.53329  1.0000
  H   H30       1.0  0.30956  0.96285  0.46671  1.0000
  H   H31       1.0  0.97773  0.23726  0.14711  1.0000
  H   H32       1.0  0.02227  0.76274  0.85289  1.0000
  H   H33       1.0  0.22078  0.02444  0.81249  1.0000
  H   H34       1.0  0.77922  0.97556  0.18751  1.0000
  H   H35       1.0  0.34756  0.93718  0.20915  1.0000
  H   H36       1.0  0.65243  0.06282  0.79085  1.0000
  H   H37       1.0  0.57735  0.96039  0.34530  1.0000
  H   H38       1.0  0.42264  0.03960  0.65470  1.0000
  H   H39       1.0  0.61915  0.44928  0.10257  1.0000
  H   H40       1.0  0.38085  0.55072  0.89743  1.0000
  H   H41       1.0  0.75140  0.16191  0.98611  1.0000
  H   H42       1.0  0.24860  0.83809  0.01389  1.0000
  H   H43       1.0  0.46466  0.05133  0.93273  1.0000
  H   H44       1.0  0.53534  0.94867  0.06727  1.0000
  C   C1        1.0  0.73434  0.87480  0.52754  1.0000
  C   C2        1.0  0.26566  0.12520  0.47246  1.0000
  C   C3        1.0  0.83710  0.81895  0.55361  1.0000
  C   C4        1.0  0.16290  0.18106  0.44639  1.0000
  C   C5        1.0  0.38782  0.48645  0.64569  1.0000
  C   C6        1.0  0.61218  0.51355  0.35431  1.0000
  C   C7        1.0  0.92402  0.38434  0.21327  1.0000
  C   C8        1.0  0.07598  0.61567  0.78673  1.0000
  C   C9        1.0  0.08243  0.72788  0.55878  1.0000
  C   C10       1.0  0.91757  0.27212  0.44122  1.0000
  C   C11       1.0  0.29135  0.78951  0.68434  1.0000
  C   C12       1.0  0.70865  0.21049  0.31565  1.0000
  C   C13       1.0  0.35438  0.73451  0.38659  1.0000
  C   C14       1.0  0.64562  0.26549  0.61341  1.0000
  C   C15       1.0  0.52715  0.71687  0.51209  1.0000
  C   C16       1.0  0.47285  0.28313  0.48791  1.0000
  C   C17       1.0  0.05593  0.42588  0.31051  1.0000
  C   C18       1.0  0.94407  0.57412  0.68949  1.0000
  C   C19       1.0  0.82332  0.44427  0.20055  1.0000
  C   C20       1.0  0.17668  0.55573  0.79945  1.0000
  C   C21       1.0  0.48020  0.82118  0.40037  1.0000
  C   C22       1.0  0.51980  0.17882  0.59963  1.0000
  C   C23       1.0  0.48799  0.89874  0.84191  1.0000
  C   C24       1.0  0.51201  0.10126  0.15809  1.0000
  C   C25       1.0  0.42950  0.42198  0.72297  1.0000
  C   C26       1.0  0.57050  0.57802  0.27703  1.0000
  C   C27       1.0  0.51259  0.31393  0.87844  1.0000
  C   C28       1.0  0.48741  0.68606  0.12156  1.0000
  C   C29       1.0  0.21900  0.87043  0.70459  1.0000
  C   C30       1.0  0.78100  0.12957  0.29541  1.0000
  C   C31       1.0  0.22454  0.72097  0.30875  1.0000
  C   C32       1.0  0.77547  0.27903  0.69125  1.0000
  C   C33       1.0  0.98039  0.88535  0.60186  1.0000
  C   C34       1.0  0.01961  0.11465  0.39814  1.0000
  C   C35       1.0  0.42812  0.80335  0.75315  1.0000
  C   C36       1.0  0.57188  0.19665  0.24685  1.0000
  C   C37       1.0  0.67525  0.30232  0.03611  1.0000
  C   C38       1.0  0.32475  0.69768  0.96389  1.0000
  C   C39       1.0  0.22510  0.79504  0.24575  1.0000
  C   C40       1.0  0.77490  0.20496  0.75425  1.0000
  C   C41       1.0  0.61525  0.40024  0.86605  1.0000
  C   C42       1.0  0.38475  0.59976  0.13395  1.0000
  C   C43       1.0  0.32852  0.33351  0.73490  1.0000
  C   C44       1.0  0.67149  0.66649  0.26510  1.0000
  C   C45       1.0  0.57299  0.45399  0.78883  1.0000
  C   C46       1.0  0.42702  0.54601  0.21117  1.0000
  C   C47       1.0  0.02086  0.00541  0.62426  1.0000
  C   C48       1.0  0.97914  0.99459  0.37574  1.0000
  C   C49       1.0  0.36899  0.28029  0.81279  1.0000
  C   C50       1.0  0.63101  0.71972  0.18721  1.0000
  C   C51       1.0  0.91609  0.05896  0.59887  1.0000
  C   C52       1.0  0.08391  0.94104  0.40112  1.0000
  C   C53       1.0  0.77224  0.99469  0.55029  1.0000
  C   C54       1.0  0.22776  0.00531  0.44971  1.0000
  C   C55       1.0  0.89856  0.28296  0.13563  1.0000
  C   C56       1.0  0.10144  0.71704  0.86437  1.0000
  C   C57       1.0  0.27840  0.96473  0.79470  1.0000
  C   C58       1.0  0.72160  0.03527  0.20530  1.0000
  C   C59       1.0  0.35064  0.88055  0.25970  1.0000
  C   C60       1.0  0.64936  0.11944  0.74030  1.0000
  C   C61       1.0  0.48073  0.89526  0.33695  1.0000
  C   C62       1.0  0.51927  0.10474  0.66305  1.0000
  C   C63       1.0  0.69893  0.40409  0.11204  1.0000
  C   C64       1.0  0.30107  0.59591  0.88796  1.0000
  C   C65       1.0  0.77400  0.24135  0.04679  1.0000
  C   C66       1.0  0.22599  0.75865  0.95321  1.0000
  C   C67       1.0  0.41440  0.97767  0.86268  1.0000
  C   C68       1.0  0.58560  0.02233  0.13731  1.0000
  N   N1        1.0  0.20230  0.70204  0.59268  1.0000
  N   N2        1.0  0.79770  0.29796  0.40732  1.0000
  N   N3        1.0  0.38833  0.67194  0.45820  1.0000
  N   N4        1.0  0.61167  0.32806  0.54180  1.0000
  N   N5        1.0  0.08656  0.82929  0.62253  1.0000
  N   N6        1.0  0.91344  0.17072  0.37746  1.0000
  N   N7        1.0  0.58815  0.80739  0.48118  1.0000
  N   N8        1.0  0.41186  0.19261  0.51882  1.0000
  O   O1        1.0  0.06494  0.51735  0.38045  1.0000
  O   O2        1.0  0.93506  0.48265  0.61955  1.0000
  O   O3        1.0  0.54612  0.25472  0.95117  1.0000
  O   O4        1.0  0.45388  0.74528  0.04883  1.0000
  O   O5        1.0  0.25690  0.44853  0.57869  1.0000
  O   O6        1.0  0.74310  0.55147  0.42131  1.0000
  O   O7        1.0  0.47656  0.57566  0.64767  1.0000
  O   O8        1.0  0.52344  0.42434  0.35233  1.0000
  O   O9        1.0  0.14756  0.37418  0.32104  1.0000
  O   O10       1.0  0.85244  0.62582  0.67896  1.0000
