data_image0
_chemical_formula_structural       Cd2H44C68N8O10
_chemical_formula_sum              "Cd2 H44 C68 N8 O10"
_cell_length_a       10.3256
_cell_length_b       12.5482
_cell_length_c       13.8828
_cell_angle_alpha    101.365
_cell_angle_beta     104.518
_cell_angle_gamma    103.405

_space_group_name_H-M_alt    "P 1"
_space_group_IT_number       1

loop_
  _space_group_symop_operation_xyz
  'x, y, z'

loop_
  _atom_site_type_symbol
  _atom_site_label
  _atom_site_symmetry_multiplicity
  _atom_site_fract_x
  _atom_site_fract_y
  _atom_site_fract_z
  _atom_site_occupancy
  Cd  Cd1       1.0  0.24072  0.05666  0.49474  1.0000
  Cd  Cd2       1.0  0.75927  0.94334  0.50526  1.0000
  H   H1        1.0  0.98918  0.18781  0.49185  1.0000
  H   H2        1.0  0.01082  0.81219  0.50815  1.0000
  H   H3        1.0  0.64520  0.02567  0.77334  1.0000
  H   H4        1.0  0.35480  0.97433  0.22666  1.0000
  H   H5        1.0  0.58403  0.19871  0.56950  1.0000
  H   H6        1.0  0.41596  0.80129  0.43050  1.0000
  H   H7        1.0  0.45326  0.22943  0.73889  1.0000
  H   H8        1.0  0.54674  0.77057  0.26111  1.0000
  H   H9        1.0  0.23260  0.79402  0.69081  1.0000
  H   H10       1.0  0.76740  0.20598  0.30919  1.0000
  H   H11       1.0  0.80492  0.23838  0.53607  1.0000
  H   H12       1.0  0.19508  0.76162  0.46393  1.0000
  H   H13       1.0  0.15117  0.17135  0.29604  1.0000
  H   H14       1.0  0.84883  0.82865  0.70396  1.0000
  H   H15       1.0  0.20461  0.52310  0.81404  1.0000
  H   H16       1.0  0.79540  0.47690  0.18597  1.0000
  H   H17       1.0  0.98743  0.76069  0.16021  1.0000
  H   H18       1.0  0.01257  0.23931  0.83979  1.0000
  H   H19       1.0  0.81851  0.03297  0.24589  1.0000
  H   H20       1.0  0.18148  0.96703  0.75410  1.0000
  H   H21       1.0  0.31821  0.70182  0.82969  1.0000
  H   H22       1.0  0.68179  0.29818  0.17031  1.0000
  H   H23       1.0  0.73208  0.93269  0.91001  1.0000
  H   H24       1.0  0.26792  0.06731  0.08999  1.0000
  H   H25       1.0  0.77934  0.67351  0.99788  1.0000
  H   H26       1.0  0.22066  0.32649  0.00212  1.0000
  H   H27       1.0  0.15569  0.30990  0.18778  1.0000
  H   H28       1.0  0.84431  0.69010  0.81222  1.0000
  H   H29       1.0  0.43906  0.54121  0.93119  1.0000
  H   H30       1.0  0.56094  0.45879  0.06881  1.0000
  H   H31       1.0  0.59236  0.48409  0.35232  1.0000
  H   H32       1.0  0.40765  0.51591  0.64768  1.0000
  H   H33       1.0  0.56082  0.39679  0.89622  1.0000
  H   H34       1.0  0.43918  0.60321  0.10378  1.0000
  H   H35       1.0  0.61216  0.94859  0.08475  1.0000
  H   H36       1.0  0.38783  0.05140  0.91525  1.0000
  H   H37       1.0  0.37378  0.46250  0.21710  1.0000
  H   H38       1.0  0.62622  0.53750  0.78290  1.0000
  H   H39       1.0  0.94990  0.66078  0.61707  1.0000
  H   H40       1.0  0.05009  0.33922  0.38294  1.0000
  H   H41       1.0  0.12901  0.56124  0.66105  1.0000
  H   H42       1.0  0.87100  0.43876  0.33895  1.0000
  H   H43       1.0  0.69990  0.55178  0.53201  1.0000
  H   H44       1.0  0.30010  0.44822  0.46799  1.0000
  C   C1        1.0  0.73806  0.38866  0.52835  1.0000
  C   C2        1.0  0.26194  0.61134  0.47165  1.0000
  C   C3        1.0  0.38236  0.97190  0.64367  1.0000
  C   C4        1.0  0.61764  0.02811  0.35632  1.0000
  C   C5        1.0  0.91529  0.90257  0.21125  1.0000
  C   C6        1.0  0.08471  0.09743  0.78874  1.0000
  C   C7        1.0  0.27220  0.28691  0.68683  1.0000
  C   C8        1.0  0.72780  0.71309  0.31317  1.0000
  C   C9        1.0  0.07534  0.23482  0.56202  1.0000
  C   C10       1.0  0.92466  0.76518  0.43799  1.0000
  C   C11       1.0  0.03401  0.95238  0.30958  1.0000
  C   C12       1.0  0.96599  0.04762  0.69042  1.0000
  C   C13       1.0  0.20344  0.37035  0.70714  1.0000
  C   C14       1.0  0.79657  0.62965  0.29287  1.0000
  C   C15       1.0  0.97694  0.39401  0.60457  1.0000
  C   C16       1.0  0.02306  0.60599  0.39543  1.0000
  C   C17       1.0  0.43363  0.91596  0.72445  1.0000
  C   C18       1.0  0.56638  0.08404  0.27555  1.0000
  C   C19       1.0  0.57396  0.95541  0.78699  1.0000
  C   C20       1.0  0.42604  0.04459  0.21301  1.0000
  C   C21       1.0  0.53092  0.23032  0.50826  1.0000
  C   C22       1.0  0.46908  0.76968  0.49174  1.0000
  C   C23       1.0  0.40204  0.29493  0.75446  1.0000
  C   C24       1.0  0.59797  0.70507  0.24554  1.0000
  C   C25       1.0  0.34157  0.82393  0.73969  1.0000
  C   C26       1.0  0.65844  0.17607  0.26031  1.0000
  C   C27       1.0  0.49343  0.34017  0.40216  1.0000
  C   C28       1.0  0.50658  0.65983  0.59784  1.0000
  C   C29       1.0  0.83665  0.33113  0.55550  1.0000
  C   C30       1.0  0.16336  0.66887  0.44451  1.0000
  C   C31       1.0  0.36949  0.25171  0.38498  1.0000
  C   C32       1.0  0.63051  0.74829  0.61502  1.0000
  C   C33       1.0  0.24590  0.23932  0.30780  1.0000
  C   C34       1.0  0.75410  0.76068  0.69220  1.0000
  C   C35       1.0  0.25985  0.46153  0.79622  1.0000
  C   C36       1.0  0.74015  0.53847  0.20379  1.0000
  C   C37       1.0  0.90502  0.80110  0.14197  1.0000
  C   C38       1.0  0.09498  0.19890  0.85802  1.0000
  C   C39       1.0  0.52878  0.81243  0.87733  1.0000
  C   C40       1.0  0.47122  0.18757  0.12267  1.0000
  C   C41       1.0  0.81003  0.95571  0.18984  1.0000
  C   C42       1.0  0.18997  0.04429  0.81016  1.0000
  C   C43       1.0  0.38813  0.77281  0.81622  1.0000
  C   C44       1.0  0.61187  0.22719  0.18377  1.0000
  C   C45       1.0  0.62237  0.90387  0.86303  1.0000
  C   C46       1.0  0.37763  0.09613  0.13697  1.0000
  C   C47       1.0  0.68705  0.80725  0.03287  1.0000
  C   C48       1.0  0.31295  0.19275  0.96712  1.0000
  C   C49       1.0  0.79073  0.75305  0.05244  1.0000
  C   C50       1.0  0.20927  0.24695  0.94756  1.0000
  C   C51       1.0  0.25011  0.31676  0.24857  1.0000
  C   C52       1.0  0.74989  0.68324  0.75143  1.0000
  C   C53       1.0  0.38976  0.46931  0.86258  1.0000
  C   C54       1.0  0.61024  0.53068  0.13742  1.0000
  C   C55       1.0  0.49746  0.41743  0.34210  1.0000
  C   C56       1.0  0.50254  0.58257  0.65790  1.0000
  C   C57       1.0  0.45961  0.38767  0.84182  1.0000
  C   C58       1.0  0.54039  0.61233  0.15818  1.0000
  C   C59       1.0  0.69543  0.90862  0.10088  1.0000
  C   C60       1.0  0.30458  0.09138  0.89912  1.0000
  C   C61       1.0  0.37351  0.40400  0.26547  1.0000
  C   C62       1.0  0.62649  0.59600  0.73453  1.0000
  C   C63       1.0  0.91847  0.56829  0.59963  1.0000
  C   C64       1.0  0.08153  0.43171  0.40037  1.0000
  C   C65       1.0  0.01875  0.51295  0.62689  1.0000
  C   C66       1.0  0.98125  0.48705  0.37312  1.0000
  C   C67       1.0  0.77785  0.50732  0.55019  1.0000
  C   C68       1.0  0.22216  0.49267  0.44981  1.0000
  N   N1        1.0  0.07819  0.33512  0.62546  1.0000
  N   N2        1.0  0.92181  0.66488  0.37454  1.0000
  N   N3        1.0  0.39754  0.18586  0.45293  1.0000
  N   N4        1.0  0.60246  0.81413  0.54707  1.0000
  N   N5        1.0  0.18879  0.20411  0.59585  1.0000
  N   N6        1.0  0.81121  0.79589  0.40415  1.0000
  N   N7        1.0  0.59494  0.32383  0.48151  1.0000
  N   N8        1.0  0.40506  0.67617  0.51849  1.0000
  O   O1        1.0  0.45960  0.06356  0.63839  1.0000
  O   O2        1.0  0.54040  0.93645  0.36162  1.0000
  O   O3        1.0  0.25620  0.92355  0.58130  1.0000
  O   O4        1.0  0.74381  0.07646  0.41870  1.0000
  O   O5        1.0  0.03719  0.04602  0.36944  1.0000
  O   O6        1.0  0.96281  0.95398  0.63056  1.0000
  O   O7        1.0  0.12685  0.90223  0.33200  1.0000
  O   O8        1.0  0.87315  0.09777  0.66800  1.0000
  O   O9        1.0  0.56950  0.75278  0.94696  1.0000
  O   O10       1.0  0.43049  0.24722  0.05303  1.0000
