data_image0
_chemical_formula_structural       Cd2H36C56N8O8
_chemical_formula_sum              "Cd2 H36 C56 N8 O8"
_cell_length_a       9.61939
_cell_length_b       12.0843
_cell_length_c       12.5414
_cell_angle_alpha    65.4267
_cell_angle_beta     79.3203
_cell_angle_gamma    82.221

_space_group_name_H-M_alt    "P 1"
_space_group_IT_number       1

loop_
  _space_group_symop_operation_xyz
  'x, y, z'

loop_
  _atom_site_type_symbol
  _atom_site_label
  _atom_site_symmetry_multiplicity
  _atom_site_fract_x
  _atom_site_fract_y
  _atom_site_fract_z
  _atom_site_occupancy
  Cd  Cd1       1.0  0.07645  0.12181  0.32070  1.0000
  Cd  Cd2       1.0  0.92356  0.87819  0.67930  1.0000
  H   H1        1.0  0.29026  0.35564  0.00944  1.0000
  H   H2        1.0  0.70975  0.64436  0.99056  1.0000
  H   H3        1.0  0.38690  0.47658  0.09493  1.0000
  H   H4        1.0  0.61309  0.52343  0.90507  1.0000
  H   H5        1.0  0.99752  0.16691  0.57670  1.0000
  H   H6        1.0  0.00248  0.83308  0.42332  1.0000
  H   H7        1.0  0.15163  0.45547  0.62796  1.0000
  H   H8        1.0  0.84838  0.54452  0.37204  1.0000
  H   H9        1.0  0.64117  0.00002  0.31279  1.0000
  H   H10       1.0  0.35884  0.99998  0.68723  1.0000
  H   H11       1.0  0.95257  0.57814  0.70741  1.0000
  H   H12       1.0  0.04743  0.42186  0.29259  1.0000
  H   H13       1.0  0.61148  0.05637  0.63267  1.0000
  H   H14       1.0  0.38853  0.94363  0.36733  1.0000
  H   H15       1.0  0.52213  0.14855  0.08485  1.0000
  H   H16       1.0  0.47785  0.85149  0.91514  1.0000
  H   H17       1.0  0.12520  0.06578  0.77684  1.0000
  H   H18       1.0  0.87480  0.93421  0.22317  1.0000
  H   H19       1.0  0.16150  0.80766  0.88338  1.0000
  H   H20       1.0  0.83849  0.19234  0.11661  1.0000
  H   H21       1.0  0.09131  0.06420  0.98159  1.0000
  H   H22       1.0  0.90868  0.93580  0.01841  1.0000
  H   H23       1.0  0.08508  0.25638  0.00743  1.0000
  H   H24       1.0  0.91492  0.74361  0.99258  1.0000
  H   H25       1.0  0.41957  0.38197  0.57077  1.0000
  H   H26       1.0  0.58045  0.61802  0.42922  1.0000
  H   H27       1.0  0.27391  0.89881  0.05099  1.0000
  H   H28       1.0  0.72607  0.10120  0.94901  1.0000
  H   H29       1.0  0.38589  0.26698  0.23306  1.0000
  H   H30       1.0  0.61409  0.73301  0.76694  1.0000
  H   H31       1.0  0.32518  0.69613  0.03521  1.0000
  H   H32       1.0  0.67481  0.30387  0.96479  1.0000
  H   H33       1.0  0.59354  0.37368  0.23022  1.0000
  H   H34       1.0  0.40644  0.62633  0.76976  1.0000
  H   H35       1.0  0.60968  0.42915  0.39611  1.0000
  H   H36       1.0  0.39033  0.57086  0.60387  1.0000
  C   C1        1.0  0.16864  0.51606  0.89965  1.0000
  C   C2        1.0  0.83136  0.48394  0.10034  1.0000
  C   C3        1.0  0.26160  0.45298  0.98200  1.0000
  C   C4        1.0  0.73840  0.54702  0.01800  1.0000
  C   C5        1.0  0.31492  0.52144  0.02968  1.0000
  C   C6        1.0  0.68507  0.47857  0.97031  1.0000
  C   C7        1.0  0.64072  0.03175  0.46951  1.0000
  C   C8        1.0  0.35929  0.96824  0.53050  1.0000
  C   C9        1.0  0.79312  0.05975  0.43960  1.0000
  C   C10       1.0  0.20689  0.94025  0.56041  1.0000
  C   C11       1.0  0.09672  0.20837  0.53048  1.0000
  C   C12       1.0  0.90328  0.79161  0.46953  1.0000
  C   C13       1.0  0.28322  0.27280  0.39932  1.0000
  C   C14       1.0  0.71678  0.72719  0.60068  1.0000
  C   C15       1.0  0.11349  0.36777  0.81966  1.0000
  C   C16       1.0  0.88650  0.63222  0.18034  1.0000
  C   C17       1.0  0.14281  0.26021  0.69219  1.0000
  C   C18       1.0  0.85720  0.73978  0.30781  1.0000
  C   C19       1.0  0.26395  0.05703  0.15461  1.0000
  C   C20       1.0  0.73603  0.94298  0.84541  1.0000
  C   C21       1.0  0.13715  0.36982  0.70554  1.0000
  C   C22       1.0  0.86285  0.63017  0.29446  1.0000
  C   C23       1.0  0.57830  0.99981  0.39458  1.0000
  C   C24       1.0  0.42171  0.00019  0.60543  1.0000
  C   C25       1.0  0.02056  0.58190  0.76570  1.0000
  C   C26       1.0  0.97944  0.41810  0.23430  1.0000
  C   C27       1.0  0.56144  0.03209  0.57503  1.0000
  C   C28       1.0  0.43858  0.96791  0.42497  1.0000
  C   C29       1.0  0.12941  0.64229  0.86631  1.0000
  C   C30       1.0  0.87059  0.35771  0.13368  1.0000
  C   C31       1.0  0.51358  0.08393  0.04672  1.0000
  C   C32       1.0  0.48642  0.91609  0.95326  1.0000
  C   C33       1.0  0.12337  0.14956  0.79028  1.0000
  C   C34       1.0  0.87663  0.85044  0.20973  1.0000
  C   C35       1.0  0.29366  0.30453  0.49411  1.0000
  C   C36       1.0  0.70634  0.69546  0.50589  1.0000
  C   C37       1.0  0.18701  0.70983  0.91309  1.0000
  C   C38       1.0  0.81298  0.29018  0.08691  1.0000
  C   C39       1.0  0.10345  0.14938  0.90338  1.0000
  C   C40       1.0  0.89655  0.85062  0.09662  1.0000
  C   C41       1.0  0.38588  0.02716  0.07499  1.0000
  C   C42       1.0  0.61411  0.97285  0.92501  1.0000
  C   C43       1.0  0.10041  0.25742  0.91898  1.0000
  C   C44       1.0  0.89958  0.74257  0.08103  1.0000
  C   C45       1.0  0.41011  0.36086  0.49610  1.0000
  C   C46       1.0  0.58989  0.63912  0.50390  1.0000
  C   C47       1.0  0.37350  0.94269  0.02785  1.0000
  C   C48       1.0  0.62649  0.05733  0.97213  1.0000
  C   C49       1.0  0.39164  0.29665  0.30303  1.0000
  C   C50       1.0  0.60835  0.70334  0.69696  1.0000
  C   C51       1.0  0.27917  0.64724  0.99562  1.0000
  C   C52       1.0  0.72082  0.35276  0.00437  1.0000
  C   C53       1.0  0.50711  0.35431  0.30376  1.0000
  C   C54       1.0  0.49287  0.64569  0.69622  1.0000
  C   C55       1.0  0.51614  0.38589  0.39837  1.0000
  C   C56       1.0  0.48386  0.61411  0.60162  1.0000
  N   N1        1.0  0.09902  0.48080  0.83150  1.0000
  N   N2        1.0  0.90098  0.51920  0.16849  1.0000
  N   N3        1.0  0.15834  0.21427  0.42482  1.0000
  N   N4        1.0  0.84166  0.78573  0.57519  1.0000
  N   N5        1.0  0.17288  0.26153  0.57636  1.0000
  N   N6        1.0  0.82713  0.73845  0.42365  1.0000
  N   N7        1.0  0.03502  0.67920  0.78417  1.0000
  N   N8        1.0  0.96498  0.32080  0.21583  1.0000
  O   O1        1.0  0.85718  0.06571  0.33826  1.0000
  O   O2        1.0  0.14283  0.93429  0.66175  1.0000
  O   O3        1.0  0.85437  0.07339  0.51475  1.0000
  O   O4        1.0  0.14564  0.92660  0.48525  1.0000
  O   O5        1.0  0.15297  0.99896  0.18780  1.0000
  O   O6        1.0  0.84702  0.00103  0.81220  1.0000
  O   O7        1.0  0.27892  0.14304  0.18634  1.0000
  O   O8        1.0  0.72109  0.85698  0.81366  1.0000
