data_image0
_chemical_formula_structural       K2H48C24N6O12
_chemical_formula_sum              "K2 H48 C24 N6 O12"
_cell_length_a       7.43191
_cell_length_b       7.83611
_cell_length_c       13.9301
_cell_angle_alpha    89.9999
_cell_angle_beta     90
_cell_angle_gamma    95.6907

_space_group_name_H-M_alt    "P 1"
_space_group_IT_number       1

loop_
  _space_group_symop_operation_xyz
  'x, y, z'

loop_
  _atom_site_type_symbol
  _atom_site_label
  _atom_site_symmetry_multiplicity
  _atom_site_fract_x
  _atom_site_fract_y
  _atom_site_fract_z
  _atom_site_occupancy
  K   K1        1.0  0.49998  0.50002  0.50001  1.0000
  K   K2        1.0  0.00002  0.49998  0.00000  1.0000
  H   H1        1.0  0.51018  0.81090  0.21710  1.0000
  H   H2        1.0  0.98980  0.18910  0.71710  1.0000
  H   H3        1.0  0.48980  0.18910  0.78290  1.0000
  H   H4        1.0  0.01018  0.81090  0.28289  1.0000
  H   H5        1.0  0.34034  0.75818  0.30676  1.0000
  H   H6        1.0  0.15965  0.24181  0.80676  1.0000
  H   H7        1.0  0.65965  0.24181  0.69325  1.0000
  H   H8        1.0  0.84035  0.75818  0.19323  1.0000
  H   H9        1.0  0.34947  0.53545  0.17903  1.0000
  H   H10       1.0  0.15052  0.46454  0.67903  1.0000
  H   H11       1.0  0.65052  0.46455  0.82097  1.0000
  H   H12       1.0  0.84947  0.53545  0.32097  1.0000
  H   H13       1.0  0.57562  0.50388  0.21213  1.0000
  H   H14       1.0  0.92437  0.49612  0.71212  1.0000
  H   H15       1.0  0.42438  0.49613  0.78787  1.0000
  H   H16       1.0  0.07562  0.50388  0.28787  1.0000
  H   H17       1.0  0.43702  0.19089  0.27088  1.0000
  H   H18       1.0  0.06296  0.80911  0.77088  1.0000
  H   H19       1.0  0.56298  0.80911  0.72911  1.0000
  H   H20       1.0  0.93702  0.19088  0.22912  1.0000
  H   H21       1.0  0.23550  0.26244  0.22257  1.0000
  H   H22       1.0  0.26449  0.73756  0.72257  1.0000
  H   H23       1.0  0.76451  0.73756  0.77743  1.0000
  H   H24       1.0  0.73549  0.26244  0.27743  1.0000
  H   H25       1.0  0.09478  0.24678  0.38742  1.0000
  H   H26       1.0  0.40522  0.75321  0.88741  1.0000
  H   H27       1.0  0.90523  0.75322  0.61259  1.0000
  H   H28       1.0  0.59478  0.24678  0.11258  1.0000
  H   H29       1.0  0.15832  0.04439  0.34656  1.0000
  H   H30       1.0  0.34168  0.95560  0.84656  1.0000
  H   H31       1.0  0.84168  0.95560  0.65344  1.0000
  H   H32       1.0  0.65831  0.04440  0.15344  1.0000
  H   H33       1.0  0.18380  0.95218  0.51463  1.0000
  H   H34       1.0  0.31620  0.04781  0.01462  1.0000
  H   H35       1.0  0.81620  0.04781  0.48537  1.0000
  H   H36       1.0  0.68381  0.95218  0.98537  1.0000
  H   H37       1.0  0.11120  0.15661  0.54774  1.0000
  H   H38       1.0  0.38880  0.84339  0.04774  1.0000
  H   H39       1.0  0.88880  0.84339  0.45226  1.0000
  H   H40       1.0  0.61120  0.15661  0.95226  1.0000
  H   H41       1.0  0.51801  0.96402  0.40411  1.0000
  H   H42       1.0  0.98199  0.03598  0.90410  1.0000
  H   H43       1.0  0.48199  0.03598  0.59590  1.0000
  H   H44       1.0  0.01800  0.96402  0.09589  1.0000
  H   H45       1.0  0.70951  0.98890  0.32619  1.0000
  H   H46       1.0  0.79048  0.01110  0.82619  1.0000
  H   H47       1.0  0.29048  0.01111  0.67382  1.0000
  H   H48       1.0  0.20951  0.98889  0.17381  1.0000
  C   C1        1.0  0.46965  0.72307  0.27719  1.0000
  C   C2        1.0  0.03035  0.27692  0.77719  1.0000
  C   C3        1.0  0.53035  0.27693  0.72281  1.0000
  C   C4        1.0  0.96965  0.72307  0.22281  1.0000
  C   C5        1.0  0.44622  0.54227  0.23916  1.0000
  C   C6        1.0  0.05377  0.45772  0.73915  1.0000
  C   C7        1.0  0.55378  0.45773  0.76084  1.0000
  C   C8        1.0  0.94622  0.54227  0.26084  1.0000
  C   C9        1.0  0.31984  0.26217  0.28794  1.0000
  C   C10       1.0  0.18016  0.73783  0.78793  1.0000
  C   C11       1.0  0.68017  0.73783  0.71206  1.0000
  C   C12       1.0  0.81983  0.26217  0.21207  1.0000
  C   C13       1.0  0.21115  0.17549  0.36915  1.0000
  C   C14       1.0  0.28884  0.82451  0.86914  1.0000
  C   C15       1.0  0.78885  0.82451  0.63085  1.0000
  C   C16       1.0  0.71115  0.17549  0.13085  1.0000
  C   C17       1.0  0.23016  0.08745  0.53141  1.0000
  C   C18       1.0  0.26984  0.91255  0.03140  1.0000
  C   C19       1.0  0.76984  0.91255  0.46859  1.0000
  C   C20       1.0  0.73016  0.08745  0.96859  1.0000
  C   C21       1.0  0.64352  0.90859  0.38393  1.0000
  C   C22       1.0  0.85648  0.09141  0.88393  1.0000
  C   C23       1.0  0.35648  0.09141  0.61607  1.0000
  C   C24       1.0  0.14352  0.90859  0.11607  1.0000
  N   N1        1.0  0.12475  0.60772  0.50407  1.0000
  N   N2        1.0  0.37530  0.39232  0.00407  1.0000
  N   N3        1.0  0.87531  0.39232  0.49593  1.0000
  N   N4        1.0  0.62474  0.60772  0.99593  1.0000
  N   N5        1.0  0.00002  0.50001  0.50000  1.0000
  N   N6        1.0  0.50002  0.50002  1.00000  1.0000
  O   O1        1.0  0.60463  0.73636  0.35065  1.0000
  O   O2        1.0  0.89537  0.26364  0.85065  1.0000
  O   O3        1.0  0.39537  0.26365  0.64935  1.0000
  O   O4        1.0  0.10463  0.73635  0.14935  1.0000
  O   O5        1.0  0.37764  0.43296  0.31624  1.0000
  O   O6        1.0  0.12236  0.56704  0.81624  1.0000
  O   O7        1.0  0.62237  0.56704  0.68376  1.0000
  O   O8        1.0  0.87763  0.43296  0.18376  1.0000
  O   O9        1.0  0.32556  0.16723  0.45103  1.0000
  O   O10       1.0  0.17443  0.83277  0.95103  1.0000
  O   O11       1.0  0.67444  0.83277  0.54897  1.0000
  O   O12       1.0  0.82556  0.16723  0.04897  1.0000
