data_image0
_chemical_formula_structural       Cd2H36C56N8O8
_chemical_formula_sum              "Cd2 H36 C56 N8 O8"
_cell_length_a       10.4698
_cell_length_b       11.52
_cell_length_c       12.0697
_cell_angle_alpha    61.7627
_cell_angle_beta     71.636
_cell_angle_gamma    65.6351

_space_group_name_H-M_alt    "P 1"
_space_group_IT_number       1

loop_
  _space_group_symop_operation_xyz
  'x, y, z'

loop_
  _atom_site_type_symbol
  _atom_site_label
  _atom_site_symmetry_multiplicity
  _atom_site_fract_x
  _atom_site_fract_y
  _atom_site_fract_z
  _atom_site_occupancy
  Cd  Cd1       1.0  0.65355  0.38028  0.11296  1.0000
  Cd  Cd2       1.0  0.34645  0.61972  0.88704  1.0000
  H   H1        1.0  0.95781  0.10562  0.44259  1.0000
  H   H2        1.0  0.04219  0.89438  0.55742  1.0000
  H   H3        1.0  0.13466  0.38741  0.10197  1.0000
  H   H4        1.0  0.86534  0.61259  0.89803  1.0000
  H   H5        1.0  0.36630  0.12990  0.41986  1.0000
  H   H6        1.0  0.63370  0.87011  0.58014  1.0000
  H   H7        1.0  0.84459  0.02036  0.21526  1.0000
  H   H8        1.0  0.15541  0.97964  0.78473  1.0000
  H   H9        1.0  0.87029  0.63597  0.21450  1.0000
  H   H10       1.0  0.12971  0.36403  0.78550  1.0000
  H   H11       1.0  0.14391  0.51427  0.50421  1.0000
  H   H12       1.0  0.85609  0.48573  0.49579  1.0000
  H   H13       1.0  0.59471  0.05617  0.30723  1.0000
  H   H14       1.0  0.40529  0.94383  0.69276  1.0000
  H   H15       1.0  0.73667  0.60882  0.12796  1.0000
  H   H16       1.0  0.26333  0.39118  0.87204  1.0000
  H   H17       1.0  0.39332  0.74064  0.49024  1.0000
  H   H18       1.0  0.60668  0.25937  0.50976  1.0000
  H   H19       1.0  0.47201  0.89752  0.33670  1.0000
  H   H20       1.0  0.52799  0.10249  0.66330  1.0000
  H   H21       1.0  0.45746  0.80987  0.98226  1.0000
  H   H22       1.0  0.54254  0.19013  0.01774  1.0000
  H   H23       1.0  0.17237  0.02391  0.54331  1.0000
  H   H24       1.0  0.82763  0.97609  0.45670  1.0000
  H   H25       1.0  0.24199  0.02778  0.23212  1.0000
  H   H26       1.0  0.75801  0.97222  0.76788  1.0000
  H   H27       1.0  0.02611  0.96828  0.27486  1.0000
  H   H28       1.0  0.97389  0.03172  0.72514  1.0000
  H   H29       1.0  0.03251  0.68139  0.05110  1.0000
  H   H30       1.0  0.96749  0.31861  0.94890  1.0000
  H   H31       1.0  0.31750  0.44188  0.33359  1.0000
  H   H32       1.0  0.68250  0.55812  0.66641  1.0000
  H   H33       1.0  0.45346  0.95321  0.08910  1.0000
  H   H34       1.0  0.54655  0.04679  0.91090  1.0000
  H   H35       1.0  0.18601  0.65819  0.58105  1.0000
  H   H36       1.0  0.81399  0.34181  0.41895  1.0000
  C   C1        1.0  0.87513  0.82560  0.20730  1.0000
  C   C2        1.0  0.12487  0.17440  0.79270  1.0000
  C   C3        1.0  0.38372  0.32112  0.17995  1.0000
  C   C4        1.0  0.61628  0.67888  0.82005  1.0000
  C   C5        1.0  0.04505  0.14799  0.39124  1.0000
  C   C6        1.0  0.95494  0.85201  0.60876  1.0000
  C   C7        1.0  0.14308  0.30794  0.19836  1.0000
  C   C8        1.0  0.85692  0.69206  0.80164  1.0000
  C   C9        1.0  0.90594  0.29130  0.20898  1.0000
  C   C10       1.0  0.09406  0.70869  0.79102  1.0000
  C   C11       1.0  0.03398  0.24928  0.26706  1.0000
  C   C12       1.0  0.96602  0.75072  0.73294  1.0000
  C   C13       1.0  0.26345  0.26314  0.25343  1.0000
  C   C14       1.0  0.73655  0.73686  0.74657  1.0000
  C   C15       1.0  0.27287  0.16169  0.37806  1.0000
  C   C16       1.0  0.72712  0.83831  0.62194  1.0000
  C   C17       1.0  0.11904  0.85711  0.14842  1.0000
  C   C18       1.0  0.88097  0.14289  0.85158  1.0000
  C   C19       1.0  0.79772  0.94247  0.23613  1.0000
  C   C20       1.0  0.20228  0.05753  0.76386  1.0000
  C   C21       1.0  0.44962  0.55673  0.31168  1.0000
  C   C22       1.0  0.55038  0.44327  0.68832  1.0000
  C   C23       1.0  0.80896  0.73089  0.23034  1.0000
  C   C24       1.0  0.19104  0.26911  0.76966  1.0000
  C   C25       1.0  0.23701  0.54920  0.46064  1.0000
  C   C26       1.0  0.76299  0.45080  0.53936  1.0000
  C   C27       1.0  0.66297  0.75869  0.27364  1.0000
  C   C28       1.0  0.33703  0.24131  0.72635  1.0000
  C   C29       1.0  0.24185  0.81151  0.06769  1.0000
  C   C30       1.0  0.75815  0.18849  0.93231  1.0000
  C   C31       1.0  0.46984  0.64381  0.35318  1.0000
  C   C32       1.0  0.53016  0.35619  0.64682  1.0000
  C   C33       1.0  0.65477  0.96330  0.28751  1.0000
  C   C34       1.0  0.34523  0.03670  0.71249  1.0000
  C   C35       1.0  0.64228  0.60391  0.19855  1.0000
  C   C36       1.0  0.35772  0.39609  0.80145  1.0000
  C   C37       1.0  0.37688  0.67991  0.45217  1.0000
  C   C38       1.0  0.62312  0.32009  0.54783  1.0000
  C   C39       1.0  0.58557  0.87428  0.30445  1.0000
  C   C40       1.0  0.41442  0.12573  0.69555  1.0000
  C   C41       1.0  0.36357  0.84665  0.04330  1.0000
  C   C42       1.0  0.63643  0.15335  0.95670  1.0000
  C   C43       1.0  0.16387  0.10391  0.44708  1.0000
  C   C44       1.0  0.83613  0.89609  0.55292  1.0000
  C   C45       1.0  0.23948  0.96830  0.18511  1.0000
  C   C46       1.0  0.76052  0.03170  0.81489  1.0000
  C   C47       1.0  0.11693  0.93494  0.20985  1.0000
  C   C48       1.0  0.88307  0.06506  0.79015  1.0000
  C   C49       1.0  0.08475  0.73096  0.07259  1.0000
  C   C50       1.0  0.91525  0.26904  0.92740  1.0000
  C   C51       1.0  0.33200  0.50909  0.36515  1.0000
  C   C52       1.0  0.66800  0.49091  0.63485  1.0000
  C   C53       1.0  0.35997  0.92604  0.10291  1.0000
  C   C54       1.0  0.64003  0.07396  0.89709  1.0000
  C   C55       1.0  0.26034  0.63152  0.50414  1.0000
  C   C56       1.0  0.73966  0.36848  0.49586  1.0000
  N   N1        1.0  0.21618  0.73277  0.02315  1.0000
  N   N2        1.0  0.78382  0.26722  0.97685  1.0000
  N   N3        1.0  0.01960  0.80365  0.14946  1.0000
  N   N4        1.0  0.98040  0.19635  0.85054  1.0000
  N   N5        1.0  0.56026  0.53353  0.21617  1.0000
  N   N6        1.0  0.43974  0.46646  0.78383  1.0000
  N   N7        1.0  0.59511  0.67202  0.27852  1.0000
  N   N8        1.0  0.40488  0.32799  0.72148  1.0000
  O   O1        1.0  0.88495  0.39950  0.10577  1.0000
  O   O2        1.0  0.11505  0.60050  0.89423  1.0000
  O   O3        1.0  0.48810  0.27662  0.23881  1.0000
  O   O4        1.0  0.51190  0.72338  0.76119  1.0000
  O   O5        1.0  0.82291  0.21747  0.26589  1.0000
  O   O6        1.0  0.17710  0.78253  0.73412  1.0000
  O   O7        1.0  0.37921  0.40695  0.06544  1.0000
  O   O8        1.0  0.62079  0.59306  0.93456  1.0000
