data_image0
_chemical_formula_structural       Cu2H28C44N6Cl2O4
_chemical_formula_sum              "Cu2 H28 C44 N6 Cl2 O4"
_cell_length_a       8.39663
_cell_length_b       10.1787
_cell_length_c       12.7147
_cell_angle_alpha    66.8926
_cell_angle_beta     81.4388
_cell_angle_gamma    69.6734

_space_group_name_H-M_alt    "P 1"
_space_group_IT_number       1

loop_
  _space_group_symop_operation_xyz
  'x, y, z'

loop_
  _atom_site_type_symbol
  _atom_site_label
  _atom_site_symmetry_multiplicity
  _atom_site_fract_x
  _atom_site_fract_y
  _atom_site_fract_z
  _atom_site_occupancy
  Cu  Cu1       1.0  0.27215  0.32794  0.29459  1.0000
  Cu  Cu2       1.0  0.72785  0.67205  0.70541  1.0000
  H   H1        1.0  0.98813  0.99033  0.41274  1.0000
  H   H2        1.0  0.01187  0.00967  0.58726  1.0000
  H   H3        1.0  0.03068  0.14320  0.85472  1.0000
  H   H4        1.0  0.96931  0.85681  0.14528  1.0000
  H   H5        1.0  0.62983  0.50466  0.21893  1.0000
  H   H6        1.0  0.37016  0.49534  0.78108  1.0000
  H   H7        1.0  0.54690  0.47408  0.41882  1.0000
  H   H8        1.0  0.45310  0.52591  0.58119  1.0000
  H   H9        1.0  0.90975  0.10202  0.20978  1.0000
  H   H10       1.0  0.09026  0.89798  0.79021  1.0000
  H   H11       1.0  0.52330  0.20969  0.80103  1.0000
  H   H12       1.0  0.47670  0.79032  0.19896  1.0000
  H   H13       1.0  0.94320  0.44503  0.16383  1.0000
  H   H14       1.0  0.05679  0.55497  0.83617  1.0000
  H   H15       1.0  0.59899  0.24442  0.15782  1.0000
  H   H16       1.0  0.40101  0.75558  0.84219  1.0000
  H   H17       1.0  0.77419  0.38085  0.56569  1.0000
  H   H18       1.0  0.22581  0.61915  0.43432  1.0000
  H   H19       1.0  0.99994  0.29823  0.67735  1.0000
  H   H20       1.0  0.00006  0.70177  0.32265  1.0000
  H   H21       1.0  0.54925  0.10251  0.67499  1.0000
  H   H22       1.0  0.45074  0.89749  0.32501  1.0000
  H   H23       1.0  0.76114  0.02722  0.56328  1.0000
  H   H24       1.0  0.23886  0.97277  0.43672  1.0000
  H   H25       1.0  0.50660  0.21427  0.99300  1.0000
  H   H26       1.0  0.49341  0.78573  0.00699  1.0000
  H   H27       1.0  0.02610  0.12894  0.05248  1.0000
  H   H28       1.0  0.97390  0.87108  0.94752  1.0000
  C   C1        1.0  0.85652  0.05515  0.38947  1.0000
  C   C2        1.0  0.14348  0.94485  0.61053  1.0000
  C   C3        1.0  0.13859  0.15308  0.88580  1.0000
  C   C4        1.0  0.86140  0.84693  0.11420  1.0000
  C   C5        1.0  0.72739  0.46433  0.28197  1.0000
  C   C6        1.0  0.27261  0.53567  0.71803  1.0000
  C   C7        1.0  0.68143  0.44640  0.39549  1.0000
  C   C8        1.0  0.31857  0.55360  0.60452  1.0000
  C   C9        1.0  0.81231  0.11665  0.27466  1.0000
  C   C10       1.0  0.18770  0.88334  0.72534  1.0000
  C   C11       1.0  0.41414  0.18999  0.85554  1.0000
  C   C12       1.0  0.58586  0.81000  0.14445  1.0000
  C   C13       1.0  0.89909  0.43067  0.25153  1.0000
  C   C14       1.0  0.10090  0.56932  0.74847  1.0000
  C   C15       1.0  0.64279  0.19541  0.24564  1.0000
  C   C16       1.0  0.35722  0.80459  0.75436  1.0000
  C   C17       1.0  0.80669  0.39358  0.47634  1.0000
  C   C18       1.0  0.19332  0.60642  0.52367  1.0000
  C   C19       1.0  0.12049  0.26607  0.63276  1.0000
  C   C20       1.0  0.87951  0.73393  0.36724  1.0000
  C   C21       1.0  0.42814  0.16083  0.63078  1.0000
  C   C22       1.0  0.57186  0.83916  0.36922  1.0000
  C   C23       1.0  0.27792  0.17592  0.81295  1.0000
  C   C24       1.0  0.72208  0.82408  0.18705  1.0000
  C   C25       1.0  0.73225  0.07668  0.47222  1.0000
  C   C26       1.0  0.26774  0.92332  0.52778  1.0000
  C   C27       1.0  0.27545  0.19938  0.69151  1.0000
  C   C28       1.0  0.72455  0.80063  0.30849  1.0000
  C   C29       1.0  0.42141  0.19442  0.51398  1.0000
  C   C30       1.0  0.57858  0.80558  0.48602  1.0000
  C   C31       1.0  0.97648  0.35892  0.44031  1.0000
  C   C32       1.0  0.02352  0.64108  0.55969  1.0000
  C   C33       1.0  0.56533  0.16048  0.43673  1.0000
  C   C34       1.0  0.43466  0.83953  0.56327  1.0000
  C   C35       1.0  0.12330  0.29614  0.51581  1.0000
  C   C36       1.0  0.87670  0.70385  0.48420  1.0000
  C   C37       1.0  0.26473  0.17252  0.03643  1.0000
  C   C38       1.0  0.73527  0.82749  0.96356  1.0000
  C   C39       1.0  0.40496  0.19296  0.96461  1.0000
  C   C40       1.0  0.59505  0.80704  0.03538  1.0000
  C   C41       1.0  0.13458  0.14755  0.99708  1.0000
  C   C42       1.0  0.86542  0.85246  0.00291  1.0000
  C   C43       1.0  0.24961  0.18415  0.15194  1.0000
  C   C44       1.0  0.75040  0.81586  0.84805  1.0000
  N   N1        1.0  0.01973  0.37848  0.32878  1.0000
  N   N2        1.0  0.98027  0.62152  0.67121  1.0000
  N   N3        1.0  0.52280  0.21569  0.32499  1.0000
  N   N4        1.0  0.47720  0.78430  0.67501  1.0000
  N   N5        1.0  0.27194  0.26365  0.45997  1.0000
  N   N6        1.0  0.72806  0.73634  0.54003  1.0000
  Cl  Cl1       1.0  0.28601  0.58329  0.23969  1.0000
  Cl  Cl2       1.0  0.71396  0.41671  0.76031  1.0000
  O   O1        1.0  0.27813  0.30329  0.14849  1.0000
  O   O2        1.0  0.72189  0.69671  0.85151  1.0000
  O   O3        1.0  0.21014  0.08700  0.23892  1.0000
  O   O4        1.0  0.78985  0.91300  0.76107  1.0000
