data_image0
_chemical_formula_structural       Ag4H24C28N4O8
_chemical_formula_sum              "Ag4 H24 C28 N4 O8"
_cell_length_a       4.86948
_cell_length_b       5.88843
_cell_length_c       23.8802
_cell_angle_alpha    90.0005
_cell_angle_beta     90.0004
_cell_angle_gamma    90.0002

_space_group_name_H-M_alt    "P 1"
_space_group_IT_number       1

loop_
  _space_group_symop_operation_xyz
  'x, y, z'

loop_
  _atom_site_type_symbol
  _atom_site_label
  _atom_site_symmetry_multiplicity
  _atom_site_fract_x
  _atom_site_fract_y
  _atom_site_fract_z
  _atom_site_occupancy
  Ag  Ag1       1.0  0.63310  0.28339  0.26739  1.0000
  Ag  Ag2       1.0  0.13309  0.71664  0.73261  1.0000
  Ag  Ag3       1.0  0.63309  0.78338  0.23262  1.0000
  Ag  Ag4       1.0  0.13308  0.21662  0.76739  1.0000
  H   H1        1.0  0.15548  0.96447  0.20216  1.0000
  H   H2        1.0  0.65546  0.03553  0.79784  1.0000
  H   H3        1.0  0.15548  0.46451  0.29785  1.0000
  H   H4        1.0  0.65549  0.53553  0.70215  1.0000
  H   H5        1.0  0.21553  0.73754  0.16315  1.0000
  H   H6        1.0  0.71551  0.26243  0.83686  1.0000
  H   H7        1.0  0.21551  0.23760  0.33686  1.0000
  H   H8        1.0  0.71552  0.76244  0.66314  1.0000
  H   H9        1.0  0.67191  0.81103  0.09915  1.0000
  H   H10       1.0  0.17187  0.18892  0.90086  1.0000
  H   H11       1.0  0.67190  0.31109  0.40086  1.0000
  H   H12       1.0  0.17191  0.68896  0.59914  1.0000
  H   H13       1.0  0.79112  0.06555  0.01949  1.0000
  H   H14       1.0  0.29110  0.93437  0.98051  1.0000
  H   H15       1.0  0.79113  0.56563  0.48052  1.0000
  H   H16       1.0  0.29116  0.43441  0.51948  1.0000
  H   H17       1.0  0.55674  0.44235  0.00982  1.0000
  H   H18       1.0  0.05672  0.55755  0.99016  1.0000
  H   H19       1.0  0.55675  0.94245  0.49017  1.0000
  H   H20       1.0  0.05680  0.05759  0.50983  1.0000
  H   H21       1.0  0.20361  0.55474  0.07971  1.0000
  H   H22       1.0  0.70358  0.44520  0.92028  1.0000
  H   H23       1.0  0.20360  0.05480  0.42029  1.0000
  H   H24       1.0  0.70365  0.94523  0.57971  1.0000
  C   C1        1.0  0.36960  0.03819  0.13335  1.0000
  C   C2        1.0  0.86957  0.96177  0.86665  1.0000
  C   C3        1.0  0.36961  0.53825  0.36665  1.0000
  C   C4        1.0  0.86962  0.46180  0.63335  1.0000
  C   C5        1.0  0.56817  0.97406  0.09388  1.0000
  C   C6        1.0  0.06814  0.02589  0.90612  1.0000
  C   C7        1.0  0.56818  0.47413  0.40612  1.0000
  C   C8        1.0  0.06820  0.52592  0.59388  1.0000
  C   C9        1.0  0.63579  0.11791  0.04971  1.0000
  C   C10       1.0  0.13578  0.88203  0.95029  1.0000
  C   C11       1.0  0.63581  0.61799  0.45030  1.0000
  C   C12       1.0  0.13586  0.38206  0.54971  1.0000
  C   C13       1.0  0.50574  0.32862  0.04425  1.0000
  C   C14       1.0  0.00571  0.67132  0.95574  1.0000
  C   C15       1.0  0.50574  0.82869  0.45575  1.0000
  C   C16       1.0  0.00579  0.17135  0.54426  1.0000
  C   C17       1.0  0.31003  0.39267  0.08342  1.0000
  C   C18       1.0  0.81000  0.60727  0.91657  1.0000
  C   C19       1.0  0.31003  0.89274  0.41658  1.0000
  C   C20       1.0  0.81006  0.10730  0.58342  1.0000
  C   C21       1.0  0.23849  0.25176  0.12856  1.0000
  C   C22       1.0  0.73846  0.74819  0.87144  1.0000
  C   C23       1.0  0.23849  0.75183  0.37144  1.0000
  C   C24       1.0  0.73850  0.24823  0.62856  1.0000
  C   C25       1.0  0.02253  0.33781  0.16821  1.0000
  C   C26       1.0  0.52250  0.66217  0.83178  1.0000
  C   C27       1.0  0.02252  0.83786  0.33180  1.0000
  C   C28       1.0  0.52253  0.16219  0.66821  1.0000
  N   N1        1.0  0.30406  0.88557  0.17799  1.0000
  N   N2        1.0  0.80404  0.11441  0.82202  1.0000
  N   N3        1.0  0.30406  0.38561  0.32202  1.0000
  N   N4        1.0  0.80406  0.61443  0.67798  1.0000
  O   O1        1.0  0.95615  0.20631  0.20963  1.0000
  O   O2        1.0  0.45613  0.79368  0.79037  1.0000
  O   O3        1.0  0.95614  0.70635  0.29038  1.0000
  O   O4        1.0  0.45615  0.29368  0.70962  1.0000
  O   O5        1.0  0.92113  0.53151  0.16002  1.0000
  O   O6        1.0  0.42110  0.46846  0.83998  1.0000
  O   O7        1.0  0.92111  0.03157  0.33999  1.0000
  O   O8        1.0  0.42114  0.96849  0.66001  1.0000
