data_image0
_chemical_formula_structural       Cu4Mo4H8C8N4O16
_chemical_formula_sum              "Cu4 Mo4 H8 C8 N4 O16"
_cell_length_a       5.19879
_cell_length_b       8.19378
_cell_length_c       11.9925
_cell_angle_alpha    89.9998
_cell_angle_beta     89.9993
_cell_angle_gamma    103.016

_space_group_name_H-M_alt    "P 1"
_space_group_IT_number       1

loop_
  _space_group_symop_operation_xyz
  'x, y, z'

loop_
  _atom_site_type_symbol
  _atom_site_label
  _atom_site_symmetry_multiplicity
  _atom_site_fract_x
  _atom_site_fract_y
  _atom_site_fract_z
  _atom_site_occupancy
  Cu  Cu1       1.0  0.50506  0.67858  0.07099  1.0000
  Cu  Cu2       1.0  0.00507  0.17858  0.42899  1.0000
  Cu  Cu3       1.0  0.49495  0.32141  0.92901  1.0000
  Cu  Cu4       1.0  0.99492  0.82142  0.57101  1.0000
  Mo  Mo1       1.0  0.90348  0.41413  0.14597  1.0000
  Mo  Mo2       1.0  0.40349  0.91413  0.35403  1.0000
  Mo  Mo3       1.0  0.09653  0.58586  0.85403  1.0000
  Mo  Mo4       1.0  0.59650  0.08587  0.64597  1.0000
  H   H1        1.0  0.92923  0.90432  0.19187  1.0000
  H   H2        1.0  0.42927  0.40434  0.30813  1.0000
  H   H3        1.0  0.07078  0.09567  0.80812  1.0000
  H   H4        1.0  0.57073  0.59567  0.69187  1.0000
  H   H5        1.0  0.68173  0.86523  0.86108  1.0000
  H   H6        1.0  0.18169  0.36524  0.63891  1.0000
  H   H7        1.0  0.31828  0.13476  0.13891  1.0000
  H   H8        1.0  0.81830  0.63478  0.36109  1.0000
  C   C1        1.0  0.96127  0.94722  0.10627  1.0000
  C   C2        1.0  0.46129  0.44724  0.39373  1.0000
  C   C3        1.0  0.03873  0.05277  0.89373  1.0000
  C   C4        1.0  0.53870  0.55277  0.60627  1.0000
  C   C5        1.0  0.82407  0.92535  0.92313  1.0000
  C   C6        1.0  0.32404  0.42535  0.57686  1.0000
  C   C7        1.0  0.17594  0.07465  0.07687  1.0000
  C   C8        1.0  0.67595  0.57467  0.42314  1.0000
  N   N1        1.0  0.78779  0.87350  0.02910  1.0000
  N   N2        1.0  0.28779  0.37351  0.47090  1.0000
  N   N3        1.0  0.21221  0.12649  0.97089  1.0000
  N   N4        1.0  0.71221  0.62650  0.52911  1.0000
  O   O1        1.0  0.39910  0.81651  0.22443  1.0000
  O   O2        1.0  0.89920  0.31656  0.27557  1.0000
  O   O3        1.0  0.60089  0.18348  0.77557  1.0000
  O   O4        1.0  0.10080  0.68343  0.72443  1.0000
  O   O5        1.0  0.24090  0.47445  0.09777  1.0000
  O   O6        1.0  0.74094  0.97443  0.40217  1.0000
  O   O7        1.0  0.75911  0.52555  0.90223  1.0000
  O   O8        1.0  0.25904  0.02557  0.59783  1.0000
  O   O9        1.0  0.71465  0.26608  0.04997  1.0000
  O   O10       1.0  0.21470  0.76612  0.45007  1.0000
  O   O11       1.0  0.28535  0.73391  0.95004  1.0000
  O   O12       1.0  0.78529  0.23388  0.54993  1.0000
  O   O13       1.0  0.76416  0.59267  0.16318  1.0000
  O   O14       1.0  0.26423  0.09268  0.33681  1.0000
  O   O15       1.0  0.23584  0.40732  0.83681  1.0000
  O   O16       1.0  0.73578  0.90732  0.66318  1.0000
