data_image0
_chemical_formula_structural       CoH12C18N2Cl2O6
_chemical_formula_sum              "Co1 H12 C18 N2 Cl2 O6"
_cell_length_a       5.0211
_cell_length_b       7.97206
_cell_length_c       11.2033
_cell_angle_alpha    83.0954
_cell_angle_beta     82.7325
_cell_angle_gamma    81.342

_space_group_name_H-M_alt    "P 1"
_space_group_IT_number       1

loop_
  _space_group_symop_operation_xyz
  'x, y, z'

loop_
  _atom_site_type_symbol
  _atom_site_label
  _atom_site_symmetry_multiplicity
  _atom_site_fract_x
  _atom_site_fract_y
  _atom_site_fract_z
  _atom_site_occupancy
  Co  Co1       1.0  1.00000  0.50000  0.50000  1.0000
  H   H1        1.0  0.67269  0.50399  0.71967  1.0000
  H   H2        1.0  0.32731  0.49601  0.28033  1.0000
  H   H3        1.0  0.50273  0.57909  0.60980  1.0000
  H   H4        1.0  0.49727  0.42091  0.39020  1.0000
  H   H5        1.0  0.99691  0.13966  0.84886  1.0000
  H   H6        1.0  0.00308  0.86035  0.15114  1.0000
  H   H7        1.0  0.35936  0.30774  0.75754  1.0000
  H   H8        1.0  0.64064  0.69226  0.24245  1.0000
  H   H9        1.0  0.96741  0.69895  0.79950  1.0000
  H   H10       1.0  0.03259  0.30105  0.20050  1.0000
  H   H11       1.0  0.83614  0.13358  0.06921  1.0000
  H   H12       1.0  0.16386  0.86642  0.93079  1.0000
  C   C1        1.0  0.09801  0.13639  0.54699  1.0000
  C   C2        1.0  0.90200  0.86361  0.45301  1.0000
  C   C3        1.0  0.89877  0.17063  0.45327  1.0000
  C   C4        1.0  0.10123  0.82937  0.54673  1.0000
  C   C5        1.0  0.80860  0.03417  0.41047  1.0000
  C   C6        1.0  0.19140  0.96583  0.58953  1.0000
  C   C7        1.0  0.08994  0.21104  0.90547  1.0000
  C   C8        1.0  0.91005  0.78896  0.09453  1.0000
  C   C9        1.0  0.29039  0.30497  0.85383  1.0000
  C   C10       1.0  0.70960  0.69504  0.14617  1.0000
  C   C11       1.0  0.40397  0.40434  0.92637  1.0000
  C   C12       1.0  0.59603  0.59567  0.07363  1.0000
  C   C13       1.0  0.69059  0.59811  0.94574  1.0000
  C   C14       1.0  0.30941  0.40189  0.05426  1.0000
  C   C15       1.0  0.89478  0.70020  0.89539  1.0000
  C   C16       1.0  0.10522  0.29980  0.10460  1.0000
  C   C17       1.0  0.99774  0.20775  0.03105  1.0000
  C   C18       1.0  0.00225  0.79225  0.96895  1.0000
  N   N1        1.0  0.59278  0.50226  0.87523  1.0000
  N   N2        1.0  0.40722  0.49774  0.12477  1.0000
  Cl  Cl1       1.0  0.57658  0.07277  0.30555  1.0000
  Cl  Cl2       1.0  0.42342  0.92722  0.69445  1.0000
  O   O1        1.0  0.17010  0.26662  0.58203  1.0000
  O   O2        1.0  0.82991  0.73338  0.41798  1.0000
  O   O3        1.0  0.82632  0.32902  0.41866  1.0000
  O   O4        1.0  0.17368  0.67098  0.58134  1.0000
  O   O5        1.0  0.67181  0.50517  0.62959  1.0000
  O   O6        1.0  0.32819  0.49482  0.37041  1.0000
