data_image0
_chemical_formula_structural       Cu4Mo6H8C8N4O20
_chemical_formula_sum              "Cu4 Mo6 H8 C8 N4 O20"
_cell_length_a       7.69615
_cell_length_b       8.65412
_cell_length_c       8.65413
_cell_angle_alpha    91.1907
_cell_angle_beta     90
_cell_angle_gamma    90

_space_group_name_H-M_alt    "P 1"
_space_group_IT_number       1

loop_
  _space_group_symop_operation_xyz
  'x, y, z'

loop_
  _atom_site_type_symbol
  _atom_site_label
  _atom_site_symmetry_multiplicity
  _atom_site_fract_x
  _atom_site_fract_y
  _atom_site_fract_z
  _atom_site_occupancy
  Cu  Cu1       1.0  0.25000  0.45180  0.99053  1.0000
  Cu  Cu2       1.0  0.75000  0.54820  0.00947  1.0000
  Cu  Cu3       1.0  0.75000  0.00947  0.54819  1.0000
  Cu  Cu4       1.0  0.25000  0.99053  0.45181  1.0000
  Mo  Mo1       1.0  0.25000  0.83325  0.83326  1.0000
  Mo  Mo2       1.0  0.75000  0.16676  0.16674  1.0000
  Mo  Mo3       1.0  1.00000  0.85789  0.14211  1.0000
  Mo  Mo4       1.0  0.50000  0.14211  0.85789  1.0000
  Mo  Mo5       1.0  0.00000  0.14212  0.85789  1.0000
  Mo  Mo6       1.0  0.50000  0.85789  0.14211  1.0000
  H   H1        1.0  0.25000  0.64113  0.29325  1.0000
  H   H2        1.0  0.75000  0.35887  0.70676  1.0000
  H   H3        1.0  0.75000  0.70675  0.35887  1.0000
  H   H4        1.0  0.25000  0.29324  0.64113  1.0000
  H   H5        1.0  0.25000  0.57477  0.57478  1.0000
  H   H6        1.0  0.75000  0.42522  0.42523  1.0000
  H   H7        1.0  0.25000  0.17423  0.17423  1.0000
  H   H8        1.0  0.75000  0.82578  0.82577  1.0000
  C   C1        1.0  0.25000  0.52185  0.32961  1.0000
  C   C2        1.0  0.75000  0.47815  0.67041  1.0000
  C   C3        1.0  0.75000  0.67038  0.47816  1.0000
  C   C4        1.0  0.25000  0.32960  0.52187  1.0000
  C   C5        1.0  0.25000  0.48494  0.48494  1.0000
  C   C6        1.0  0.75000  0.51505  0.51505  1.0000
  C   C7        1.0  0.25000  0.26334  0.26334  1.0000
  C   C8        1.0  0.75000  0.73664  0.73664  1.0000
  N   N1        1.0  0.25000  0.41081  0.21745  1.0000
  N   N2        1.0  0.75000  0.58919  0.78255  1.0000
  N   N3        1.0  0.75000  0.78255  0.58918  1.0000
  N   N4        1.0  0.25000  0.21745  0.41081  1.0000
  O   O1        1.0  0.25000  0.85921  0.09132  1.0000
  O   O2        1.0  0.75000  0.14080  0.90868  1.0000
  O   O3        1.0  0.75000  0.90869  0.14079  1.0000
  O   O4        1.0  0.25000  0.09132  0.85920  1.0000
  O   O5        1.0  0.01620  0.89164  0.89164  1.0000
  O   O6        1.0  0.51620  0.10836  0.10836  1.0000
  O   O7        1.0  0.98380  0.10837  0.10836  1.0000
  O   O8        1.0  0.48380  0.89164  0.89164  1.0000
  O   O9        1.0  0.25000  0.63289  0.85662  1.0000
  O   O10       1.0  0.75000  0.36712  0.14338  1.0000
  O   O11       1.0  0.75000  0.14338  0.36712  1.0000
  O   O12       1.0  0.25000  0.85662  0.63289  1.0000
  O   O13       1.0  0.04674  0.33882  0.88462  1.0000
  O   O14       1.0  0.54674  0.66118  0.11538  1.0000
  O   O15       1.0  0.95326  0.11538  0.66117  1.0000
  O   O16       1.0  0.45326  0.88463  0.33882  1.0000
  O   O17       1.0  0.95326  0.66118  0.11538  1.0000
  O   O18       1.0  0.45326  0.33882  0.88462  1.0000
  O   O19       1.0  0.04674  0.88462  0.33882  1.0000
  O   O20       1.0  0.54674  0.11537  0.66117  1.0000
