data_image0
_chemical_formula_structural       Ag4H28C28S4O12
_chemical_formula_sum              "Ag4 H28 C28 S4 O12"
_cell_length_a       5.70185
_cell_length_b       8.69237
_cell_length_c       15.6801
_cell_angle_alpha    92.8149
_cell_angle_beta     89.9989
_cell_angle_gamma    89.999

_space_group_name_H-M_alt    "P 1"
_space_group_IT_number       1

loop_
  _space_group_symop_operation_xyz
  'x, y, z'

loop_
  _atom_site_type_symbol
  _atom_site_label
  _atom_site_symmetry_multiplicity
  _atom_site_fract_x
  _atom_site_fract_y
  _atom_site_fract_z
  _atom_site_occupancy
  Ag  Ag1       1.0  0.11370  0.79492  0.03081  1.0000
  Ag  Ag2       1.0  0.61368  0.70508  0.96919  1.0000
  Ag  Ag3       1.0  0.88627  0.20508  0.96920  1.0000
  Ag  Ag4       1.0  0.38632  0.29492  0.03081  1.0000
  H   H1        1.0  0.82733  0.41720  0.69317  1.0000
  H   H2        1.0  0.32730  0.08281  0.30683  1.0000
  H   H3        1.0  0.17269  0.58278  0.30683  1.0000
  H   H4        1.0  0.67268  0.91720  0.69318  1.0000
  H   H5        1.0  0.58783  0.38046  0.82092  1.0000
  H   H6        1.0  0.08779  0.11956  0.17908  1.0000
  H   H7        1.0  0.41216  0.61953  0.17908  1.0000
  H   H8        1.0  0.91217  0.88045  0.82092  1.0000
  H   H9        1.0  0.06059  0.68368  0.72677  1.0000
  H   H10       1.0  0.56056  0.81629  0.27321  1.0000
  H   H11       1.0  0.93944  0.31632  0.27321  1.0000
  H   H12       1.0  0.43941  0.18369  0.72679  1.0000
  H   H13       1.0  0.30995  0.73050  0.60103  1.0000
  H   H14       1.0  0.80993  0.76949  0.39896  1.0000
  H   H15       1.0  0.69010  0.26951  0.39897  1.0000
  H   H16       1.0  0.19007  0.23050  0.60104  1.0000
  H   H17       1.0  0.73174  0.49863  0.51458  1.0000
  H   H18       1.0  0.23170  0.00136  0.48540  1.0000
  H   H19       1.0  0.26828  0.50137  0.48542  1.0000
  H   H20       1.0  0.76827  0.99864  0.51460  1.0000
  H   H21       1.0  0.67120  0.69857  0.52498  1.0000
  H   H22       1.0  0.17119  0.80143  0.47501  1.0000
  H   H23       1.0  0.32885  0.30142  0.47501  1.0000
  H   H24       1.0  0.82882  0.19857  0.52499  1.0000
  H   H25       1.0  0.91853  0.62016  0.57749  1.0000
  H   H26       1.0  0.41850  0.87984  0.42250  1.0000
  H   H27       1.0  0.08149  0.37984  0.42251  1.0000
  H   H28       1.0  0.58151  0.12017  0.57750  1.0000
  C   C1        1.0  0.65884  0.47611  0.69954  1.0000
  C   C2        1.0  0.15878  0.02390  0.30046  1.0000
  C   C3        1.0  0.34119  0.52388  0.30046  1.0000
  C   C4        1.0  0.84117  0.97612  0.69955  1.0000
  C   C5        1.0  0.52346  0.45418  0.77194  1.0000
  C   C6        1.0  0.02341  0.04581  0.22806  1.0000
  C   C7        1.0  0.47655  0.54582  0.22806  1.0000
  C   C8        1.0  0.97656  0.95417  0.77195  1.0000
  C   C9        1.0  0.30654  0.52814  0.78054  1.0000
  C   C10       1.0  0.80653  0.97187  0.21946  1.0000
  C   C11       1.0  0.69345  0.47187  0.21945  1.0000
  C   C12       1.0  0.19345  0.02814  0.78055  1.0000
  C   C13       1.0  0.22757  0.62482  0.71835  1.0000
  C   C14       1.0  0.72756  0.87519  0.28165  1.0000
  C   C15       1.0  0.77244  0.37518  0.28165  1.0000
  C   C16       1.0  0.27244  0.12482  0.71835  1.0000
  C   C17       1.0  0.36824  0.64921  0.64759  1.0000
  C   C18       1.0  0.86824  0.85077  0.35241  1.0000
  C   C19       1.0  0.63178  0.35078  0.35242  1.0000
  C   C20       1.0  0.13178  0.14922  0.64759  1.0000
  C   C21       1.0  0.58492  0.57461  0.63653  1.0000
  C   C22       1.0  0.08485  0.92539  0.36345  1.0000
  C   C23       1.0  0.41513  0.42538  0.36347  1.0000
  C   C24       1.0  0.91510  0.07462  0.63655  1.0000
  C   C25       1.0  0.73448  0.59989  0.55956  1.0000
  C   C26       1.0  0.23444  0.90010  0.44043  1.0000
  C   C27       1.0  0.26555  0.40011  0.44044  1.0000
  C   C28       1.0  0.76556  0.09990  0.55957  1.0000
  S   S1        1.0  0.13291  0.50436  0.87306  1.0000
  S   S2        1.0  0.63289  0.99564  0.12693  1.0000
  S   S3        1.0  0.86709  0.49564  0.12693  1.0000
  S   S4        1.0  0.36709  0.00436  0.87308  1.0000
  O   O1        1.0  0.97804  0.63953  0.88149  1.0000
  O   O2        1.0  0.47802  0.86047  0.11852  1.0000
  O   O3        1.0  0.02195  0.36046  0.11851  1.0000
  O   O4        1.0  0.52197  0.13953  0.88149  1.0000
  O   O5        1.0  0.00698  0.35670  0.86023  1.0000
  O   O6        1.0  0.50696  0.14331  0.13977  1.0000
  O   O7        1.0  0.99302  0.64329  0.13977  1.0000
  O   O8        1.0  0.49301  0.85671  0.86024  1.0000
  O   O9        1.0  0.30196  0.50017  0.94548  1.0000
  O   O10       1.0  0.80193  0.99982  0.05451  1.0000
  O   O11       1.0  0.69805  0.49984  0.05451  1.0000
  O   O12       1.0  0.19804  0.00019  0.94549  1.0000
