data_image0
_chemical_formula_structural       K4H12C12N16O24
_chemical_formula_sum              "K4 H12 C12 N16 O24"
_cell_length_a       6.93509
_cell_length_b       9.19639
_cell_length_c       12.3802
_cell_angle_alpha    90.0005
_cell_angle_beta     89.9999
_cell_angle_gamma    95.9186

_space_group_name_H-M_alt    "P 1"
_space_group_IT_number       1

loop_
  _space_group_symop_operation_xyz
  'x, y, z'

loop_
  _atom_site_type_symbol
  _atom_site_label
  _atom_site_symmetry_multiplicity
  _atom_site_fract_x
  _atom_site_fract_y
  _atom_site_fract_z
  _atom_site_occupancy
  K   K1        1.0  0.38450  0.39920  0.36464  1.0000
  K   K2        1.0  0.11550  0.60078  0.86464  1.0000
  K   K3        1.0  0.61552  0.60079  0.63535  1.0000
  K   K4        1.0  0.88450  0.39920  0.13535  1.0000
  H   H1        1.0  0.21019  0.90754  0.06669  1.0000
  H   H2        1.0  0.28982  0.09246  0.56670  1.0000
  H   H3        1.0  0.78980  0.09246  0.93331  1.0000
  H   H4        1.0  0.71018  0.90754  0.43330  1.0000
  H   H5        1.0  0.40839  0.47315  0.11884  1.0000
  H   H6        1.0  0.09162  0.52685  0.61884  1.0000
  H   H7        1.0  0.59160  0.52685  0.88115  1.0000
  H   H8        1.0  0.90838  0.47315  0.38116  1.0000
  H   H9        1.0  0.44034  0.30774  0.10775  1.0000
  H   H10       1.0  0.05966  0.69226  0.60775  1.0000
  H   H11       1.0  0.55965  0.69226  0.89225  1.0000
  H   H12       1.0  0.94034  0.30774  0.39225  1.0000
  C   C1        1.0  0.24481  0.78894  0.31735  1.0000
  C   C2        1.0  0.25519  0.21106  0.81735  1.0000
  C   C3        1.0  0.75519  0.21106  0.68265  1.0000
  C   C4        1.0  0.74481  0.78894  0.18265  1.0000
  C   C5        1.0  0.20462  0.90669  0.24980  1.0000
  C   C6        1.0  0.29539  0.09332  0.74981  1.0000
  C   C7        1.0  0.79538  0.09332  0.75020  1.0000
  C   C8        1.0  0.70462  0.90668  0.25019  1.0000
  C   C9        1.0  0.21873  0.85426  0.14435  1.0000
  C   C10       1.0  0.28127  0.14574  0.64436  1.0000
  C   C11       1.0  0.78126  0.14574  0.85565  1.0000
  C   C12       1.0  0.71872  0.85426  0.35564  1.0000
  N   N1        1.0  0.26064  0.71317  0.15400  1.0000
  N   N2        1.0  0.23936  0.28684  0.65400  1.0000
  N   N3        1.0  0.73935  0.28684  0.84600  1.0000
  N   N4        1.0  0.76063  0.71316  0.34600  1.0000
  N   N5        1.0  0.27921  0.67199  0.25819  1.0000
  N   N6        1.0  0.22080  0.32802  0.75820  1.0000
  N   N7        1.0  0.72080  0.32801  0.74181  1.0000
  N   N8        1.0  0.77920  0.67198  0.24181  1.0000
  N   N9        1.0  0.24352  0.77249  0.43174  1.0000
  N   N10       1.0  0.25647  0.22752  0.93174  1.0000
  N   N11       1.0  0.75648  0.22751  0.56826  1.0000
  N   N12       1.0  0.74352  0.77248  0.06826  1.0000
  N   N13       1.0  0.17312  0.05331  0.27458  1.0000
  N   N14       1.0  0.32689  0.94669  0.77458  1.0000
  N   N15       1.0  0.82689  0.94669  0.72542  1.0000
  N   N16       1.0  0.67312  0.05331  0.22543  1.0000
  O   O1        1.0  0.27864  0.62188  0.07642  1.0000
  O   O2        1.0  0.22136  0.37812  0.57642  1.0000
  O   O3        1.0  0.72135  0.37812  0.92358  1.0000
  O   O4        1.0  0.77862  0.62187  0.42358  1.0000
  O   O5        1.0  0.34333  0.67902  0.47053  1.0000
  O   O6        1.0  0.15667  0.32099  0.97053  1.0000
  O   O7        1.0  0.65668  0.32098  0.52947  1.0000
  O   O8        1.0  0.84332  0.67901  0.02947  1.0000
  O   O9        1.0  0.14043  0.84724  0.48686  1.0000
  O   O10       1.0  0.35956  0.15276  0.98688  1.0000
  O   O11       1.0  0.85956  0.15275  0.51313  1.0000
  O   O12       1.0  0.64044  0.84725  0.01313  1.0000
  O   O13       1.0  0.20963  0.10157  0.36723  1.0000
  O   O14       1.0  0.29035  0.89843  0.86724  1.0000
  O   O15       1.0  0.79037  0.89842  0.63277  1.0000
  O   O16       1.0  0.70966  0.10157  0.13276  1.0000
  O   O17       1.0  0.11318  0.12729  0.19930  1.0000
  O   O18       1.0  0.38682  0.87271  0.69931  1.0000
  O   O19       1.0  0.88682  0.87271  0.80070  1.0000
  O   O20       1.0  0.61319  0.12729  0.30069  1.0000
  O   O21       1.0  0.48066  0.39540  0.15008  1.0000
  O   O22       1.0  0.01935  0.60460  0.65008  1.0000
  O   O23       1.0  0.51934  0.60460  0.84991  1.0000
  O   O24       1.0  0.98065  0.39540  0.34992  1.0000
