data_image0
_chemical_formula_structural       Zn2P2H38C52N4O14
_chemical_formula_sum              "Zn2 P2 H38 C52 N4 O14"
_cell_length_a       10.7497
_cell_length_b       10.7543
_cell_length_c       11.4735
_cell_angle_alpha    106.156
_cell_angle_beta     97.4498
_cell_angle_gamma    103.575

_space_group_name_H-M_alt    "P 1"
_space_group_IT_number       1

loop_
  _space_group_symop_operation_xyz
  'x, y, z'

loop_
  _atom_site_type_symbol
  _atom_site_label
  _atom_site_symmetry_multiplicity
  _atom_site_fract_x
  _atom_site_fract_y
  _atom_site_fract_z
  _atom_site_occupancy
  Zn  Zn1       1.0  0.43653  0.87530  0.27677  1.0000
  Zn  Zn2       1.0  0.56346  0.12470  0.72323  1.0000
  P   P1        1.0  0.20793  0.76941  0.42791  1.0000
  P   P2        1.0  0.79207  0.23059  0.57209  1.0000
  H   H1        1.0  0.96357  0.05238  0.93334  1.0000
  H   H2        1.0  0.03642  0.94761  0.06667  1.0000
  H   H3        1.0  0.44474  0.10992  0.43519  1.0000
  H   H4        1.0  0.55526  0.89009  0.56481  1.0000
  H   H5        1.0  0.57880  0.13515  0.38925  1.0000
  H   H6        1.0  0.42120  0.86485  0.61075  1.0000
  H   H7        1.0  0.99117  0.39408  0.03648  1.0000
  H   H8        1.0  0.00882  0.60592  0.96352  1.0000
  H   H9        1.0  0.05737  0.63402  0.17414  1.0000
  H   H10       1.0  0.94263  0.36598  0.82586  1.0000
  H   H11       1.0  0.25176  0.52433  0.46609  1.0000
  H   H12       1.0  0.74823  0.47568  0.53391  1.0000
  H   H13       1.0  0.18709  0.28260  0.32464  1.0000
  H   H14       1.0  0.81290  0.71740  0.67537  1.0000
  H   H15       1.0  0.76124  0.74050  0.50958  1.0000
  H   H16       1.0  0.23876  0.25950  0.49042  1.0000
  H   H17       1.0  0.98546  0.70617  0.54532  1.0000
  H   H18       1.0  0.01454  0.29383  0.45468  1.0000
  H   H19       1.0  0.09552  0.91964  0.29096  1.0000
  H   H20       1.0  0.90448  0.08036  0.70904  1.0000
  H   H21       1.0  0.87186  0.95090  0.25546  1.0000
  H   H22       1.0  0.12814  0.04910  0.74454  1.0000
  H   H23       1.0  0.44435  0.56924  0.27909  1.0000
  H   H24       1.0  0.55564  0.43076  0.72091  1.0000
  H   H25       1.0  0.39051  0.33982  0.11916  1.0000
  H   H26       1.0  0.60949  0.66018  0.88085  1.0000
  H   H27       1.0  0.30287  0.31224  0.89639  1.0000
  H   H28       1.0  0.69714  0.68776  0.10361  1.0000
  H   H29       1.0  0.24045  0.42267  0.73818  1.0000
  H   H30       1.0  0.75956  0.57733  0.26182  1.0000
  H   H31       1.0  0.22924  0.63226  0.68941  1.0000
  H   H32       1.0  0.77076  0.36774  0.31059  1.0000
  H   H33       1.0  0.25865  0.88089  0.76256  1.0000
  H   H34       1.0  0.74136  0.11911  0.23744  1.0000
  H   H35       1.0  0.31271  0.09428  0.94034  1.0000
  H   H36       1.0  0.68729  0.90572  0.05966  1.0000
  H   H37       1.0  0.37772  0.08752  0.15953  1.0000
  H   H38       1.0  0.62228  0.91249  0.84047  1.0000
  C   C1        1.0  0.04828  0.18205  0.09602  1.0000
  C   C2        1.0  0.95171  0.81795  0.90398  1.0000
  C   C3        1.0  0.08571  0.32521  0.17390  1.0000
  C   C4        1.0  0.91429  0.67478  0.82610  1.0000
  C   C5        1.0  0.04913  0.42368  0.13008  1.0000
  C   C6        1.0  0.95087  0.57632  0.86992  1.0000
  C   C7        1.0  0.08614  0.55692  0.20715  1.0000
  C   C8        1.0  0.91386  0.44308  0.79284  1.0000
  C   C9        1.0  0.15941  0.59361  0.32835  1.0000
  C   C10       1.0  0.84060  0.40640  0.67164  1.0000
  C   C11       1.0  0.19531  0.49479  0.37165  1.0000
  C   C12       1.0  0.80470  0.50521  0.62834  1.0000
  C   C13       1.0  0.15935  0.36142  0.29433  1.0000
  C   C14       1.0  0.84065  0.63858  0.70567  1.0000
  C   C15       1.0  0.66704  0.85416  0.35218  1.0000
  C   C16       1.0  0.33296  0.14584  0.64781  1.0000
  C   C17       1.0  0.80344  0.84491  0.37948  1.0000
  C   C18       1.0  0.19656  0.15508  0.62052  1.0000
  C   C19       1.0  0.83642  0.77845  0.46285  1.0000
  C   C20       1.0  0.16358  0.22155  0.53715  1.0000
  C   C21       1.0  0.96021  0.75963  0.48181  1.0000
  C   C22       1.0  0.03979  0.24037  0.51819  1.0000
  C   C23       1.0  0.05297  0.80880  0.41805  1.0000
  C   C24       1.0  0.94703  0.19119  0.58194  1.0000
  C   C25       1.0  0.02159  0.87934  0.33778  1.0000
  C   C26       1.0  0.97841  0.12066  0.66222  1.0000
  C   C27       1.0  0.89732  0.89700  0.31829  1.0000
  C   C28       1.0  0.10268  0.10300  0.68170  1.0000
  C   C29       1.0  0.40485  0.55278  0.18178  1.0000
  C   C30       1.0  0.59515  0.44722  0.81823  1.0000
  C   C31       1.0  0.37431  0.42474  0.09139  1.0000
  C   C32       1.0  0.62569  0.57526  0.90861  1.0000
  C   C33       1.0  0.32580  0.40964  0.96901  1.0000
  C   C34       1.0  0.67420  0.59037  0.03099  1.0000
  C   C35       1.0  0.30926  0.52340  0.93680  1.0000
  C   C36       1.0  0.69074  0.47660  0.06320  1.0000
  C   C37       1.0  0.26634  0.51937  0.81184  1.0000
  C   C38       1.0  0.73366  0.48063  0.18816  1.0000
  C   C39       1.0  0.25874  0.63369  0.78460  1.0000
  C   C40       1.0  0.74126  0.36630  0.21540  1.0000
  C   C41       1.0  0.28993  0.76075  0.88121  1.0000
  C   C42       1.0  0.71008  0.23925  0.11879  1.0000
  C   C43       1.0  0.28412  0.88188  0.85812  1.0000
  C   C44       1.0  0.71588  0.11812  0.14188  1.0000
  C   C45       1.0  0.31447  0.99991  0.95711  1.0000
  C   C46       1.0  0.68553  0.00010  0.04289  1.0000
  C   C47       1.0  0.35175  0.99745  0.07815  1.0000
  C   C48       1.0  0.64825  0.00256  0.92185  1.0000
  C   C49       1.0  0.32977  0.76777  0.00635  1.0000
  C   C50       1.0  0.67023  0.23223  0.99365  1.0000
  C   C51       1.0  0.34204  0.64801  0.03456  1.0000
  C   C52       1.0  0.65796  0.35199  0.96544  1.0000
  N   N1        1.0  0.38810  0.66068  0.15422  1.0000
  N   N2        1.0  0.61190  0.33932  0.84578  1.0000
  N   N3        1.0  0.36019  0.88486  0.10165  1.0000
  N   N4        1.0  0.63981  0.11514  0.89835  1.0000
  O   O1        1.0  0.07369  0.09408  0.13971  1.0000
  O   O2        1.0  0.92630  0.90591  0.86031  1.0000
  O   O3        1.0  0.98837  0.15583  0.98043  1.0000
  O   O4        1.0  0.01162  0.84417  0.01958  1.0000
  O   O5        1.0  0.58586  0.82142  0.41763  1.0000
  O   O6        1.0  0.41414  0.17859  0.58236  1.0000
  O   O7        1.0  0.63354  0.89032  0.25831  1.0000
  O   O8        1.0  0.36646  0.10968  0.74169  1.0000
  O   O9        1.0  0.28930  0.85514  0.36405  1.0000
  O   O10       1.0  0.71070  0.14486  0.63596  1.0000
  O   O11       1.0  0.26430  0.77594  0.55810  1.0000
  O   O12       1.0  0.73570  0.22406  0.44190  1.0000
  O   O13       1.0  0.48295  0.08548  0.36071  1.0000
  O   O14       1.0  0.51705  0.91453  0.63929  1.0000
