data_image0
_chemical_formula_structural       Ag4H22Pb2C38N14
_chemical_formula_sum              "Ag4 H22 Pb2 C38 N14"
_cell_length_a       9.92289
_cell_length_b       9.92299
_cell_length_c       11.5268
_cell_angle_alpha    98.5273
_cell_angle_beta     98.5267
_cell_angle_gamma    109.722

_space_group_name_H-M_alt    "P 1"
_space_group_IT_number       1

loop_
  _space_group_symop_operation_xyz
  'x, y, z'

loop_
  _atom_site_type_symbol
  _atom_site_label
  _atom_site_symmetry_multiplicity
  _atom_site_fract_x
  _atom_site_fract_y
  _atom_site_fract_z
  _atom_site_occupancy
  Ag  Ag1       1.0  0.36475  0.63525  0.75000  1.0000
  Ag  Ag2       1.0  0.63525  0.36475  0.25000  1.0000
  Ag  Ag3       1.0  0.50000  0.50000  0.50000  1.0000
  Ag  Ag4       1.0  0.50000  0.50000  0.00000  1.0000
  H   H1        1.0  0.88871  0.37270  0.03832  1.0000
  H   H2        1.0  0.62730  0.11129  0.46168  1.0000
  H   H3        1.0  0.11128  0.62729  0.96168  1.0000
  H   H4        1.0  0.37270  0.88871  0.53832  1.0000
  H   H5        1.0  0.09142  0.46185  0.22332  1.0000
  H   H6        1.0  0.53816  0.90859  0.27668  1.0000
  H   H7        1.0  0.90858  0.53815  0.77668  1.0000
  H   H8        1.0  0.46184  0.09141  0.72332  1.0000
  H   H9        1.0  0.29336  0.36315  0.22765  1.0000
  H   H10       1.0  0.63685  0.70664  0.27234  1.0000
  H   H11       1.0  0.70664  0.63684  0.77235  1.0000
  H   H12       1.0  0.36315  0.29336  0.72766  1.0000
  H   H13       1.0  0.28328  0.17759  0.05399  1.0000
  H   H14       1.0  0.82242  0.71672  0.44601  1.0000
  H   H15       1.0  0.71672  0.82241  0.94601  1.0000
  H   H16       1.0  0.17759  0.28328  0.55399  1.0000
  H   H17       1.0  0.23589  0.99367  0.92948  1.0000
  H   H18       1.0  0.00633  0.76411  0.57052  1.0000
  H   H19       1.0  0.76411  0.00633  0.07052  1.0000
  H   H20       1.0  0.99367  0.23589  0.42948  1.0000
  H   H21       1.0  0.19771  0.80229  0.75000  1.0000
  H   H22       1.0  0.80229  0.19771  0.25000  1.0000
  Pb  Pb1       1.0  0.80220  0.19780  0.75001  1.0000
  Pb  Pb2       1.0  0.19779  0.80219  0.25000  1.0000
  C   C1        1.0  0.17780  0.46487  0.74375  1.0000
  C   C2        1.0  0.53513  0.82220  0.75624  1.0000
  C   C3        1.0  0.82221  0.53513  0.25625  1.0000
  C   C4        1.0  0.46487  0.17780  0.24376  1.0000
  C   C5        1.0  0.65827  0.42334  0.55560  1.0000
  C   C6        1.0  0.57668  0.34171  0.94441  1.0000
  C   C7        1.0  0.34172  0.57667  0.44441  1.0000
  C   C8        1.0  0.42333  0.65829  0.05559  1.0000
  C   C9        1.0  0.97931  0.33333  0.04507  1.0000
  C   C10       1.0  0.66667  0.02070  0.45493  1.0000
  C   C11       1.0  0.02069  0.66667  0.95493  1.0000
  C   C12       1.0  0.33333  0.97931  0.54506  1.0000
  C   C13       1.0  0.09217  0.38328  0.14693  1.0000
  C   C14       1.0  0.61672  0.90783  0.35306  1.0000
  C   C15       1.0  0.90782  0.61672  0.85306  1.0000
  C   C16       1.0  0.38328  0.09217  0.64694  1.0000
  C   C17       1.0  0.20307  0.32683  0.14965  1.0000
  C   C18       1.0  0.67317  0.79694  0.35035  1.0000
  C   C19       1.0  0.79693  0.67317  0.85035  1.0000
  C   C20       1.0  0.32683  0.20306  0.64965  1.0000
  C   C21       1.0  0.19708  0.22218  0.05207  1.0000
  C   C22       1.0  0.77782  0.80293  0.44793  1.0000
  C   C23       1.0  0.80292  0.77782  0.94793  1.0000
  C   C24       1.0  0.22218  0.19708  0.55207  1.0000
  C   C25       1.0  0.07907  0.17558  0.95332  1.0000
  C   C26       1.0  0.82442  0.92093  0.54668  1.0000
  C   C27       1.0  0.92093  0.82442  0.04667  1.0000
  C   C28       1.0  0.17558  0.07907  0.45333  1.0000
  C   C29       1.0  0.06389  0.06148  0.84785  1.0000
  C   C30       1.0  0.93852  0.93611  0.65215  1.0000
  C   C31       1.0  0.93611  0.93852  0.15215  1.0000
  C   C32       1.0  0.06148  0.06389  0.34785  1.0000
  C   C33       1.0  0.15252  0.97735  0.85040  1.0000
  C   C34       1.0  0.02265  0.84748  0.64960  1.0000
  C   C35       1.0  0.84748  0.02265  0.14960  1.0000
  C   C36       1.0  0.97736  0.15252  0.35040  1.0000
  C   C37       1.0  0.13047  0.86953  0.75000  1.0000
  C   C38       1.0  0.86953  0.13047  0.25000  1.0000
  N   N1        1.0  0.06534  0.37139  0.73806  1.0000
  N   N2        1.0  0.62861  0.93467  0.76194  1.0000
  N   N3        1.0  0.93466  0.62861  0.26194  1.0000
  N   N4        1.0  0.37139  0.06534  0.23806  1.0000
  N   N5        1.0  0.74693  0.37469  0.58651  1.0000
  N   N6        1.0  0.62531  0.25307  0.91349  1.0000
  N   N7        1.0  0.25306  0.62531  0.41349  1.0000
  N   N8        1.0  0.37470  0.74694  0.08651  1.0000
  N   N9        1.0  0.97310  0.23227  0.95131  1.0000
  N   N10       1.0  0.76773  0.02690  0.54869  1.0000
  N   N11       1.0  0.02690  0.76774  0.04869  1.0000
  N   N12       1.0  0.23227  0.97310  0.45131  1.0000
  N   N13       1.0  0.95999  0.04002  0.75000  1.0000
  N   N14       1.0  0.04001  0.95999  0.25000  1.0000
