data_image0
_chemical_formula_structural       Tb2H30C48N8O12
_chemical_formula_sum              "Tb2 H30 C48 N8 O12"
_cell_length_a       9.28314
_cell_length_b       9.66208
_cell_length_c       12.6643
_cell_angle_alpha    109.566
_cell_angle_beta     91.8088
_cell_angle_gamma    99.9095

_space_group_name_H-M_alt    "P 1"
_space_group_IT_number       1

loop_
  _space_group_symop_operation_xyz
  'x, y, z'

loop_
  _atom_site_type_symbol
  _atom_site_label
  _atom_site_symmetry_multiplicity
  _atom_site_fract_x
  _atom_site_fract_y
  _atom_site_fract_z
  _atom_site_occupancy
  Tb  Tb1       1.0  0.90211  0.47834  0.12752  1.0000
  Tb  Tb2       1.0  0.09789  0.52166  0.87248  1.0000
  H   H1        1.0  0.17898  0.12380  0.74371  1.0000
  H   H2        1.0  0.82102  0.87620  0.25629  1.0000
  H   H3        1.0  0.12190  0.13217  0.93378  1.0000
  H   H4        1.0  0.87809  0.86783  0.06622  1.0000
  H   H5        1.0  0.09689  0.89550  0.98073  1.0000
  H   H6        1.0  0.90311  0.10451  0.01927  1.0000
  H   H7        1.0  0.08875  0.25704  0.62232  1.0000
  H   H8        1.0  0.91125  0.74296  0.37768  1.0000
  H   H9        1.0  0.15411  0.21170  0.42293  1.0000
  H   H10       1.0  0.84587  0.78830  0.57707  1.0000
  H   H11       1.0  0.21950  0.43299  0.35925  1.0000
  H   H12       1.0  0.78049  0.56701  0.64075  1.0000
  H   H13       1.0  0.44110  0.14875  0.47009  1.0000
  H   H14       1.0  0.55889  0.85125  0.52991  1.0000
  H   H15       1.0  0.54844  0.29120  0.35316  1.0000
  H   H16       1.0  0.45155  0.70880  0.64684  1.0000
  H   H17       1.0  0.51485  0.17532  0.14476  1.0000
  H   H18       1.0  0.48514  0.82468  0.85524  1.0000
  H   H19       1.0  0.34279  0.92815  0.05613  1.0000
  H   H20       1.0  0.65721  0.07185  0.94387  1.0000
  H   H21       1.0  0.42994  0.59477  0.25053  1.0000
  H   H22       1.0  0.57005  0.40523  0.74947  1.0000
  H   H23       1.0  0.44988  0.63725  0.12680  1.0000
  H   H24       1.0  0.55012  0.36275  0.87320  1.0000
  H   H25       1.0  0.36813  0.31828  0.13467  1.0000
  H   H26       1.0  0.63187  0.68171  0.86532  1.0000
  H   H27       1.0  0.37448  0.36168  0.00922  1.0000
  H   H28       1.0  0.62552  0.63832  0.99078  1.0000
  H   H29       1.0  0.23743  0.07312  0.54681  1.0000
  H   H30       1.0  0.76257  0.92688  0.45318  1.0000
  C   C1        1.0  0.20685  0.86141  0.57044  1.0000
  C   C2        1.0  0.79316  0.13859  0.42956  1.0000
  C   C3        1.0  0.17233  0.88230  0.68256  1.0000
  C   C4        1.0  0.82766  0.11771  0.31745  1.0000
  C   C5        1.0  0.16091  0.02074  0.76292  1.0000
  C   C6        1.0  0.83909  0.97925  0.23708  1.0000
  C   C7        1.0  0.13126  0.02625  0.87028  1.0000
  C   C8        1.0  0.86874  0.97375  0.12972  1.0000
  C   C9        1.0  0.11617  0.89456  0.89614  1.0000
  C   C10       1.0  0.88383  0.10544  0.10386  1.0000
  C   C11       1.0  0.15223  0.75281  0.71493  1.0000
  C   C12       1.0  0.84777  0.24719  0.28507  1.0000
  C   C13       1.0  0.15793  0.60651  0.63323  1.0000
  C   C14       1.0  0.84207  0.39349  0.36678  1.0000
  C   C15       1.0  0.12243  0.34965  0.59163  1.0000
  C   C16       1.0  0.87757  0.65035  0.40837  1.0000
  C   C17       1.0  0.15863  0.32515  0.48101  1.0000
  C   C18       1.0  0.84136  0.67485  0.51899  1.0000
  C   C19       1.0  0.19623  0.44662  0.44572  1.0000
  C   C20       1.0  0.80376  0.55338  0.55428  1.0000
  C   C21       1.0  0.19480  0.59105  0.52182  1.0000
  C   C22       1.0  0.80520  0.40896  0.47818  1.0000
  C   C23       1.0  0.22310  0.72386  0.49279  1.0000
  C   C24       1.0  0.77691  0.27615  0.50721  1.0000
  C   C25       1.0  0.26914  0.88354  0.40751  1.0000
  C   C26       1.0  0.73087  0.11646  0.59249  1.0000
  C   C27       1.0  0.31914  0.96228  0.33048  1.0000
  C   C28       1.0  0.68087  0.03772  0.66952  1.0000
  C   C29       1.0  0.41338  0.10282  0.37905  1.0000
  C   C30       1.0  0.58662  0.89719  0.62095  1.0000
  C   C31       1.0  0.47811  0.18165  0.31324  1.0000
  C   C32       1.0  0.52189  0.81836  0.68676  1.0000
  C   C33       1.0  0.45740  0.11705  0.19619  1.0000
  C   C34       1.0  0.54260  0.88295  0.80380  1.0000
  C   C35       1.0  0.36231  0.97961  0.14730  1.0000
  C   C36       1.0  0.63769  0.02039  0.85271  1.0000
  C   C37       1.0  0.28669  0.90303  0.21195  1.0000
  C   C38       1.0  0.71332  0.09697  0.78805  1.0000
  C   C39       1.0  0.17026  0.76729  0.14727  1.0000
  C   C40       1.0  0.82974  0.23271  0.85273  1.0000
  C   C41       1.0  0.61652  0.52945  0.16487  1.0000
  C   C42       1.0  0.38348  0.47056  0.83513  1.0000
  C   C43       1.0  0.45829  0.54992  0.16313  1.0000
  C   C44       1.0  0.54171  0.45008  0.83687  1.0000
  C   C45       1.0  0.35219  0.40288  0.09770  1.0000
  C   C46       1.0  0.64781  0.59712  0.90230  1.0000
  C   C47       1.0  0.19438  0.41942  0.10467  1.0000
  C   C48       1.0  0.80562  0.58058  0.89533  1.0000
  N   N1        1.0  0.23550  0.96143  0.51457  1.0000
  N   N2        1.0  0.76451  0.03857  0.48543  1.0000
  N   N3        1.0  0.26361  0.73991  0.39329  1.0000
  N   N4        1.0  0.73640  0.26009  0.60671  1.0000
  N   N5        1.0  0.12696  0.76205  0.82165  1.0000
  N   N6        1.0  0.87303  0.23795  0.17836  1.0000
  N   N7        1.0  0.12413  0.48566  0.66614  1.0000
  N   N8        1.0  0.87587  0.51433  0.33386  1.0000
  O   O1        1.0  0.18185  0.71643  0.04178  1.0000
  O   O2        1.0  0.81817  0.28357  0.95822  1.0000
  O   O3        1.0  0.06829  0.71686  0.19703  1.0000
  O   O4        1.0  0.93173  0.28313  0.80296  1.0000
  O   O5        1.0  0.72150  0.64361  0.19326  1.0000
  O   O6        1.0  0.27850  0.35639  0.80674  1.0000
  O   O7        1.0  0.64416  0.39742  0.13550  1.0000
  O   O8        1.0  0.35584  0.60259  0.86449  1.0000
  O   O9        1.0  0.13500  0.43094  0.19470  1.0000
  O   O10       1.0  0.86500  0.56905  0.80529  1.0000
  O   O11       1.0  0.11812  0.42096  0.01781  1.0000
  O   O12       1.0  0.88189  0.57906  0.98219  1.0000
