data_image0
_chemical_formula_structural       Cd2H26C26S4N6O4
_chemical_formula_sum              "Cd2 H26 C26 S4 N6 O4"
_cell_length_a       8.44045
_cell_length_b       9.08811
_cell_length_c       10.5304
_cell_angle_alpha    82.2405
_cell_angle_beta     73.0236
_cell_angle_gamma    79.8741

_space_group_name_H-M_alt    "P 1"
_space_group_IT_number       1

loop_
  _space_group_symop_operation_xyz
  'x, y, z'

loop_
  _atom_site_type_symbol
  _atom_site_label
  _atom_site_symmetry_multiplicity
  _atom_site_fract_x
  _atom_site_fract_y
  _atom_site_fract_z
  _atom_site_occupancy
  Cd  Cd1       1.0  0.42378  0.38285  0.27819  1.0000
  Cd  Cd2       1.0  0.57622  0.61715  0.72182  1.0000
  H   H1        1.0  0.83017  0.21655  0.41613  1.0000
  H   H2        1.0  0.16983  0.78345  0.58386  1.0000
  H   H3        1.0  0.80912  0.96453  0.36650  1.0000
  H   H4        1.0  0.19088  0.03547  0.63350  1.0000
  H   H5        1.0  0.06818  0.79815  0.25310  1.0000
  H   H6        1.0  0.93183  0.20185  0.74690  1.0000
  H   H7        1.0  0.36172  0.75633  0.14813  1.0000
  H   H8        1.0  0.63827  0.24367  0.85187  1.0000
  H   H9        1.0  0.65358  0.74398  0.00091  1.0000
  H   H10       1.0  0.34642  0.25602  0.99909  1.0000
  H   H11       1.0  0.83149  0.98243  0.07224  1.0000
  H   H12       1.0  0.16852  0.01757  0.92776  1.0000
  H   H13       1.0  0.92656  0.85305  0.94202  1.0000
  H   H14       1.0  0.07344  0.14695  0.05798  1.0000
  H   H15       1.0  0.77931  0.76286  0.24701  1.0000
  H   H16       1.0  0.22069  0.23714  0.75299  1.0000
  H   H17       1.0  0.87208  0.63137  0.11711  1.0000
  H   H18       1.0  0.12792  0.36863  0.88289  1.0000
  H   H19       1.0  0.93377  0.45117  0.27340  1.0000
  H   H20       1.0  0.06623  0.54883  0.72660  1.0000
  H   H21       1.0  0.02793  0.55915  0.35474  1.0000
  H   H22       1.0  0.97207  0.44085  0.64526  1.0000
  H   H23       1.0  0.87602  0.44346  0.45211  1.0000
  H   H24       1.0  0.12398  0.55654  0.54789  1.0000
  H   H25       1.0  0.53167  0.00329  0.17306  1.0000
  H   H26       1.0  0.46834  0.99671  0.82694  1.0000
  C   C1        1.0  0.23328  0.95775  0.24552  1.0000
  C   C2        1.0  0.76672  0.04225  0.75448  1.0000
  C   C3        1.0  0.24840  0.10359  0.27501  1.0000
  C   C4        1.0  0.75160  0.89642  0.72499  1.0000
  C   C5        1.0  0.09727  0.19587  0.33675  1.0000
  C   C6        1.0  0.90273  0.80413  0.66325  1.0000
  C   C7        1.0  0.94392  0.14522  0.36803  1.0000
  C   C8        1.0  0.05608  0.85478  0.63197  1.0000
  C   C9        1.0  0.93183  0.00106  0.33943  1.0000
  C   C10       1.0  0.06817  0.99894  0.66057  1.0000
  C   C11       1.0  0.07443  0.90897  0.27857  1.0000
  C   C12       1.0  0.92557  0.09104  0.72143  1.0000
  C   C13       1.0  0.37641  0.86353  0.17610  1.0000
  C   C14       1.0  0.62360  0.13647  0.82390  1.0000
  C   C15       1.0  0.67582  0.80986  0.07141  1.0000
  C   C16       1.0  0.32418  0.19014  0.92859  1.0000
  C   C17       1.0  0.83764  0.87279  0.03840  1.0000
  C   C18       1.0  0.16236  0.12721  0.96159  1.0000
  C   C19       1.0  0.80783  0.74273  0.14247  1.0000
  C   C20       1.0  0.19217  0.25727  0.85753  1.0000
  C   C21       1.0  0.97889  0.45392  0.36076  1.0000
  C   C22       1.0  0.02111  0.54608  0.63924  1.0000
  C   C23       1.0  0.54583  0.32931  0.56984  1.0000
  C   C24       1.0  0.45417  0.67069  0.43016  1.0000
  C   C25       1.0  0.70854  0.42516  0.98984  1.0000
  C   C26       1.0  0.29146  0.57485  0.01017  1.0000
  S   S1        1.0  0.47922  0.20971  0.50322  1.0000
  S   S2        1.0  0.52079  0.79028  0.49679  1.0000
  S   S3        1.0  0.74145  0.33632  0.12752  1.0000
  S   S4        1.0  0.25854  0.66368  0.87248  1.0000
  N   N1        1.0  0.52802  0.89929  0.14294  1.0000
  N   N2        1.0  0.47198  0.10070  0.85706  1.0000
  N   N3        1.0  0.60118  0.41152  0.61861  1.0000
  N   N4        1.0  0.39882  0.58849  0.38140  1.0000
  N   N5        1.0  0.68754  0.48688  0.88848  1.0000
  N   N6        1.0  0.31245  0.51312  0.11153  1.0000
  O   O1        1.0  0.39414  0.15082  0.24192  1.0000
  O   O2        1.0  0.60587  0.84919  0.75809  1.0000
  O   O3        1.0  0.11732  0.33583  0.36125  1.0000
  O   O4        1.0  0.88268  0.66417  0.63875  1.0000
