data_image0
_chemical_formula_structural       Hg4H24C32S8N16O4
_chemical_formula_sum              "Hg4 H24 C32 S8 N16 O4"
_cell_length_a       5.83387
_cell_length_b       13.2292
_cell_length_c       15.1182
_cell_angle_alpha    96.4865
_cell_angle_beta     89.9991
_cell_angle_gamma    90.0003

_space_group_name_H-M_alt    "P 1"
_space_group_IT_number       1

loop_
  _space_group_symop_operation_xyz
  'x, y, z'

loop_
  _atom_site_type_symbol
  _atom_site_label
  _atom_site_symmetry_multiplicity
  _atom_site_fract_x
  _atom_site_fract_y
  _atom_site_fract_z
  _atom_site_occupancy
  Hg  Hg1       1.0  0.83401  0.45886  0.12035  1.0000
  Hg  Hg2       1.0  0.33400  0.04114  0.87964  1.0000
  Hg  Hg3       1.0  0.16600  0.54114  0.87964  1.0000
  Hg  Hg4       1.0  0.66600  0.95886  0.12037  1.0000
  H   H1        1.0  0.00574  0.29345  0.24365  1.0000
  H   H2        1.0  0.50574  0.20655  0.75634  1.0000
  H   H3        1.0  0.99427  0.70655  0.75635  1.0000
  H   H4        1.0  0.49426  0.79345  0.24365  1.0000
  H   H5        1.0  0.89513  0.21496  0.38033  1.0000
  H   H6        1.0  0.39513  0.28504  0.61967  1.0000
  H   H7        1.0  0.10487  0.78503  0.61967  1.0000
  H   H8        1.0  0.60485  0.71496  0.38032  1.0000
  H   H9        1.0  0.55517  0.28573  0.46902  1.0000
  H   H10       1.0  0.05517  0.21427  0.53098  1.0000
  H   H11       1.0  0.44484  0.71427  0.53098  1.0000
  H   H12       1.0  0.94480  0.78572  0.46902  1.0000
  H   H13       1.0  0.47376  0.50202  0.27747  1.0000
  H   H14       1.0  0.97375  0.99798  0.72253  1.0000
  H   H15       1.0  0.52625  0.49798  0.72254  1.0000
  H   H16       1.0  0.02626  0.00201  0.27747  1.0000
  H   H17       1.0  0.03554  0.55264  0.44491  1.0000
  H   H18       1.0  0.53554  0.94736  0.55510  1.0000
  H   H19       1.0  0.96447  0.44736  0.55510  1.0000
  H   H20       1.0  0.46446  0.05264  0.44491  1.0000
  H   H21       1.0  0.23576  0.56177  0.35931  1.0000
  H   H22       1.0  0.73577  0.93823  0.64069  1.0000
  H   H23       1.0  0.76425  0.43822  0.64069  1.0000
  H   H24       1.0  0.26423  0.06178  0.35932  1.0000
  C   C1        1.0  0.35741  0.37177  0.06980  1.0000
  C   C2        1.0  0.85740  0.12822  0.93019  1.0000
  C   C3        1.0  0.64258  0.62824  0.93019  1.0000
  C   C4        1.0  0.14257  0.87177  0.06980  1.0000
  C   C5        1.0  0.12114  0.64223  0.20685  1.0000
  C   C6        1.0  0.62115  0.85777  0.79315  1.0000
  C   C7        1.0  0.87886  0.35778  0.79316  1.0000
  C   C8        1.0  0.37885  0.14222  0.20684  1.0000
  C   C9        1.0  0.86016  0.32192  0.28416  1.0000
  C   C10       1.0  0.36016  0.17808  0.71584  1.0000
  C   C11       1.0  0.13984  0.67808  0.71584  1.0000
  C   C12       1.0  0.63983  0.82192  0.28416  1.0000
  C   C13       1.0  0.79808  0.27894  0.36051  1.0000
  C   C14       1.0  0.29809  0.22106  0.63949  1.0000
  C   C15       1.0  0.20192  0.72106  0.63949  1.0000
  C   C16       1.0  0.70190  0.77894  0.36051  1.0000
  C   C17       1.0  0.60982  0.31814  0.40941  1.0000
  C   C18       1.0  0.10982  0.18186  0.59059  1.0000
  C   C19       1.0  0.39019  0.68185  0.59059  1.0000
  C   C20       1.0  0.89016  0.81814  0.40941  1.0000
  C   C21       1.0  0.48828  0.40008  0.38138  1.0000
  C   C22       1.0  0.98828  0.09992  0.61862  1.0000
  C   C23       1.0  0.51173  0.59992  0.61862  1.0000
  C   C24       1.0  0.01170  0.90008  0.38138  1.0000
  C   C25       1.0  0.56064  0.43875  0.30375  1.0000
  C   C26       1.0  0.06064  0.06125  0.69625  1.0000
  C   C27       1.0  0.43937  0.56125  0.69625  1.0000
  C   C28       1.0  0.93936  0.93875  0.30375  1.0000
  C   C29       1.0  0.28442  0.44119  0.43469  1.0000
  C   C30       1.0  0.78442  0.05881  0.56531  1.0000
  C   C31       1.0  0.71559  0.55881  0.56532  1.0000
  C   C32       1.0  0.21557  0.94119  0.43469  1.0000
  S   S1        1.0  0.58366  0.36115  0.00463  1.0000
  S   S2        1.0  0.08365  0.13885  0.99536  1.0000
  S   S3        1.0  0.41635  0.63886  0.99536  1.0000
  S   S4        1.0  0.91633  0.86114  0.00464  1.0000
  S   S5        1.0  0.91712  0.64402  0.13110  1.0000
  S   S6        1.0  0.41713  0.85598  0.86891  1.0000
  S   S7        1.0  0.08288  0.35598  0.86890  1.0000
  S   S8        1.0  0.58287  0.14402  0.13109  1.0000
  N   N1        1.0  0.19417  0.37651  0.11642  1.0000
  N   N2        1.0  0.69416  0.12348  0.88357  1.0000
  N   N3        1.0  0.80585  0.62349  0.88357  1.0000
  N   N4        1.0  0.30583  0.87652  0.11643  1.0000
  N   N5        1.0  0.26705  0.64288  0.26089  1.0000
  N   N6        1.0  0.76706  0.85711  0.73911  1.0000
  N   N7        1.0  0.73294  0.35713  0.73912  1.0000
  N   N8        1.0  0.23293  0.14288  0.26089  1.0000
  N   N9        1.0  0.74220  0.40010  0.25662  1.0000
  N   N10       1.0  0.24219  0.09990  0.74338  1.0000
  N   N11       1.0  0.25781  0.59990  0.74338  1.0000
  N   N12       1.0  0.75781  0.90011  0.25662  1.0000
  N   N13       1.0  0.18023  0.52404  0.41076  1.0000
  N   N14       1.0  0.68023  0.97596  0.58924  1.0000
  N   N15       1.0  0.81978  0.47596  0.58924  1.0000
  N   N16       1.0  0.31976  0.02404  0.41077  1.0000
  O   O1        1.0  0.21887  0.39668  0.49935  1.0000
  O   O2        1.0  0.71887  0.10332  0.50065  1.0000
  O   O3        1.0  0.78114  0.60332  0.50065  1.0000
  O   O4        1.0  0.28112  0.89668  0.49936  1.0000
