data_image0
_chemical_formula_structural       Cd2H26C42N2O8
_chemical_formula_sum              "Cd2 H26 C42 N2 O8"
_cell_length_a       7.91775
_cell_length_b       10.5187
_cell_length_c       11.5977
_cell_angle_alpha    111.631
_cell_angle_beta     95.8567
_cell_angle_gamma    105.668

_space_group_name_H-M_alt    "P 1"
_space_group_IT_number       1

loop_
  _space_group_symop_operation_xyz
  'x, y, z'

loop_
  _atom_site_type_symbol
  _atom_site_label
  _atom_site_symmetry_multiplicity
  _atom_site_fract_x
  _atom_site_fract_y
  _atom_site_fract_z
  _atom_site_occupancy
  Cd  Cd1       1.0  0.74158  0.98157  0.45986  1.0000
  Cd  Cd2       1.0  0.25842  0.01843  0.54014  1.0000
  H   H1        1.0  0.69979  0.24792  0.58850  1.0000
  H   H2        1.0  0.30021  0.75208  0.41150  1.0000
  H   H3        1.0  0.63058  0.47576  0.67206  1.0000
  H   H4        1.0  0.36942  0.52424  0.32794  1.0000
  H   H5        1.0  0.68751  0.64513  0.56310  1.0000
  H   H6        1.0  0.31249  0.35487  0.43690  1.0000
  H   H7        1.0  0.80382  0.58016  0.36800  1.0000
  H   H8        1.0  0.19618  0.41984  0.63200  1.0000
  H   H9        1.0  0.90548  0.40447  0.20143  1.0000
  H   H10       1.0  0.09452  0.59553  0.79857  1.0000
  H   H11       1.0  0.97815  0.17265  0.12554  1.0000
  H   H12       1.0  0.02185  0.82734  0.87446  1.0000
  H   H13       1.0  0.93112  0.02266  0.25058  1.0000
  H   H14       1.0  0.06888  0.97734  0.74942  1.0000
  H   H15       1.0  0.59038  0.54694  0.08617  1.0000
  H   H16       1.0  0.40962  0.45306  0.91383  1.0000
  H   H17       1.0  0.63248  0.36137  0.89186  1.0000
  H   H18       1.0  0.36752  0.63863  0.10814  1.0000
  H   H19       1.0  0.16168  0.74765  0.22702  1.0000
  H   H20       1.0  0.83832  0.25235  0.77298  1.0000
  H   H21       1.0  0.69453  0.77457  0.77541  1.0000
  H   H22       1.0  0.30547  0.22543  0.22459  1.0000
  H   H23       1.0  0.62436  0.77003  0.97936  1.0000
  H   H24       1.0  0.37564  0.22997  0.02064  1.0000
  H   H25       1.0  0.48996  0.12638  0.82763  1.0000
  H   H26       1.0  0.51004  0.87362  0.17237  1.0000
  C   C1        1.0  0.79228  0.28255  0.42944  1.0000
  C   C2        1.0  0.20772  0.71745  0.57056  1.0000
  C   C3        1.0  0.72359  0.32086  0.54072  1.0000
  C   C4        1.0  0.27641  0.67914  0.45928  1.0000
  C   C5        1.0  0.68556  0.44852  0.58706  1.0000
  C   C6        1.0  0.31444  0.55148  0.41294  1.0000
  C   C7        1.0  0.71506  0.54328  0.52515  1.0000
  C   C8        1.0  0.28494  0.45671  0.47484  1.0000
  C   C9        1.0  0.78032  0.50755  0.41602  1.0000
  C   C10       1.0  0.21968  0.49245  0.58397  1.0000
  C   C11       1.0  0.81972  0.37682  0.36493  1.0000
  C   C12       1.0  0.18028  0.62318  0.63507  1.0000
  C   C13       1.0  0.88589  0.33502  0.25273  1.0000
  C   C14       1.0  0.11410  0.66498  0.74727  1.0000
  C   C15       1.0  0.92612  0.20836  0.21106  1.0000
  C   C16       1.0  0.07387  0.79164  0.78894  1.0000
  C   C17       1.0  0.89782  0.12220  0.28044  1.0000
  C   C18       1.0  0.10218  0.87780  0.71956  1.0000
  C   C19       1.0  0.83887  0.77219  0.27637  1.0000
  C   C20       1.0  0.16113  0.22781  0.72363  1.0000
  C   C21       1.0  0.87321  0.65863  0.16663  1.0000
  C   C22       1.0  0.12679  0.34137  0.83337  1.0000
  C   C23       1.0  0.72394  0.54755  0.07160  1.0000
  C   C24       1.0  0.27606  0.45245  0.92840  1.0000
  C   C25       1.0  0.74788  0.44441  0.96596  1.0000
  C   C26       1.0  0.25212  0.55559  0.03404  1.0000
  C   C27       1.0  0.92408  0.44467  0.95147  1.0000
  C   C28       1.0  0.07592  0.55534  0.04853  1.0000
  C   C29       1.0  0.04648  0.66194  0.15479  1.0000
  C   C30       1.0  0.95352  0.33807  0.84521  1.0000
  C   C31       1.0  0.63756  0.95508  0.66946  1.0000
  C   C32       1.0  0.36244  0.04492  0.33054  1.0000
  C   C33       1.0  0.59728  0.95264  0.79130  1.0000
  C   C34       1.0  0.40272  0.04736  0.20870  1.0000
  C   C35       1.0  0.63554  0.85076  0.83387  1.0000
  C   C36       1.0  0.36446  0.14924  0.16613  1.0000
  C   C37       1.0  0.59669  0.84857  0.94623  1.0000
  C   C38       1.0  0.40331  0.15143  0.05377  1.0000
  C   C39       1.0  0.52164  0.05078  0.86278  1.0000
  C   C40       1.0  0.47836  0.94922  0.13722  1.0000
  C   C41       1.0  0.48128  0.05181  0.97884  1.0000
  C   C42       1.0  0.51872  0.94819  0.02116  1.0000
  N   N1        1.0  0.83088  0.15574  0.38395  1.0000
  N   N2        1.0  0.16912  0.84426  0.61605  1.0000
  O   O1        1.0  0.67646  0.77222  0.27283  1.0000
  O   O2        1.0  0.32354  0.22778  0.72717  1.0000
  O   O3        1.0  0.96858  0.86649  0.36830  1.0000
  O   O4        1.0  0.03142  0.13351  0.63171  1.0000
  O   O5        1.0  0.58868  0.04169  0.62907  1.0000
  O   O6        1.0  0.41132  0.95831  0.37094  1.0000
  O   O7        1.0  0.72167  0.87499  0.60867  1.0000
  O   O8        1.0  0.27833  0.12500  0.39133  1.0000
