data_image0
_chemical_formula_structural       Sm2Cu2H26C34S2N6O18
_chemical_formula_sum              "Sm2 Cu2 H26 C34 S2 N6 O18"
_cell_length_a       6.28699
_cell_length_b       12.1041
_cell_length_c       13.2081
_cell_angle_alpha    97.0975
_cell_angle_beta     93.4911
_cell_angle_gamma    94.2406

_space_group_name_H-M_alt    "P 1"
_space_group_IT_number       1

loop_
  _space_group_symop_operation_xyz
  'x, y, z'

loop_
  _atom_site_type_symbol
  _atom_site_label
  _atom_site_symmetry_multiplicity
  _atom_site_fract_x
  _atom_site_fract_y
  _atom_site_fract_z
  _atom_site_occupancy
  Sm  Sm1       1.0  0.67169  0.62167  0.42726  1.0000
  Sm  Sm2       1.0  0.32831  0.37833  0.57275  1.0000
  Cu  Cu1       1.0  0.74180  0.77068  0.05026  1.0000
  Cu  Cu2       1.0  0.25820  0.22932  0.94974  1.0000
  H   H1        1.0  0.49051  0.39077  0.33367  1.0000
  H   H2        1.0  0.50948  0.60923  0.66634  1.0000
  H   H3        1.0  0.72488  0.42094  0.30374  1.0000
  H   H4        1.0  0.27512  0.57906  0.69626  1.0000
  H   H5        1.0  0.78447  0.05992  0.34856  1.0000
  H   H6        1.0  0.21553  0.94008  0.65144  1.0000
  H   H7        1.0  0.78993  0.15308  0.53008  1.0000
  H   H8        1.0  0.21007  0.84692  0.46991  1.0000
  H   H9        1.0  0.72870  0.03268  0.66981  1.0000
  H   H10       1.0  0.27130  0.96732  0.33019  1.0000
  H   H11       1.0  0.44406  0.69101  0.18880  1.0000
  H   H12       1.0  0.55594  0.30899  0.81119  1.0000
  H   H13       1.0  0.10860  0.57331  0.17399  1.0000
  H   H14       1.0  0.89141  0.42669  0.82602  1.0000
  H   H15       1.0  0.16672  0.52130  0.84592  1.0000
  H   H16       1.0  0.83327  0.47869  0.15408  1.0000
  H   H17       1.0  0.49745  0.64499  0.87425  1.0000
  H   H18       1.0  0.50254  0.35500  0.12574  1.0000
  H   H19       1.0  0.07006  0.88863  0.18413  1.0000
  H   H20       1.0  0.92995  0.11137  0.81586  1.0000
  H   H21       1.0  0.40855  0.99996  0.17157  1.0000
  H   H22       1.0  0.59145  0.00005  0.82842  1.0000
  H   H23       1.0  0.32005  0.91209  0.84302  1.0000
  H   H24       1.0  0.67994  0.08791  0.15698  1.0000
  H   H25       1.0  0.97865  0.80864  0.86958  1.0000
  H   H26       1.0  0.02134  0.19137  0.13041  1.0000
  C   C1        1.0  0.73468  0.82816  0.28847  1.0000
  C   C2        1.0  0.26532  0.17184  0.71153  1.0000
  C   C3        1.0  0.73613  0.89510  0.39299  1.0000
  C   C4        1.0  0.26387  0.10490  0.60702  1.0000
  C   C5        1.0  0.76417  0.01149  0.41198  1.0000
  C   C6        1.0  0.23582  0.98851  0.58802  1.0000
  C   C7        1.0  0.76526  0.06260  0.51272  1.0000
  C   C8        1.0  0.23475  0.93740  0.48728  1.0000
  C   C9        1.0  0.73304  0.99631  0.59049  1.0000
  C   C10       1.0  0.26696  0.00369  0.40951  1.0000
  C   C11       1.0  0.70153  0.88052  0.56525  1.0000
  C   C12       1.0  0.29846  0.11948  0.43475  1.0000
  C   C13       1.0  0.65016  0.80024  0.64142  1.0000
  C   C14       1.0  0.34983  0.19976  0.35859  1.0000
  C   C15       1.0  0.37513  0.65359  0.11396  1.0000
  C   C16       1.0  0.62487  0.34642  0.88604  1.0000
  C   C17       1.0  0.18570  0.58584  0.10421  1.0000
  C   C18       1.0  0.81431  0.41416  0.89579  1.0000
  C   C19       1.0  0.10088  0.53624  0.00701  1.0000
  C   C20       1.0  0.89913  0.46376  0.99299  1.0000
  C   C21       1.0  0.21834  0.55842  0.92355  1.0000
  C   C22       1.0  0.78167  0.44158  0.07645  1.0000
  C   C23       1.0  0.40644  0.62749  0.93882  1.0000
  C   C24       1.0  0.59356  0.37251  0.06117  1.0000
  C   C25       1.0  0.13343  0.89546  0.11027  1.0000
  C   C26       1.0  0.86658  0.10454  0.88973  1.0000
  C   C27       1.0  0.32391  0.95716  0.10206  1.0000
  C   C28       1.0  0.67609  0.04284  0.89793  1.0000
  C   C29       1.0  0.39932  0.96644  0.00543  1.0000
  C   C30       1.0  0.60068  0.03357  0.99456  1.0000
  C   C31       1.0  0.27275  0.90983  0.92057  1.0000
  C   C32       1.0  0.72725  0.09017  0.07942  1.0000
  C   C33       1.0  0.08166  0.85047  0.93455  1.0000
  C   C34       1.0  0.91834  0.14953  0.06545  1.0000
  S   S1        1.0  0.16276  0.60634  0.41859  1.0000
  S   S2        1.0  0.83725  0.39366  0.58141  1.0000
  N   N1        1.0  0.70665  0.83246  0.46861  1.0000
  N   N2        1.0  0.29335  0.16753  0.53139  1.0000
  N   N3        1.0  0.48611  0.67551  0.03300  1.0000
  N   N4        1.0  0.51389  0.32449  0.96699  1.0000
  N   N5        1.0  0.00993  0.84286  0.02839  1.0000
  N   N6        1.0  0.99007  0.15715  0.97160  1.0000
  O   O1        1.0  0.04620  0.67497  0.49505  1.0000
  O   O2        1.0  0.95381  0.32503  0.50495  1.0000
  O   O3        1.0  0.99722  0.53927  0.34679  1.0000
  O   O4        1.0  0.00279  0.46074  0.65321  1.0000
  O   O5        1.0  0.74524  0.72256  0.28759  1.0000
  O   O6        1.0  0.25474  0.27743  0.71241  1.0000
  O   O7        1.0  0.72171  0.87837  0.21068  1.0000
  O   O8        1.0  0.27830  0.12162  0.78932  1.0000
  O   O9        1.0  0.62554  0.69600  0.60138  1.0000
  O   O10       1.0  0.37445  0.30400  0.39863  1.0000
  O   O11       1.0  0.63017  0.83572  0.73243  1.0000
  O   O12       1.0  0.36982  0.16428  0.26757  1.0000
  O   O13       1.0  0.31411  0.67673  0.36614  1.0000
  O   O14       1.0  0.68590  0.32327  0.63386  1.0000
  O   O15       1.0  0.30397  0.53226  0.47097  1.0000
  O   O16       1.0  0.69603  0.46774  0.52903  1.0000
  O   O17       1.0  0.58379  0.44964  0.30445  1.0000
  O   O18       1.0  0.41620  0.55036  0.69556  1.0000
