data_image0
_chemical_formula_structural       H32Pb2C52N8O8
_chemical_formula_sum              "H32 Pb2 C52 N8 O8"
_cell_length_a       9.59725
_cell_length_b       11.1635
_cell_length_c       11.9739
_cell_angle_alpha    62.1218
_cell_angle_beta     77.2889
_cell_angle_gamma    72.9152

_space_group_name_H-M_alt    "P 1"
_space_group_IT_number       1

loop_
  _space_group_symop_operation_xyz
  'x, y, z'

loop_
  _atom_site_type_symbol
  _atom_site_label
  _atom_site_symmetry_multiplicity
  _atom_site_fract_x
  _atom_site_fract_y
  _atom_site_fract_z
  _atom_site_occupancy
  H   H1        1.0  0.51057  0.87924  0.43793  1.0000
  H   H2        1.0  0.48943  0.12076  0.56207  1.0000
  H   H3        1.0  0.76207  0.77769  0.36708  1.0000
  H   H4        1.0  0.23793  0.22231  0.63292  1.0000
  H   H5        1.0  0.84656  0.87407  0.13291  1.0000
  H   H6        1.0  0.15344  0.12592  0.86709  1.0000
  H   H7        1.0  0.07569  0.38865  0.05834  1.0000
  H   H8        1.0  0.92432  0.61134  0.94166  1.0000
  H   H9        1.0  0.13773  0.50483  0.82113  1.0000
  H   H10       1.0  0.86227  0.49516  0.17887  1.0000
  H   H11       1.0  0.38601  0.41929  0.73006  1.0000
  H   H12       1.0  0.61398  0.58070  0.26994  1.0000
  H   H13       1.0  0.79336  0.04601  0.91219  1.0000
  H   H14       1.0  0.20664  0.95398  0.08781  1.0000
  H   H15       1.0  0.62601  0.24518  0.76503  1.0000
  H   H16       1.0  0.37399  0.75481  0.23498  1.0000
  H   H17       1.0  0.43042  0.72244  0.71787  1.0000
  H   H18       1.0  0.56958  0.27756  0.28213  1.0000
  H   H19       1.0  0.26147  0.57576  0.11173  1.0000
  H   H20       1.0  0.73852  0.42424  0.88827  1.0000
  H   H21       1.0  0.03177  0.75859  0.05299  1.0000
  H   H22       1.0  0.96822  0.24141  0.94700  1.0000
  H   H23       1.0  0.00480  0.92688  0.82460  1.0000
  H   H24       1.0  0.99520  0.07313  0.17539  1.0000
  H   H25       1.0  0.39870  0.36338  0.43148  1.0000
  H   H26       1.0  0.60130  0.63663  0.56852  1.0000
  H   H27       1.0  0.21288  0.74277  0.47308  1.0000
  H   H28       1.0  0.78712  0.25724  0.52692  1.0000
  H   H29       1.0  0.99582  0.78256  0.36888  1.0000
  H   H30       1.0  0.00418  0.21744  0.63111  1.0000
  H   H31       1.0  0.97542  0.60145  0.30546  1.0000
  H   H32       1.0  0.02458  0.39855  0.69453  1.0000
  Pb  Pb1       1.0  0.18512  0.09332  0.33826  1.0000
  Pb  Pb2       1.0  0.81488  0.90669  0.66174  1.0000
  C   C1        1.0  0.55066  0.91843  0.33751  1.0000
  C   C2        1.0  0.44935  0.08156  0.66249  1.0000
  C   C3        1.0  0.69203  0.86171  0.29659  1.0000
  C   C4        1.0  0.30797  0.13829  0.70341  1.0000
  C   C5        1.0  0.73776  0.91542  0.16849  1.0000
  C   C6        1.0  0.26224  0.08457  0.83151  1.0000
  C   C7        1.0  0.64351  0.02684  0.08151  1.0000
  C   C8        1.0  0.35650  0.97316  0.91849  1.0000
  C   C9        1.0  0.50270  0.07908  0.13127  1.0000
  C   C10       1.0  0.49731  0.92092  0.86873  1.0000
  C   C11       1.0  0.18103  0.35281  0.01383  1.0000
  C   C12       1.0  0.81897  0.64718  0.98617  1.0000
  C   C13       1.0  0.21669  0.41822  0.88175  1.0000
  C   C14       1.0  0.78331  0.58177  0.11825  1.0000
  C   C15       1.0  0.35300  0.36935  0.83168  1.0000
  C   C16       1.0  0.64699  0.63064  0.16832  1.0000
  C   C17       1.0  0.45133  0.25507  0.91270  1.0000
  C   C18       1.0  0.54867  0.74492  0.08730  1.0000
  C   C19       1.0  0.40487  0.19542  0.04487  1.0000
  C   C20       1.0  0.59513  0.80458  0.95513  1.0000
  C   C21       1.0  0.68501  0.08829  0.94785  1.0000
  C   C22       1.0  0.31499  0.91170  0.05215  1.0000
  C   C23       1.0  0.59281  0.19826  0.86655  1.0000
  C   C24       1.0  0.40719  0.80174  0.13345  1.0000
  C   C25       1.0  0.19465  0.93160  0.61963  1.0000
  C   C26       1.0  0.80535  0.06840  0.38037  1.0000
  C   C27       1.0  0.21363  0.83359  0.75664  1.0000
  C   C28       1.0  0.78636  0.16641  0.24336  1.0000
  C   C29       1.0  0.34211  0.73102  0.79035  1.0000
  C   C30       1.0  0.65789  0.26898  0.20965  1.0000
  C   C31       1.0  0.35897  0.63948  0.91813  1.0000
  C   C32       1.0  0.64102  0.36052  0.08187  1.0000
  C   C33       1.0  0.24635  0.64869  0.01322  1.0000
  C   C34       1.0  0.75364  0.35131  0.98679  1.0000
  C   C35       1.0  0.11906  0.75114  0.97931  1.0000
  C   C36       1.0  0.88093  0.24886  0.02069  1.0000
  C   C37       1.0  0.10293  0.84412  0.85202  1.0000
  C   C38       1.0  0.89707  0.15589  0.14798  1.0000
  C   C39       1.0  0.16927  0.35593  0.34099  1.0000
  C   C40       1.0  0.83074  0.64407  0.65901  1.0000
  C   C41       1.0  0.18494  0.47125  0.36583  1.0000
  C   C42       1.0  0.81506  0.52875  0.63417  1.0000
  C   C43       1.0  0.31021  0.45478  0.41689  1.0000
  C   C44       1.0  0.68979  0.54523  0.58311  1.0000
  C   C45       1.0  0.32045  0.55379  0.45374  1.0000
  C   C46       1.0  0.67955  0.44621  0.54626  1.0000
  C   C47       1.0  0.20471  0.66985  0.43933  1.0000
  C   C48       1.0  0.79528  0.33015  0.56067  1.0000
  C   C49       1.0  0.08286  0.69006  0.38163  1.0000
  C   C50       1.0  0.91714  0.30995  0.61837  1.0000
  C   C51       1.0  0.07241  0.59096  0.34559  1.0000
  C   C52       1.0  0.92759  0.40905  0.65441  1.0000
  N   N1        1.0  0.45848  0.02258  0.25758  1.0000
  N   N2        1.0  0.54152  0.97742  0.74241  1.0000
  N   N3        1.0  0.27137  0.24553  0.09263  1.0000
  N   N4        1.0  0.72863  0.75446  0.90738  1.0000
  N   N5        1.0  0.49274  0.53944  0.94178  1.0000
  N   N6        1.0  0.50725  0.46056  0.05822  1.0000
  N   N7        1.0  0.44222  0.54088  0.50996  1.0000
  N   N8        1.0  0.55778  0.45912  0.49005  1.0000
  O   O1        1.0  0.29550  0.91107  0.53647  1.0000
  O   O2        1.0  0.70451  0.08894  0.46353  1.0000
  O   O3        1.0  0.07980  0.02839  0.59203  1.0000
  O   O4        1.0  0.92021  0.97163  0.40797  1.0000
  O   O5        1.0  0.27227  0.24483  0.37670  1.0000
  O   O6        1.0  0.72774  0.75518  0.62329  1.0000
  O   O7        1.0  0.05912  0.36859  0.29166  1.0000
  O   O8        1.0  0.94089  0.63141  0.70833  1.0000
