data_image0
_chemical_formula_structural       Zn2H36C48N8O8
_chemical_formula_sum              "Zn2 H36 C48 N8 O8"
_cell_length_a       7.99606
_cell_length_b       8.4001
_cell_length_c       16.1902
_cell_angle_alpha    101.722
_cell_angle_beta     96.391
_cell_angle_gamma    93.1393

_space_group_name_H-M_alt    "P 1"
_space_group_IT_number       1

loop_
  _space_group_symop_operation_xyz
  'x, y, z'

loop_
  _atom_site_type_symbol
  _atom_site_label
  _atom_site_symmetry_multiplicity
  _atom_site_fract_x
  _atom_site_fract_y
  _atom_site_fract_z
  _atom_site_occupancy
  Zn  Zn1       1.0  0.25455  0.07785  0.74966  1.0000
  Zn  Zn2       1.0  0.74545  0.92215  0.25034  1.0000
  H   H1        1.0  0.46287  0.30404  0.54452  1.0000
  H   H2        1.0  0.53712  0.69597  0.45548  1.0000
  H   H3        1.0  0.68271  0.43212  0.47327  1.0000
  H   H4        1.0  0.31728  0.56788  0.52673  1.0000
  H   H5        1.0  0.06036  0.38876  0.67764  1.0000
  H   H6        1.0  0.93963  0.61123  0.32235  1.0000
  H   H7        1.0  0.84060  0.26396  0.74768  1.0000
  H   H8        1.0  0.15939  0.73605  0.25232  1.0000
  H   H9        1.0  0.98054  0.48867  0.82163  1.0000
  H   H10       1.0  0.01948  0.51134  0.17837  1.0000
  H   H11       1.0  0.89625  0.76716  0.87943  1.0000
  H   H12       1.0  0.10377  0.23285  0.12057  1.0000
  H   H13       1.0  0.26985  0.80880  0.09778  1.0000
  H   H14       1.0  0.73017  0.19120  0.90222  1.0000
  H   H15       1.0  0.35151  0.52960  0.03918  1.0000
  H   H16       1.0  0.64851  0.47040  0.96081  1.0000
  H   H17       1.0  0.22894  0.72914  0.67127  1.0000
  H   H18       1.0  0.77104  0.27085  0.32873  1.0000
  H   H19       1.0  0.35738  0.47848  0.69853  1.0000
  H   H20       1.0  0.64260  0.52150  0.30147  1.0000
  H   H21       1.0  0.54319  0.49294  0.83540  1.0000
  H   H22       1.0  0.45679  0.50706  0.16461  1.0000
  H   H23       1.0  0.58870  0.76033  0.94258  1.0000
  H   H24       1.0  0.41130  0.23968  0.05742  1.0000
  H   H25       1.0  0.45161  0.00500  0.90331  1.0000
  H   H26       1.0  0.54839  0.99501  0.09668  1.0000
  H   H27       1.0  0.94982  0.96502  0.80594  1.0000
  H   H28       1.0  0.05018  0.03498  0.19406  1.0000
  H   H29       1.0  0.65756  0.84439  0.74951  1.0000
  H   H30       1.0  0.34244  0.15560  0.25049  1.0000
  H   H31       1.0  0.56907  0.78568  0.59219  1.0000
  H   H32       1.0  0.43092  0.21432  0.40781  1.0000
  H   H33       1.0  0.78161  0.84352  0.49593  1.0000
  H   H34       1.0  0.21838  0.15649  0.50407  1.0000
  H   H35       1.0  0.07487  0.95601  0.56331  1.0000
  H   H36       1.0  0.92513  0.04400  0.43669  1.0000
  C   C1        1.0  0.59481  0.32181  0.57199  1.0000
  C   C2        1.0  0.40518  0.67820  0.42801  1.0000
  C   C3        1.0  0.71576  0.39265  0.53268  1.0000
  C   C4        1.0  0.28423  0.60735  0.46732  1.0000
  C   C5        1.0  0.88525  0.41597  0.57071  1.0000
  C   C6        1.0  0.11474  0.58402  0.42929  1.0000
  C   C7        1.0  0.92937  0.36986  0.64838  1.0000
  C   C8        1.0  0.07063  0.63013  0.35161  1.0000
  C   C9        1.0  0.80686  0.29978  0.68742  1.0000
  C   C10       1.0  0.19314  0.70022  0.31258  1.0000
  C   C11       1.0  0.63906  0.27369  0.64929  1.0000
  C   C12       1.0  0.36094  0.72631  0.35071  1.0000
  C   C13       1.0  0.50945  0.19849  0.69267  1.0000
  C   C14       1.0  0.49055  0.80151  0.30733  1.0000
  C   C15       1.0  0.04346  0.56001  0.88171  1.0000
  C   C16       1.0  0.95655  0.43998  0.11829  1.0000
  C   C17       1.0  0.99764  0.71483  0.91298  1.0000
  C   C18       1.0  0.00237  0.28518  0.08702  1.0000
  C   C19       1.0  0.08131  0.80655  0.99052  1.0000
  C   C20       1.0  0.91872  0.19344  0.00948  1.0000
  C   C21       1.0  0.20667  0.73844  0.03716  1.0000
  C   C22       1.0  0.79335  0.26156  0.96284  1.0000
  C   C23       1.0  0.25119  0.58201  0.00501  1.0000
  C   C24       1.0  0.74883  0.41799  0.99499  1.0000
  C   C25       1.0  0.17138  0.49189  0.92694  1.0000
  C   C26       1.0  0.82865  0.50811  0.07306  1.0000
  C   C27       1.0  0.22339  0.32592  0.89017  1.0000
  C   C28       1.0  0.77661  0.67407  0.10982  1.0000
  C   C29       1.0  0.31167  0.73167  0.72992  1.0000
  C   C30       1.0  0.68832  0.26832  0.27008  1.0000
  C   C31       1.0  0.38359  0.59234  0.74553  1.0000
  C   C32       1.0  0.61640  0.40765  0.25448  1.0000
  C   C33       1.0  0.48630  0.60165  0.82219  1.0000
  C   C34       1.0  0.51369  0.39834  0.17781  1.0000
  C   C35       1.0  0.51253  0.75005  0.88107  1.0000
  C   C36       1.0  0.48746  0.24996  0.11893  1.0000
  C   C37       1.0  0.43678  0.88497  0.86075  1.0000
  C   C38       1.0  0.56321  0.11503  0.13925  1.0000
  C   C39       1.0  0.90854  0.93282  0.73753  1.0000
  C   C40       1.0  0.09146  0.06717  0.26247  1.0000
  C   C41       1.0  0.74538  0.86671  0.70576  1.0000
  C   C42       1.0  0.25461  0.13328  0.29423  1.0000
  C   C43       1.0  0.69752  0.83408  0.61819  1.0000
  C   C44       1.0  0.30247  0.16592  0.38181  1.0000
  C   C45       1.0  0.81490  0.86625  0.56477  1.0000
  C   C46       1.0  0.18510  0.13376  0.43523  1.0000
  C   C47       1.0  0.97678  0.92985  0.60149  1.0000
  C   C48       1.0  0.02321  0.07015  0.39851  1.0000
  N   N1        1.0  0.01888  0.48739  0.53713  1.0000
  N   N2        1.0  0.98111  0.51261  0.46287  1.0000
  N   N3        1.0  0.04422  0.96631  0.02562  1.0000
  N   N4        1.0  0.95580  0.03369  0.97438  1.0000
  N   N5        1.0  0.02225  0.96327  0.68610  1.0000
  N   N6        1.0  0.97775  0.03673  0.31390  1.0000
  N   N7        1.0  0.33906  0.87578  0.78611  1.0000
  N   N8        1.0  0.66094  0.12421  0.21389  1.0000
  O   O1        1.0  0.36406  0.14324  0.64951  1.0000
  O   O2        1.0  0.63594  0.85676  0.35050  1.0000
  O   O3        1.0  0.54328  0.19240  0.76985  1.0000
  O   O4        1.0  0.45672  0.80759  0.23015  1.0000
  O   O5        1.0  0.16172  0.26984  0.81074  1.0000
  O   O6        1.0  0.83827  0.73016  0.18925  1.0000
  O   O7        1.0  0.31944  0.25238  0.93288  1.0000
  O   O8        1.0  0.68058  0.74762  0.06712  1.0000
