data_image0
_chemical_formula_structural       CoH22C24N4O6
_chemical_formula_sum              "Co1 H22 C24 N4 O6"
_cell_length_a       5.51368
_cell_length_b       9.68504
_cell_length_c       13.2437
_cell_angle_alpha    87.794
_cell_angle_beta     94.4196
_cell_angle_gamma    102.233

_space_group_name_H-M_alt    "P 1"
_space_group_IT_number       1

loop_
  _space_group_symop_operation_xyz
  'x, y, z'

loop_
  _atom_site_type_symbol
  _atom_site_label
  _atom_site_symmetry_multiplicity
  _atom_site_fract_x
  _atom_site_fract_y
  _atom_site_fract_z
  _atom_site_occupancy
  Co  Co1       1.0  0.99999  0.00000  0.00000  1.0000
  H   H1        1.0  0.99771  0.11233  0.30040  1.0000
  H   H2        1.0  0.00230  0.88767  0.69960  1.0000
  H   H3        1.0  0.85736  0.25674  0.42715  1.0000
  H   H4        1.0  0.14267  0.74326  0.57285  1.0000
  H   H5        1.0  0.50211  0.58646  0.38803  1.0000
  H   H6        1.0  0.49791  0.41353  0.61198  1.0000
  H   H7        1.0  0.64849  0.43897  0.26240  1.0000
  H   H8        1.0  0.35154  0.56104  0.73760  1.0000
  H   H9        1.0  0.38084  0.87630  0.10726  1.0000
  H   H10       1.0  0.61914  0.12371  0.89275  1.0000
  H   H11       1.0  0.40284  0.64187  0.18621  1.0000
  H   H12       1.0  0.59715  0.35815  0.81380  1.0000
  H   H13       1.0  0.02357  0.44222  0.16925  1.0000
  H   H14       1.0  0.97645  0.55779  0.83074  1.0000
  H   H15       1.0  0.64204  0.49035  0.07407  1.0000
  H   H16       1.0  0.35797  0.50965  0.92592  1.0000
  H   H17       1.0  0.64404  0.73450  0.00168  1.0000
  H   H18       1.0  0.35597  0.26551  0.99831  1.0000
  H   H19       1.0  0.29722  0.89740  0.89184  1.0000
  H   H20       1.0  0.70273  0.10258  0.10815  1.0000
  H   H21       1.0  0.07228  0.96270  0.84385  1.0000
  H   H22       1.0  0.92768  0.03730  0.15616  1.0000
  C   C1        1.0  0.39753  0.18782  0.18608  1.0000
  C   C2        1.0  0.60246  0.81217  0.81391  1.0000
  C   C3        1.0  0.32789  0.26886  0.27022  1.0000
  C   C4        1.0  0.67212  0.73113  0.72978  1.0000
  C   C5        1.0  0.10804  0.21647  0.31923  1.0000
  C   C6        1.0  0.89195  0.78353  0.68078  1.0000
  C   C7        1.0  0.02892  0.29570  0.39004  1.0000
  C   C8        1.0  0.97112  0.70429  0.60997  1.0000
  C   C9        1.0  0.16945  0.43153  0.41265  1.0000
  C   C10       1.0  0.83057  0.56846  0.58735  1.0000
  C   C11       1.0  0.39455  0.48213  0.36747  1.0000
  C   C12       1.0  0.60545  0.51785  0.63254  1.0000
  C   C13       1.0  0.47426  0.40066  0.29772  1.0000
  C   C14       1.0  0.52576  0.59933  0.70228  1.0000
  C   C15       1.0  0.22135  0.78822  0.10136  1.0000
  C   C16       1.0  0.77864  0.21179  0.89864  1.0000
  C   C17       1.0  0.23123  0.65671  0.14526  1.0000
  C   C18       1.0  0.76875  0.34330  0.85473  1.0000
  C   C19       1.0  0.02222  0.54699  0.13625  1.0000
  C   C20       1.0  0.97777  0.45301  0.86374  1.0000
  C   C21       1.0  0.80811  0.57396  0.08311  1.0000
  C   C22       1.0  0.19188  0.42606  0.91689  1.0000
  C   C23       1.0  0.80832  0.70845  0.04248  1.0000
  C   C24       1.0  0.19167  0.29156  0.95751  1.0000
  N   N1        1.0  0.09913  0.52521  0.47831  1.0000
  N   N2        1.0  0.90090  0.47477  0.52169  1.0000
  N   N3        1.0  0.01198  0.81438  0.05140  1.0000
  N   N4        1.0  0.98800  0.18563  0.94861  1.0000
  O   O1        1.0  0.24045  0.07760  0.15607  1.0000
  O   O2        1.0  0.75952  0.92238  0.84394  1.0000
  O   O3        1.0  0.60448  0.23395  0.14734  1.0000
  O   O4        1.0  0.39552  0.76605  0.85266  1.0000
  O   O5        1.0  0.22202  0.98547  0.89324  1.0000
  O   O6        1.0  0.77797  0.01453  0.10676  1.0000
