data_image0
_chemical_formula_structural       Ba4H48C34O32
_chemical_formula_sum              "Ba4 H48 C34 O32"
_cell_length_a       10.9531
_cell_length_b       12.4824
_cell_length_c       12.4823
_cell_angle_alpha    61.3849
_cell_angle_beta     64.5998
_cell_angle_gamma    64.5999

_space_group_name_H-M_alt    "P 1"
_space_group_IT_number       1

loop_
  _space_group_symop_operation_xyz
  'x, y, z'

loop_
  _atom_site_type_symbol
  _atom_site_label
  _atom_site_symmetry_multiplicity
  _atom_site_fract_x
  _atom_site_fract_y
  _atom_site_fract_z
  _atom_site_occupancy
  Ba  Ba1       1.0  0.43636  0.90741  0.72098  1.0000
  Ba  Ba2       1.0  0.06364  0.27902  0.09260  1.0000
  Ba  Ba3       1.0  0.56364  0.09259  0.27902  1.0000
  Ba  Ba4       1.0  0.93636  0.72098  0.90741  1.0000
  H   H1        1.0  0.94702  0.24819  0.57017  1.0000
  H   H2        1.0  0.55297  0.42983  0.75181  1.0000
  H   H3        1.0  0.05297  0.75181  0.42983  1.0000
  H   H4        1.0  0.44703  0.57017  0.24819  1.0000
  H   H5        1.0  0.77796  0.59671  0.64160  1.0000
  H   H6        1.0  0.72204  0.35840  0.40329  1.0000
  H   H7        1.0  0.22204  0.40329  0.35840  1.0000
  H   H8        1.0  0.27796  0.64160  0.59671  1.0000
  H   H9        1.0  0.10483  0.29186  0.80365  1.0000
  H   H10       1.0  0.39517  0.19635  0.70814  1.0000
  H   H11       1.0  0.89516  0.70814  0.19635  1.0000
  H   H12       1.0  0.60483  0.80366  0.29186  1.0000
  H   H13       1.0  0.81018  0.48611  0.42111  1.0000
  H   H14       1.0  0.68982  0.57889  0.51389  1.0000
  H   H15       1.0  0.18982  0.51389  0.57889  1.0000
  H   H16       1.0  0.31018  0.42111  0.48611  1.0000
  H   H17       1.0  0.27649  0.74071  0.02247  1.0000
  H   H18       1.0  0.22351  0.97752  0.25929  1.0000
  H   H19       1.0  0.72351  0.25929  0.97753  1.0000
  H   H20       1.0  0.77649  0.02247  0.74071  1.0000
  H   H21       1.0  0.25406  0.69698  0.93365  1.0000
  H   H22       1.0  0.24594  0.06635  0.30302  1.0000
  H   H23       1.0  0.74594  0.30302  0.06635  1.0000
  H   H24       1.0  0.75406  0.93365  0.69698  1.0000
  H   H25       1.0  0.78051  0.89023  0.51740  1.0000
  H   H26       1.0  0.71949  0.48260  0.10976  1.0000
  H   H27       1.0  0.21949  0.10976  0.48260  1.0000
  H   H28       1.0  0.28051  0.51740  0.89024  1.0000
  H   H29       1.0  0.79868  0.78105  0.65008  1.0000
  H   H30       1.0  0.70132  0.34992  0.21895  1.0000
  H   H31       1.0  0.20132  0.21895  0.34992  1.0000
  H   H32       1.0  0.29868  0.65008  0.78105  1.0000
  H   H33       1.0  0.40264  0.04676  0.90989  1.0000
  H   H34       1.0  0.09736  0.09011  0.95324  1.0000
  H   H35       1.0  0.59736  0.95324  0.09011  1.0000
  H   H36       1.0  0.90264  0.90988  0.04676  1.0000
  H   H37       1.0  0.55825  0.95978  0.87763  1.0000
  H   H38       1.0  0.94175  0.12238  0.04021  1.0000
  H   H39       1.0  0.44175  0.04022  0.12238  1.0000
  H   H40       1.0  0.05824  0.87762  0.95979  1.0000
  H   H41       1.0  0.58779  0.67360  0.94852  1.0000
  H   H42       1.0  0.91221  0.05148  0.32640  1.0000
  H   H43       1.0  0.41221  0.32640  0.05148  1.0000
  H   H44       1.0  0.08779  0.94852  0.67360  1.0000
  H   H45       1.0  0.68657  0.66198  0.82168  1.0000
  H   H46       1.0  0.81343  0.17831  0.33802  1.0000
  H   H47       1.0  0.31343  0.33802  0.17832  1.0000
  H   H48       1.0  0.18657  0.82169  0.66198  1.0000
  C   C1        1.0  0.13518  0.12529  0.71188  1.0000
  C   C2        1.0  0.36482  0.28811  0.87472  1.0000
  C   C3        1.0  0.86482  0.87471  0.28812  1.0000
  C   C4        1.0  0.63518  0.71189  0.12528  1.0000
  C   C5        1.0  0.03436  0.25616  0.69051  1.0000
  C   C6        1.0  0.46564  0.30949  0.74384  1.0000
  C   C7        1.0  0.96564  0.74384  0.30949  1.0000
  C   C8        1.0  0.53436  0.69051  0.25616  1.0000
  C   C9        1.0  0.94387  0.30594  0.61543  1.0000
  C   C10       1.0  0.55613  0.38456  0.69407  1.0000
  C   C11       1.0  0.05613  0.69406  0.38457  1.0000
  C   C12       1.0  0.44388  0.61544  0.30593  1.0000
  C   C13       1.0  0.84961  0.42822  0.59836  1.0000
  C   C14       1.0  0.65038  0.40164  0.57178  1.0000
  C   C15       1.0  0.15038  0.57178  0.40164  1.0000
  C   C16       1.0  0.34962  0.59836  0.42822  1.0000
  C   C17       1.0  0.84924  0.50071  0.65593  1.0000
  C   C18       1.0  0.65077  0.34407  0.49929  1.0000
  C   C19       1.0  0.15077  0.49929  0.34407  1.0000
  C   C20       1.0  0.34923  0.65594  0.50071  1.0000
  C   C21       1.0  0.94025  0.45238  0.73063  1.0000
  C   C22       1.0  0.55976  0.26937  0.54762  1.0000
  C   C23       1.0  0.05975  0.54762  0.26937  1.0000
  C   C24       1.0  0.44024  0.73063  0.45238  1.0000
  C   C25       1.0  0.03203  0.33001  0.74770  1.0000
  C   C26       1.0  0.46797  0.25230  0.66999  1.0000
  C   C27       1.0  0.96797  0.66999  0.25230  1.0000
  C   C28       1.0  0.53203  0.74770  0.33001  1.0000
  C   C29       1.0  0.75000  0.48061  0.51939  1.0000
  C   C30       1.0  0.25000  0.51940  0.48061  1.0000
  C   C31       1.0  0.94235  0.53022  0.79084  1.0000
  C   C32       1.0  0.55765  0.20916  0.46978  1.0000
  C   C33       1.0  0.05765  0.46978  0.20916  1.0000
  C   C34       1.0  0.44235  0.79084  0.53022  1.0000
  O   O1        1.0  0.19194  0.07746  0.80075  1.0000
  O   O2        1.0  0.30806  0.19924  0.92254  1.0000
  O   O3        1.0  0.80806  0.92254  0.19925  1.0000
  O   O4        1.0  0.69194  0.80076  0.07746  1.0000
  O   O5        1.0  0.16344  0.06695  0.63916  1.0000
  O   O6        1.0  0.33656  0.36084  0.93305  1.0000
  O   O7        1.0  0.83655  0.93305  0.36084  1.0000
  O   O8        1.0  0.66345  0.63916  0.06695  1.0000
  O   O9        1.0  0.01276  0.47896  0.87015  1.0000
  O   O10       1.0  0.48723  0.12985  0.52104  1.0000
  O   O11       1.0  0.98725  0.52104  0.12985  1.0000
  O   O12       1.0  0.51277  0.87015  0.47896  1.0000
  O   O13       1.0  0.87194  0.64854  0.75949  1.0000
  O   O14       1.0  0.62806  0.24052  0.35146  1.0000
  O   O15       1.0  0.12806  0.35146  0.24052  1.0000
  O   O16       1.0  0.37194  0.75948  0.64854  1.0000
  O   O17       1.0  0.24978  0.77271  0.94535  1.0000
  O   O18       1.0  0.25022  0.05465  0.22730  1.0000
  O   O19       1.0  0.75022  0.22729  0.05465  1.0000
  O   O20       1.0  0.74978  0.94535  0.77271  1.0000
  O   O21       1.0  0.73905  0.86732  0.61167  1.0000
  O   O22       1.0  0.76095  0.38834  0.13268  1.0000
  O   O23       1.0  0.26095  0.13268  0.38834  1.0000
  O   O24       1.0  0.23905  0.61167  0.86732  1.0000
  O   O25       1.0  0.45901  0.96307  0.90083  1.0000
  O   O26       1.0  0.04099  0.09917  0.03693  1.0000
  O   O27       1.0  0.54099  0.03693  0.09917  1.0000
  O   O28       1.0  0.95901  0.90083  0.96307  1.0000
  O   O29       1.0  0.58514  0.68143  0.86682  1.0000
  O   O30       1.0  0.91485  0.13318  0.31857  1.0000
  O   O31       1.0  0.41486  0.31857  0.13318  1.0000
  O   O32       1.0  0.08514  0.86682  0.68143  1.0000
