data_image0
_chemical_formula_structural       Mn2H12C16N8O8
_chemical_formula_sum              "Mn2 H12 C16 N8 O8"
_cell_length_a       7.48834
_cell_length_b       7.70776
_cell_length_c       9.10929
_cell_angle_alpha    108.441
_cell_angle_beta     93.4661
_cell_angle_gamma    106.069

_space_group_name_H-M_alt    "P 1"
_space_group_IT_number       1

loop_
  _space_group_symop_operation_xyz
  'x, y, z'

loop_
  _atom_site_type_symbol
  _atom_site_label
  _atom_site_symmetry_multiplicity
  _atom_site_fract_x
  _atom_site_fract_y
  _atom_site_fract_z
  _atom_site_occupancy
  Mn  Mn1       1.0  0.50000  1.00000  0.50000  1.0000
  Mn  Mn2       1.0  0.50000  0.50000  0.50000  1.0000
  H   H1        1.0  0.89557  0.17117  0.15425  1.0000
  H   H2        1.0  0.10442  0.82883  0.84575  1.0000
  H   H3        1.0  0.05907  0.37134  0.30627  1.0000
  H   H4        1.0  0.94093  0.62866  0.69373  1.0000
  H   H5        1.0  0.74496  0.21358  0.96424  1.0000
  H   H6        1.0  0.25505  0.78643  0.03576  1.0000
  H   H7        1.0  0.99253  0.67833  0.37718  1.0000
  H   H8        1.0  0.00747  0.32167  0.62282  1.0000
  H   H9        1.0  0.88392  0.90220  0.27221  1.0000
  H   H10       1.0  0.11607  0.09780  0.72779  1.0000
  H   H11       1.0  0.71342  0.77432  0.99407  1.0000
  H   H12       1.0  0.28658  0.22568  0.00593  1.0000
  C   C1        1.0  0.78854  0.28347  0.37293  1.0000
  C   C2        1.0  0.21146  0.71654  0.62707  1.0000
  C   C3        1.0  0.91204  0.30837  0.24669  1.0000
  C   C4        1.0  0.08795  0.69163  0.75331  1.0000
  C   C5        1.0  0.77141  0.36691  0.02673  1.0000
  C   C6        1.0  0.22859  0.63309  0.97327  1.0000
  C   C7        1.0  0.91105  0.63012  0.26118  1.0000
  C   C8        1.0  0.08894  0.36988  0.73882  1.0000
  C   C9        1.0  0.85415  0.75219  0.19949  1.0000
  C   C10       1.0  0.14585  0.24781  0.80051  1.0000
  C   C11       1.0  0.75571  0.68027  0.04704  1.0000
  C   C12       1.0  0.24429  0.31973  0.95295  1.0000
  C   C13       1.0  0.71671  0.48529  0.95817  1.0000
  C   C14       1.0  0.28329  0.51471  0.04183  1.0000
  C   C15       1.0  0.61949  0.39956  0.78950  1.0000
  C   C16       1.0  0.38052  0.60044  0.21050  1.0000
  N   N1        1.0  0.86702  0.44012  0.17490  1.0000
  N   N2        1.0  0.13298  0.55988  0.82511  1.0000
  N   N3        1.0  0.35171  0.17809  0.41452  1.0000
  N   N4        1.0  0.64829  0.82190  0.58547  1.0000
  N   N5        1.0  0.27458  0.10836  0.27974  1.0000
  N   N6        1.0  0.72542  0.89164  0.72027  1.0000
  N   N7        1.0  0.19897  0.04150  0.14925  1.0000
  N   N8        1.0  0.80103  0.95849  0.85074  1.0000
  O   O1        1.0  0.74143  0.11955  0.38661  1.0000
  O   O2        1.0  0.25856  0.88045  0.61339  1.0000
  O   O3        1.0  0.75372  0.43333  0.45579  1.0000
  O   O4        1.0  0.24628  0.56667  0.54421  1.0000
  O   O5        1.0  0.61396  0.22752  0.71659  1.0000
  O   O6        1.0  0.38604  0.77247  0.28341  1.0000
  O   O7        1.0  0.55529  0.50767  0.73627  1.0000
  O   O8        1.0  0.44472  0.49233  0.26373  1.0000
