data_image0
_chemical_formula_structural       Ag2H34C48N4O8
_chemical_formula_sum              "Ag2 H34 C48 N4 O8"
_cell_length_a       10.1727
_cell_length_b       10.2147
_cell_length_c       10.7174
_cell_angle_alpha    62.6031
_cell_angle_beta     79.6605
_cell_angle_gamma    79.0799

_space_group_name_H-M_alt    "P 1"
_space_group_IT_number       1

loop_
  _space_group_symop_operation_xyz
  'x, y, z'

loop_
  _atom_site_type_symbol
  _atom_site_label
  _atom_site_symmetry_multiplicity
  _atom_site_fract_x
  _atom_site_fract_y
  _atom_site_fract_z
  _atom_site_occupancy
  Ag  Ag1       1.0  0.07561  0.12428  0.94258  1.0000
  Ag  Ag2       1.0  0.92439  0.87572  0.05742  1.0000
  H   H1        1.0  0.62395  0.00550  0.04714  1.0000
  H   H2        1.0  0.37605  0.99451  0.95286  1.0000
  H   H3        1.0  0.39475  0.94583  0.17815  1.0000
  H   H4        1.0  0.60525  0.05417  0.82185  1.0000
  H   H5        1.0  0.38040  0.74719  0.42617  1.0000
  H   H6        1.0  0.61960  0.25281  0.57383  1.0000
  H   H7        1.0  0.81477  0.69428  0.39311  1.0000
  H   H8        1.0  0.18523  0.30573  0.60689  1.0000
  H   H9        1.0  0.39824  0.67743  0.64684  1.0000
  H   H10       1.0  0.60176  0.32257  0.35316  1.0000
  H   H11       1.0  0.39629  0.49192  0.89518  1.0000
  H   H12       1.0  0.60371  0.50808  0.10481  1.0000
  H   H13       1.0  0.59396  0.29543  0.97629  1.0000
  H   H14       1.0  0.40604  0.70457  0.02371  1.0000
  H   H15       1.0  0.78993  0.47065  0.55307  1.0000
  H   H16       1.0  0.21007  0.52935  0.44693  1.0000
  H   H17       1.0  0.22736  0.33114  0.98337  1.0000
  H   H18       1.0  0.77264  0.66886  0.01663  1.0000
  H   H19       1.0  0.34118  0.35037  0.16414  1.0000
  H   H20       1.0  0.65882  0.64963  0.83587  1.0000
  H   H21       1.0  0.32071  0.15665  0.41135  1.0000
  H   H22       1.0  0.67929  0.84335  0.58865  1.0000
  H   H23       1.0  0.07110  0.95009  0.28330  1.0000
  H   H24       1.0  0.92890  0.04991  0.71670  1.0000
  H   H25       1.0  0.24793  0.03840  0.60876  1.0000
  H   H26       1.0  0.75207  0.96160  0.39124  1.0000
  H   H27       1.0  0.21776  0.84940  0.85462  1.0000
  H   H28       1.0  0.78224  0.15060  0.14538  1.0000
  H   H29       1.0  0.11863  0.61948  0.91251  1.0000
  H   H30       1.0  0.88137  0.38052  0.08749  1.0000
  H   H31       1.0  0.09495  0.76400  0.47126  1.0000
  H   H32       1.0  0.90505  0.23600  0.52874  1.0000
  H   H33       1.0  0.97695  0.42591  0.66288  1.0000
  H   H34       1.0  0.02305  0.57409  0.33712  1.0000
  C   C1        1.0  0.71891  0.74433  0.34896  1.0000
  C   C2        1.0  0.28109  0.25568  0.65104  1.0000
  C   C3        1.0  0.59653  0.70223  0.43184  1.0000
  C   C4        1.0  0.40348  0.29777  0.56816  1.0000
  C   C5        1.0  0.59405  0.58823  0.58046  1.0000
  C   C6        1.0  0.40595  0.41177  0.41954  1.0000
  C   C7        1.0  0.70354  0.47761  0.62733  1.0000
  C   C8        1.0  0.29646  0.52238  0.37267  1.0000
  C   C9        1.0  0.70354  0.37314  0.76908  1.0000
  C   C10       1.0  0.29646  0.62686  0.23092  1.0000
  C   C11       1.0  0.82291  0.25806  0.81818  1.0000
  C   C12       1.0  0.17709  0.74193  0.18182  1.0000
  C   C13       1.0  0.61181  0.91947  0.15560  1.0000
  C   C14       1.0  0.38819  0.08053  0.84440  1.0000
  C   C15       1.0  0.48572  0.88663  0.22917  1.0000
  C   C16       1.0  0.51428  0.11337  0.77083  1.0000
  C   C17       1.0  0.47805  0.77654  0.36792  1.0000
  C   C18       1.0  0.52195  0.22346  0.63208  1.0000
  C   C19       1.0  0.48333  0.59086  0.67928  1.0000
  C   C20       1.0  0.51667  0.40914  0.32072  1.0000
  C   C21       1.0  0.48257  0.48597  0.82051  1.0000
  C   C22       1.0  0.51743  0.51403  0.17949  1.0000
  C   C23       1.0  0.59211  0.37716  0.86608  1.0000
  C   C24       1.0  0.40789  0.62285  0.13392  1.0000
  C   C25       1.0  0.22114  0.24895  0.09366  1.0000
  C   C26       1.0  0.77886  0.75105  0.90634  1.0000
  C   C27       1.0  0.28318  0.25899  0.19412  1.0000
  C   C28       1.0  0.71682  0.74101  0.80588  1.0000
  C   C29       1.0  0.26999  0.15055  0.33327  1.0000
  C   C30       1.0  0.73001  0.84945  0.66673  1.0000
  C   C31       1.0  0.19291  0.03445  0.37167  1.0000
  C   C32       1.0  0.80709  0.96555  0.62833  1.0000
  C   C33       1.0  0.13343  0.03515  0.26261  1.0000
  C   C34       1.0  0.86657  0.96485  0.73739  1.0000
  C   C35       1.0  0.17494  0.91754  0.51904  1.0000
  C   C36       1.0  0.82506  0.08245  0.48096  1.0000
  C   C37       1.0  0.20999  0.93657  0.63036  1.0000
  C   C38       1.0  0.79001  0.06343  0.36965  1.0000
  C   C39       1.0  0.19308  0.82991  0.77024  1.0000
  C   C40       1.0  0.80692  0.17008  0.22976  1.0000
  C   C41       1.0  0.13887  0.70102  0.80322  1.0000
  C   C42       1.0  0.86113  0.29898  0.19678  1.0000
  C   C43       1.0  0.10401  0.67886  0.69419  1.0000
  C   C44       1.0  0.89599  0.32114  0.30580  1.0000
  C   C45       1.0  0.12241  0.78574  0.55323  1.0000
  C   C46       1.0  0.87759  0.21426  0.44678  1.0000
  C   C47       1.0  0.04577  0.53973  0.73372  1.0000
  C   C48       1.0  0.95422  0.46027  0.26628  1.0000
  N   N1        1.0  0.72677  0.84874  0.21435  1.0000
  N   N2        1.0  0.27323  0.15127  0.78565  1.0000
  N   N3        1.0  0.14799  0.13815  0.12755  1.0000
  N   N4        1.0  0.85201  0.86185  0.87245  1.0000
  O   O1        1.0  0.81138  0.15381  0.94185  1.0000
  O   O2        1.0  0.18861  0.84619  0.05815  1.0000
  O   O3        1.0  0.93166  0.27209  0.73297  1.0000
  O   O4        1.0  0.06834  0.72791  0.26703  1.0000
  O   O5        1.0  0.02864  0.44517  0.85761  1.0000
  O   O6        1.0  0.97133  0.55484  0.14239  1.0000
  O   O7        1.0  0.01485  0.52668  0.62419  1.0000
  O   O8        1.0  0.98515  0.47332  0.37580  1.0000
