data_image0
_chemical_formula_structural       Cu4H32C60N20
_chemical_formula_sum              "Cu4 H32 C60 N20"
_cell_length_a       7.98673
_cell_length_b       8.8192
_cell_length_c       17.8057
_cell_angle_alpha    103.542
_cell_angle_beta     90.0004
_cell_angle_gamma    89.9998

_space_group_name_H-M_alt    "P 1"
_space_group_IT_number       1

loop_
  _space_group_symop_operation_xyz
  'x, y, z'

loop_
  _atom_site_type_symbol
  _atom_site_label
  _atom_site_symmetry_multiplicity
  _atom_site_fract_x
  _atom_site_fract_y
  _atom_site_fract_z
  _atom_site_occupancy
  Cu  Cu1       1.0  0.97090  0.16026  0.81010  1.0000
  Cu  Cu2       1.0  0.47090  0.33973  0.68990  1.0000
  Cu  Cu3       1.0  0.02909  0.83974  0.18990  1.0000
  Cu  Cu4       1.0  0.52909  0.66027  0.31010  1.0000
  H   H1        1.0  0.91150  0.44723  0.95348  1.0000
  H   H2        1.0  0.41149  0.05276  0.54652  1.0000
  H   H3        1.0  0.08851  0.55277  0.04652  1.0000
  H   H4        1.0  0.58851  0.94724  0.45348  1.0000
  H   H5        1.0  0.80492  0.47928  0.08866  1.0000
  H   H6        1.0  0.30492  0.02072  0.41134  1.0000
  H   H7        1.0  0.19508  0.52072  0.91134  1.0000
  H   H8        1.0  0.69509  0.97928  0.58866  1.0000
  H   H9        1.0  0.69634  0.24203  0.12902  1.0000
  H   H10       1.0  0.19634  0.25796  0.37098  1.0000
  H   H11       1.0  0.30366  0.75797  0.87098  1.0000
  H   H12       1.0  0.80366  0.74204  0.62902  1.0000
  H   H13       1.0  0.45682  0.83751  0.16603  1.0000
  H   H14       1.0  0.95682  0.66249  0.33397  1.0000
  H   H15       1.0  0.54319  0.16249  0.83397  1.0000
  H   H16       1.0  0.04318  0.33751  0.66603  1.0000
  H   H17       1.0  0.49802  0.57860  0.07259  1.0000
  H   H18       1.0  0.99803  0.92139  0.42741  1.0000
  H   H19       1.0  0.50198  0.42139  0.92741  1.0000
  H   H20       1.0  0.00198  0.07860  0.57259  1.0000
  H   H21       1.0  0.76299  0.54376  0.86306  1.0000
  H   H22       1.0  0.26299  0.95623  0.63694  1.0000
  H   H23       1.0  0.23701  0.45624  0.13694  1.0000
  H   H24       1.0  0.73701  0.04377  0.36306  1.0000
  H   H25       1.0  0.91093  0.54987  0.73973  1.0000
  H   H26       1.0  0.41093  0.95012  0.76027  1.0000
  H   H27       1.0  0.08906  0.45013  0.26027  1.0000
  H   H28       1.0  0.58907  0.04988  0.23972  1.0000
  H   H29       1.0  0.01357  0.80391  0.71893  1.0000
  H   H30       1.0  0.51357  0.69608  0.78107  1.0000
  H   H31       1.0  0.98642  0.19609  0.28107  1.0000
  H   H32       1.0  0.48643  0.30392  0.21893  1.0000
  C   C1        1.0  0.87249  0.34644  0.97451  1.0000
  C   C2        1.0  0.37249  0.15356  0.52549  1.0000
  C   C3        1.0  0.12751  0.65356  0.02549  1.0000
  C   C4        1.0  0.62752  0.84644  0.47451  1.0000
  C   C5        1.0  0.80915  0.36417  0.04946  1.0000
  C   C6        1.0  0.30915  0.13582  0.45054  1.0000
  C   C7        1.0  0.19084  0.63583  0.95054  1.0000
  C   C8        1.0  0.69085  0.86417  0.54946  1.0000
  C   C9        1.0  0.74964  0.23403  0.07201  1.0000
  C   C10       1.0  0.24964  0.26597  0.42799  1.0000
  C   C11       1.0  0.25035  0.76597  0.92799  1.0000
  C   C12       1.0  0.75036  0.73403  0.57201  1.0000
  C   C13       1.0  0.75693  0.08807  0.01932  1.0000
  C   C14       1.0  0.25694  0.41193  0.48068  1.0000
  C   C15       1.0  0.24307  0.91193  0.98068  1.0000
  C   C16       1.0  0.74307  0.58807  0.51932  1.0000
  C   C17       1.0  0.68552  0.94765  0.03551  1.0000
  C   C18       1.0  0.18552  0.55234  0.46449  1.0000
  C   C19       1.0  0.31448  0.05234  0.96449  1.0000
  C   C20       1.0  0.81448  0.44766  0.53551  1.0000
  C   C21       1.0  0.53054  0.82977  0.11362  1.0000
  C   C22       1.0  0.03054  0.67023  0.38638  1.0000
  C   C23       1.0  0.46946  0.17023  0.88638  1.0000
  C   C24       1.0  0.96946  0.32977  0.61362  1.0000
  C   C25       1.0  0.55269  0.68464  0.06122  1.0000
  C   C26       1.0  0.05269  0.81536  0.43878  1.0000
  C   C27       1.0  0.44731  0.31536  0.93878  1.0000
  C   C28       1.0  0.94731  0.18464  0.56122  1.0000
  C   C29       1.0  0.70320  0.80239  0.98142  1.0000
  C   C30       1.0  0.20320  0.69760  0.51858  1.0000
  C   C31       1.0  0.29680  0.19760  0.01858  1.0000
  C   C32       1.0  0.79680  0.30240  0.48142  1.0000
  C   C33       1.0  0.78958  0.79317  0.90860  1.0000
  C   C34       1.0  0.28958  0.70682  0.59140  1.0000
  C   C35       1.0  0.21042  0.20683  0.09140  1.0000
  C   C36       1.0  0.71041  0.29318  0.40860  1.0000
  C   C37       1.0  0.81129  0.65261  0.85280  1.0000
  C   C38       1.0  0.31129  0.84738  0.64720  1.0000
  C   C39       1.0  0.18871  0.34739  0.14720  1.0000
  C   C40       1.0  0.68871  0.15262  0.35280  1.0000
  C   C41       1.0  0.89325  0.65568  0.78454  1.0000
  C   C42       1.0  0.39324  0.84431  0.71546  1.0000
  C   C43       1.0  0.10676  0.34432  0.21546  1.0000
  C   C44       1.0  0.60676  0.15569  0.28454  1.0000
  C   C45       1.0  0.94947  0.79836  0.77230  1.0000
  C   C46       1.0  0.44947  0.70163  0.72770  1.0000
  C   C47       1.0  0.05052  0.20164  0.22770  1.0000
  C   C48       1.0  0.55053  0.29837  0.27230  1.0000
  C   C49       1.0  0.85135  0.93164  0.89160  1.0000
  C   C50       1.0  0.35135  0.56835  0.60840  1.0000
  C   C51       1.0  0.14864  0.06836  0.10840  1.0000
  C   C52       1.0  0.64865  0.43165  0.39160  1.0000
  C   C53       1.0  0.83266  0.07971  0.94677  1.0000
  C   C54       1.0  0.33266  0.42029  0.55323  1.0000
  C   C55       1.0  0.16734  0.92029  0.05323  1.0000
  C   C56       1.0  0.66734  0.57971  0.44677  1.0000
  C   C57       1.0  0.16804  0.23785  0.77728  1.0000
  C   C58       1.0  0.66803  0.26216  0.72272  1.0000
  C   C59       1.0  0.83197  0.76216  0.22272  1.0000
  C   C60       1.0  0.33196  0.73786  0.27728  1.0000
  N   N1        1.0  0.88784  0.20818  0.92444  1.0000
  N   N2        1.0  0.38784  0.29182  0.57556  1.0000
  N   N3        1.0  0.11216  0.79182  0.07556  1.0000
  N   N4        1.0  0.61216  0.70818  0.42444  1.0000
  N   N5        1.0  0.92862  0.93445  0.82385  1.0000
  N   N6        1.0  0.42862  0.56555  0.67615  1.0000
  N   N7        1.0  0.07138  0.06555  0.17615  1.0000
  N   N8        1.0  0.57138  0.43445  0.32385  1.0000
  N   N9        1.0  0.59647  0.96000  0.10119  1.0000
  N   N10       1.0  0.09646  0.53999  0.39880  1.0000
  N   N11       1.0  0.40354  0.04000  0.89881  1.0000
  N   N12       1.0  0.90353  0.46000  0.60120  1.0000
  N   N13       1.0  0.63710  0.67070  0.99564  1.0000
  N   N14       1.0  0.13710  0.82930  0.50436  1.0000
  N   N15       1.0  0.36290  0.32930  0.00436  1.0000
  N   N16       1.0  0.86290  0.17070  0.49564  1.0000
  N   N17       1.0  0.27987  0.29068  0.74830  1.0000
  N   N18       1.0  0.77988  0.20932  0.75171  1.0000
  N   N19       1.0  0.72012  0.70932  0.25171  1.0000
  N   N20       1.0  0.22012  0.79069  0.24829  1.0000
