data_image0
_chemical_formula_structural       Cu4H32C44S4N12
_chemical_formula_sum              "Cu4 H32 C44 S4 N12"
_cell_length_a       7.67939
_cell_length_b       11.5602
_cell_length_c       12.2499
_cell_angle_alpha    90.0002
_cell_angle_beta     90.0001
_cell_angle_gamma    90

_space_group_name_H-M_alt    "P 1"
_space_group_IT_number       1

loop_
  _space_group_symop_operation_xyz
  'x, y, z'

loop_
  _atom_site_type_symbol
  _atom_site_label
  _atom_site_symmetry_multiplicity
  _atom_site_fract_x
  _atom_site_fract_y
  _atom_site_fract_z
  _atom_site_occupancy
  Cu  Cu1       1.0  0.75709  0.94137  0.25000  1.0000
  Cu  Cu2       1.0  0.74291  0.44137  0.75000  1.0000
  Cu  Cu3       1.0  0.24290  0.05863  0.75000  1.0000
  Cu  Cu4       1.0  0.25710  0.55862  0.25000  1.0000
  H   H1        1.0  0.73752  0.98109  0.50188  1.0000
  H   H2        1.0  0.76248  0.48109  0.49812  1.0000
  H   H3        1.0  0.26248  0.01891  0.00188  1.0000
  H   H4        1.0  0.23752  0.51891  0.99812  1.0000
  H   H5        1.0  0.26248  0.01891  0.49812  1.0000
  H   H6        1.0  0.23752  0.51891  0.50188  1.0000
  H   H7        1.0  0.73752  0.98109  0.99812  1.0000
  H   H8        1.0  0.76248  0.48109  0.00188  1.0000
  H   H9        1.0  0.50480  0.33489  0.33440  1.0000
  H   H10       1.0  0.99519  0.83489  0.66559  1.0000
  H   H11       1.0  0.49520  0.66512  0.83440  1.0000
  H   H12       1.0  0.00480  0.16511  0.16560  1.0000
  H   H13       1.0  0.49520  0.66512  0.66560  1.0000
  H   H14       1.0  0.00480  0.16511  0.33440  1.0000
  H   H15       1.0  0.50480  0.33488  0.16560  1.0000
  H   H16       1.0  0.99520  0.83489  0.83441  1.0000
  H   H17       1.0  0.62862  0.13922  0.62299  1.0000
  H   H18       1.0  0.87138  0.63921  0.37701  1.0000
  H   H19       1.0  0.37138  0.86079  0.12299  1.0000
  H   H20       1.0  0.12862  0.36078  0.87701  1.0000
  H   H21       1.0  0.37138  0.86079  0.37701  1.0000
  H   H22       1.0  0.12862  0.36078  0.62299  1.0000
  H   H23       1.0  0.62862  0.13922  0.87701  1.0000
  H   H24       1.0  0.87138  0.63921  0.12299  1.0000
  H   H25       1.0  0.51323  0.32074  0.53714  1.0000
  H   H26       1.0  0.98676  0.82074  0.46285  1.0000
  H   H27       1.0  0.48677  0.67926  0.03715  1.0000
  H   H28       1.0  0.01324  0.17925  0.96285  1.0000
  H   H29       1.0  0.48677  0.67926  0.46285  1.0000
  H   H30       1.0  0.01323  0.17926  0.53715  1.0000
  H   H31       1.0  0.51323  0.32074  0.96285  1.0000
  H   H32       1.0  0.98676  0.82074  0.03715  1.0000
  C   C1        1.0  0.68391  0.06059  0.46762  1.0000
  C   C2        1.0  0.81609  0.56058  0.53238  1.0000
  C   C3        1.0  0.31609  0.93942  0.96762  1.0000
  C   C4        1.0  0.18391  0.43941  0.03238  1.0000
  C   C5        1.0  0.31609  0.93942  0.53238  1.0000
  C   C6        1.0  0.18391  0.43941  0.46762  1.0000
  C   C7        1.0  0.68391  0.06058  0.03238  1.0000
  C   C8        1.0  0.81609  0.56058  0.96762  1.0000
  C   C9        1.0  0.11134  0.80414  0.25000  1.0000
  C   C10       1.0  0.38865  0.30415  0.75000  1.0000
  C   C11       1.0  0.88866  0.19586  0.75000  1.0000
  C   C12       1.0  0.61134  0.69586  0.25000  1.0000
  C   C13       1.0  0.61420  0.16387  0.31041  1.0000
  C   C14       1.0  0.88580  0.66387  0.68959  1.0000
  C   C15       1.0  0.38580  0.83614  0.81041  1.0000
  C   C16       1.0  0.11420  0.33613  0.18959  1.0000
  C   C17       1.0  0.38580  0.83613  0.68959  1.0000
  C   C18       1.0  0.11420  0.33613  0.31041  1.0000
  C   C19       1.0  0.61420  0.16387  0.18959  1.0000
  C   C20       1.0  0.88580  0.66387  0.81041  1.0000
  C   C21       1.0  0.55440  0.25698  0.37327  1.0000
  C   C22       1.0  0.94561  0.75698  0.62672  1.0000
  C   C23       1.0  0.44561  0.74302  0.87328  1.0000
  C   C24       1.0  0.05439  0.24302  0.12672  1.0000
  C   C25       1.0  0.44561  0.74302  0.62672  1.0000
  C   C26       1.0  0.05439  0.24302  0.37328  1.0000
  C   C27       1.0  0.55439  0.25698  0.12672  1.0000
  C   C28       1.0  0.94561  0.75698  0.87328  1.0000
  C   C29       1.0  0.62440  0.14905  0.53485  1.0000
  C   C30       1.0  0.87560  0.64904  0.46515  1.0000
  C   C31       1.0  0.37560  0.85096  0.03485  1.0000
  C   C32       1.0  0.12440  0.35095  0.96515  1.0000
  C   C33       1.0  0.37560  0.85096  0.46515  1.0000
  C   C34       1.0  0.12440  0.35095  0.53485  1.0000
  C   C35       1.0  0.62440  0.14905  0.96515  1.0000
  C   C36       1.0  0.87560  0.64904  0.03485  1.0000
  C   C37       1.0  0.55931  0.24945  0.48663  1.0000
  C   C38       1.0  0.94069  0.74945  0.51337  1.0000
  C   C39       1.0  0.44069  0.75055  0.98663  1.0000
  C   C40       1.0  0.05931  0.25055  0.01337  1.0000
  C   C41       1.0  0.44069  0.75055  0.51337  1.0000
  C   C42       1.0  0.05931  0.25055  0.48663  1.0000
  C   C43       1.0  0.55931  0.24945  0.01337  1.0000
  C   C44       1.0  0.94069  0.74945  0.98663  1.0000
  S   S1        1.0  0.05539  0.94079  0.25000  1.0000
  S   S2        1.0  0.44461  0.44080  0.75000  1.0000
  S   S3        1.0  0.94461  0.05920  0.75000  1.0000
  S   S4        1.0  0.55539  0.55920  0.25000  1.0000
  N   N1        1.0  0.67879  0.06679  0.35806  1.0000
  N   N2        1.0  0.82122  0.56679  0.64194  1.0000
  N   N3        1.0  0.32122  0.93322  0.85806  1.0000
  N   N4        1.0  0.17879  0.43321  0.14194  1.0000
  N   N5        1.0  0.32121  0.93322  0.64194  1.0000
  N   N6        1.0  0.17879  0.43321  0.35806  1.0000
  N   N7        1.0  0.67879  0.06679  0.14194  1.0000
  N   N8        1.0  0.82122  0.56678  0.85806  1.0000
  N   N9        1.0  0.15777  0.70657  0.25000  1.0000
  N   N10       1.0  0.34222  0.20658  0.75000  1.0000
  N   N11       1.0  0.84223  0.29342  0.75000  1.0000
  N   N12       1.0  0.65777  0.79342  0.25000  1.0000
