data_image0
_chemical_formula_structural       Mn2H32C32S2N8O8
_chemical_formula_sum              "Mn2 H32 C32 S2 N8 O8"
_cell_length_a       8.52856
_cell_length_b       8.79197
_cell_length_c       12.9084
_cell_angle_alpha    103.746
_cell_angle_beta     90.384
_cell_angle_gamma    117.704

_space_group_name_H-M_alt    "P 1"
_space_group_IT_number       1

loop_
  _space_group_symop_operation_xyz
  'x, y, z'

loop_
  _atom_site_type_symbol
  _atom_site_label
  _atom_site_symmetry_multiplicity
  _atom_site_fract_x
  _atom_site_fract_y
  _atom_site_fract_z
  _atom_site_occupancy
  Mn  Mn1       1.0  0.00000  0.00000  1.00000  1.0000
  Mn  Mn2       1.0  0.00000  0.00000  0.50000  1.0000
  H   H1        1.0  0.44373  0.01891  0.08287  1.0000
  H   H2        1.0  0.43380  0.98226  0.42744  1.0000
  H   H3        1.0  0.55626  0.98109  0.91713  1.0000
  H   H4        1.0  0.56620  0.01775  0.57256  1.0000
  H   H5        1.0  0.60415  0.63367  0.98654  1.0000
  H   H6        1.0  0.97552  0.36342  0.51016  1.0000
  H   H7        1.0  0.39585  0.36633  0.01346  1.0000
  H   H8        1.0  0.02448  0.63658  0.48984  1.0000
  H   H9        1.0  0.43394  0.36855  0.79249  1.0000
  H   H10       1.0  0.05761  0.61934  0.70725  1.0000
  H   H11       1.0  0.56606  0.63145  0.20751  1.0000
  H   H12       1.0  0.94239  0.38066  0.29275  1.0000
  H   H13       1.0  0.90311  0.79419  0.73666  1.0000
  H   H14       1.0  0.10563  0.18326  0.75682  1.0000
  H   H15       1.0  0.09689  0.20580  0.26334  1.0000
  H   H16       1.0  0.89437  0.81674  0.24318  1.0000
  H   H17       1.0  0.53477  0.32594  0.60376  1.0000
  H   H18       1.0  0.20944  0.65325  0.89421  1.0000
  H   H19       1.0  0.46523  0.67406  0.39624  1.0000
  H   H20       1.0  0.79056  0.34674  0.10579  1.0000
  H   H21       1.0  0.74299  0.49658  0.58499  1.0000
  H   H22       1.0  0.22972  0.46788  0.91127  1.0000
  H   H23       1.0  0.25701  0.50343  0.41501  1.0000
  H   H24       1.0  0.77028  0.53211  0.08874  1.0000
  H   H25       1.0  0.59917  0.68805  0.57784  1.0000
  H   H26       1.0  0.90391  0.30784  0.92687  1.0000
  H   H27       1.0  0.40083  0.31195  0.42216  1.0000
  H   H28       1.0  0.09609  0.69216  0.07314  1.0000
  H   H29       1.0  0.39165  0.51389  0.59327  1.0000
  H   H30       1.0  0.87971  0.48763  0.90541  1.0000
  H   H31       1.0  0.60835  0.48611  0.40673  1.0000
  H   H32       1.0  0.12029  0.51237  0.09460  1.0000
  C   C1        1.0  0.48129  0.01659  0.16289  1.0000
  C   C2        1.0  0.47219  0.98607  0.34777  1.0000
  C   C3        1.0  0.51870  0.98340  0.83711  1.0000
  C   C4        1.0  0.52781  0.01393  0.65222  1.0000
  C   C5        1.0  0.63132  0.01303  0.20048  1.0000
  C   C6        1.0  0.62786  0.99766  0.30962  1.0000
  C   C7        1.0  0.36868  0.98697  0.79951  1.0000
  C   C8        1.0  0.37214  0.00234  0.69038  1.0000
  C   C9        1.0  0.76130  0.00521  0.12614  1.0000
  C   C10       1.0  0.77001  0.00512  0.37969  1.0000
  C   C11       1.0  0.23869  0.99478  0.87386  1.0000
  C   C12       1.0  0.22999  0.99488  0.62031  1.0000
  C   C13       1.0  0.64077  0.62685  0.90600  1.0000
  C   C14       1.0  0.01425  0.36420  0.59038  1.0000
  C   C15       1.0  0.35923  0.37315  0.09400  1.0000
  C   C16       1.0  0.98575  0.63581  0.40962  1.0000
  C   C17       1.0  0.55507  0.49620  0.81111  1.0000
  C   C18       1.0  0.05285  0.49035  0.68704  1.0000
  C   C19       1.0  0.44493  0.50380  0.18889  1.0000
  C   C20       1.0  0.94715  0.50965  0.31296  1.0000
  C   C21       1.0  0.80144  0.71585  0.78068  1.0000
  C   C22       1.0  0.08145  0.26476  0.71416  1.0000
  C   C23       1.0  0.19856  0.28415  0.21932  1.0000
  C   C24       1.0  0.91855  0.73524  0.28584  1.0000
  C   C25       1.0  0.61654  0.47051  0.61681  1.0000
  C   C26       1.0  0.13818  0.50782  0.88076  1.0000
  C   C27       1.0  0.38346  0.52949  0.38319  1.0000
  C   C28       1.0  0.86182  0.49218  0.11925  1.0000
  C   C29       1.0  0.51836  0.54225  0.56059  1.0000
  C   C30       1.0  0.97375  0.45338  0.93967  1.0000
  C   C31       1.0  0.48164  0.45775  0.43941  1.0000
  C   C32       1.0  0.02625  0.54661  0.06033  1.0000
  S   S1        1.0  0.33661  0.99708  0.25553  1.0000
  S   S2        1.0  0.66339  0.00292  0.74447  1.0000
  N   N1        1.0  0.79501  0.76286  0.88618  1.0000
  N   N2        1.0  0.03367  0.22387  0.60798  1.0000
  N   N3        1.0  0.20499  0.23714  0.11382  1.0000
  N   N4        1.0  0.96633  0.77613  0.39202  1.0000
  N   N5        1.0  0.65907  0.55482  0.73280  1.0000
  N   N6        1.0  0.09460  0.42516  0.76434  1.0000
  N   N7        1.0  0.34093  0.44518  0.26720  1.0000
  N   N8        1.0  0.90540  0.57484  0.23566  1.0000
  O   O1        1.0  0.84034  0.91442  0.13478  1.0000
  O   O2        1.0  0.93749  0.09202  0.37160  1.0000
  O   O3        1.0  0.15967  0.08559  0.86522  1.0000
  O   O4        1.0  0.06251  0.90798  0.62840  1.0000
  O   O5        1.0  0.78845  0.08527  0.05207  1.0000
  O   O6        1.0  0.73146  0.92546  0.45515  1.0000
  O   O7        1.0  0.21155  0.91473  0.94793  1.0000
  O   O8        1.0  0.26853  0.07454  0.54485  1.0000
