data_image0
_chemical_formula_structural       Sr2H30C16N2O24
_chemical_formula_sum              "Sr2 H30 C16 N2 O24"
_cell_length_a       7.60225
_cell_length_b       10.1504
_cell_length_c       10.7423
_cell_angle_alpha    114.084
_cell_angle_beta     105.566
_cell_angle_gamma    100.456

_space_group_name_H-M_alt    "P 1"
_space_group_IT_number       1

loop_
  _space_group_symop_operation_xyz
  'x, y, z'

loop_
  _atom_site_type_symbol
  _atom_site_label
  _atom_site_symmetry_multiplicity
  _atom_site_fract_x
  _atom_site_fract_y
  _atom_site_fract_z
  _atom_site_occupancy
  Sr  Sr1       1.0  0.94064  0.67227  0.32710  1.0000
  Sr  Sr2       1.0  0.11358  0.34541  0.67287  1.0000
  H   H1        1.0  0.83719  0.98075  0.51846  1.0000
  H   H2        1.0  0.81566  0.46067  0.47953  1.0000
  H   H3        1.0  0.80532  0.85396  0.56316  1.0000
  H   H4        1.0  0.74198  0.28961  0.43688  1.0000
  H   H5        1.0  0.57755  0.74317  0.19092  1.0000
  H   H6        1.0  0.88656  0.55215  0.80868  1.0000
  H   H7        1.0  0.56505  0.59874  0.04782  1.0000
  H   H8        1.0  0.01694  0.55085  0.95196  1.0000
  H   H9        1.0  0.21176  0.70130  0.16729  1.0000
  H   H10       1.0  0.54484  0.53388  0.83257  1.0000
  H   H11       1.0  0.18053  0.52723  0.12666  1.0000
  H   H12       1.0  0.55418  0.40037  0.87327  1.0000
  H   H13       1.0  0.26961  0.59060  0.44804  1.0000
  H   H14       1.0  0.32155  0.14229  0.55187  1.0000
  H   H15       1.0  0.22358  0.45312  0.28939  1.0000
  H   H16       1.0  0.43441  0.16361  0.71059  1.0000
  H   H17       1.0  0.61417  0.58641  0.44217  1.0000
  H   H18       1.0  0.67182  0.14386  0.55798  1.0000
  H   H19       1.0  0.52646  0.47340  0.27049  1.0000
  H   H20       1.0  0.75616  0.20331  0.72974  1.0000
  H   H21       1.0  0.40679  0.83582  0.43138  1.0000
  H   H22       1.0  0.47508  0.40424  0.56823  1.0000
  H   H23       1.0  0.31444  0.92294  0.53813  1.0000
  H   H24       1.0  0.27595  0.38499  0.46166  1.0000
  H   H25       1.0  0.63581  0.99223  0.76396  1.0000
  H   H26       1.0  0.37147  0.22833  0.23642  1.0000
  H   H27       1.0  0.85593  0.77957  0.02062  1.0000
  H   H28       1.0  0.33513  0.75916  0.97956  1.0000
  H   H29       1.0  0.87731  0.24670  0.23890  1.0000
  H   H30       1.0  0.13896  0.00834  0.76147  1.0000
  C   C1        1.0  0.75718  0.13631  0.00125  1.0000
  C   C2        1.0  0.25591  0.13537  0.99910  1.0000
  C   C3        1.0  0.70484  0.00095  0.87100  1.0000
  C   C4        1.0  0.33360  0.13010  0.12934  1.0000
  C   C5        1.0  0.73917  0.87385  0.88018  1.0000
  C   C6        1.0  0.35875  0.99378  0.12007  1.0000
  C   C7        1.0  0.82621  0.87799  0.01457  1.0000
  C   C8        1.0  0.31148  0.86364  0.98567  1.0000
  C   C9        1.0  0.87554  0.01310  0.14504  1.0000
  C   C10       1.0  0.23065  0.86844  0.85525  1.0000
  C   C11       1.0  0.83929  0.14082  0.13748  1.0000
  C   C12       1.0  0.20204  0.00377  0.86288  1.0000
  C   C13       1.0  0.72253  0.27667  0.99667  1.0000
  C   C14       1.0  0.22602  0.28034  0.00363  1.0000
  C   C15       1.0  0.96473  0.01716  0.29251  1.0000
  C   C16       1.0  0.17258  0.72519  0.70766  1.0000
  N   N1        1.0  0.68124  0.73415  0.74404  1.0000
  N   N2        1.0  0.43684  0.99000  0.25610  1.0000
  O   O1        1.0  0.76511  0.39392  0.11617  1.0000
  O   O2        1.0  0.14937  0.27816  0.88410  1.0000
  O   O3        1.0  0.80920  0.87036  0.48051  1.0000
  O   O4        1.0  0.82861  0.38925  0.51849  1.0000
  O   O5        1.0  0.65103  0.68021  0.14969  1.0000
  O   O6        1.0  0.00129  0.53054  0.85016  1.0000
  O   O7        1.0  0.11160  0.60507  0.13439  1.0000
  O   O8        1.0  0.47762  0.47056  0.86550  1.0000
  O   O9        1.0  0.18761  0.48438  0.37681  1.0000
  O   O10       1.0  0.31099  0.10736  0.62317  1.0000
  O   O11       1.0  0.64685  0.52417  0.36007  1.0000
  O   O12       1.0  0.78700  0.16455  0.64024  1.0000
  O   O13       1.0  0.32301  0.81918  0.48223  1.0000
  O   O14       1.0  0.34036  0.33691  0.51739  1.0000
  O   O15       1.0  0.64960  0.26588  0.86777  1.0000
  O   O16       1.0  0.28193  0.39845  0.13252  1.0000
  O   O17       1.0  0.94121  0.11496  0.40141  1.0000
  O   O18       1.0  0.04054  0.71449  0.59876  1.0000
  O   O19       1.0  0.05173  0.92197  0.29254  1.0000
  O   O20       1.0  0.25929  0.62980  0.70761  1.0000
  O   O21       1.0  0.67824  0.61155  0.74719  1.0000
  O   O22       1.0  0.43088  0.86422  0.25278  1.0000
  O   O23       1.0  0.63516  0.73893  0.62633  1.0000
  O   O24       1.0  0.50826  0.11233  0.37395  1.0000
