data_image0
_chemical_formula_structural       Cu4H20C24N16
_chemical_formula_sum              "Cu4 H20 C24 N16"
_cell_length_a       5.25007
_cell_length_b       10.8445
_cell_length_c       12.2461
_cell_angle_alpha    97.2195
_cell_angle_beta     102.379
_cell_angle_gamma    103.895

_space_group_name_H-M_alt    "P 1"
_space_group_IT_number       1

loop_
  _space_group_symop_operation_xyz
  'x, y, z'

loop_
  _atom_site_type_symbol
  _atom_site_label
  _atom_site_symmetry_multiplicity
  _atom_site_fract_x
  _atom_site_fract_y
  _atom_site_fract_z
  _atom_site_occupancy
  Cu  Cu1       1.0  0.87764  0.07056  0.91114  1.0000
  Cu  Cu2       1.0  0.39608  0.43079  0.58930  1.0000
  Cu  Cu3       1.0  0.12237  0.92944  0.08886  1.0000
  Cu  Cu4       1.0  0.60394  0.56921  0.41071  1.0000
  H   H1        1.0  0.22884  0.16436  0.57276  1.0000
  H   H2        1.0  0.99248  0.33654  0.92781  1.0000
  H   H3        1.0  0.77117  0.83564  0.42724  1.0000
  H   H4        1.0  0.00751  0.66345  0.07219  1.0000
  H   H5        1.0  0.56219  0.88285  0.54915  1.0000
  H   H6        1.0  0.63037  0.61645  0.95039  1.0000
  H   H7        1.0  0.43781  0.11715  0.45084  1.0000
  H   H8        1.0  0.36963  0.38355  0.04962  1.0000
  H   H9        1.0  0.96820  0.18946  0.71288  1.0000
  H   H10       1.0  0.56686  0.31163  0.78747  1.0000
  H   H11       1.0  0.03181  0.81055  0.28711  1.0000
  H   H12       1.0  0.43313  0.68835  0.21253  1.0000
  H   H13       1.0  0.36280  0.82304  0.69725  1.0000
  H   H14       1.0  0.34319  0.67611  0.80180  1.0000
  H   H15       1.0  0.63721  0.17696  0.30274  1.0000
  H   H16       1.0  0.65680  0.32389  0.19821  1.0000
  H   H17       1.0  0.07921  0.85916  0.83192  1.0000
  H   H18       1.0  0.88891  0.64069  0.66734  1.0000
  H   H19       1.0  0.92079  0.14084  0.16808  1.0000
  H   H20       1.0  0.11108  0.35932  0.33268  1.0000
  C   C1        1.0  0.20696  0.09398  0.62861  1.0000
  C   C2        1.0  0.98494  0.40666  0.87164  1.0000
  C   C3        1.0  0.79305  0.90602  0.37138  1.0000
  C   C4        1.0  0.01506  0.59334  0.12837  1.0000
  C   C5        1.0  0.32172  0.98939  0.62146  1.0000
  C   C6        1.0  0.21129  0.51064  0.87834  1.0000
  C   C7        1.0  0.67827  0.01061  0.37853  1.0000
  C   C8        1.0  0.78870  0.48936  0.12166  1.0000
  C   C9        1.0  0.47793  0.96518  0.54098  1.0000
  C   C10       1.0  0.47203  0.53461  0.95882  1.0000
  C   C11       1.0  0.52207  0.03482  0.45901  1.0000
  C   C12       1.0  0.52797  0.46539  0.04118  1.0000
  C   C13       1.0  0.05771  0.10880  0.70738  1.0000
  C   C14       1.0  0.74233  0.39203  0.79286  1.0000
  C   C15       1.0  0.94229  0.89121  0.29261  1.0000
  C   C16       1.0  0.25767  0.60796  0.20715  1.0000
  C   C17       1.0  0.27528  0.90459  0.69779  1.0000
  C   C18       1.0  0.17365  0.59510  0.80163  1.0000
  C   C19       1.0  0.72473  0.09541  0.30220  1.0000
  C   C20       1.0  0.82636  0.40491  0.19838  1.0000
  C   C21       1.0  0.11968  0.92438  0.77301  1.0000
  C   C22       1.0  0.92304  0.57563  0.72648  1.0000
  C   C23       1.0  0.88031  0.07562  0.22698  1.0000
  C   C24       1.0  0.07694  0.42437  0.27353  1.0000
  N   N1        1.0  0.01064  0.02560  0.77950  1.0000
  N   N2        1.0  0.70658  0.47488  0.72036  1.0000
  N   N3        1.0  0.98938  0.97440  0.22049  1.0000
  N   N4        1.0  0.29340  0.52511  0.27965  1.0000
  N   N5        1.0  0.44927  0.14153  0.00169  1.0000
  N   N6        1.0  0.80630  0.35858  0.49843  1.0000
  N   N7        1.0  0.55073  0.85847  0.99831  1.0000
  N   N8        1.0  0.19370  0.64142  0.50158  1.0000
  N   N9        1.0  0.64122  0.15793  0.96404  1.0000
  N   N10       1.0  0.02021  0.34267  0.53591  1.0000
  N   N11       1.0  0.35879  0.84208  0.03595  1.0000
  N   N12       1.0  0.97980  0.65733  0.46410  1.0000
  N   N13       1.0  0.25345  0.12988  0.03880  1.0000
  N   N14       1.0  0.58461  0.36977  0.46128  1.0000
  N   N15       1.0  0.74656  0.87012  0.96119  1.0000
  N   N16       1.0  0.41539  0.63023  0.53873  1.0000
