data_image0
_chemical_formula_structural       Ba2H30C16N2O24
_chemical_formula_sum              "Ba2 H30 C16 N2 O24"
_cell_length_a       7.00987
_cell_length_b       11.0472
_cell_length_c       11.1103
_cell_angle_alpha    116.515
_cell_angle_beta     103.681
_cell_angle_gamma    99.2397

_space_group_name_H-M_alt    "P 1"
_space_group_IT_number       1

loop_
  _space_group_symop_operation_xyz
  'x, y, z'

loop_
  _atom_site_type_symbol
  _atom_site_label
  _atom_site_symmetry_multiplicity
  _atom_site_fract_x
  _atom_site_fract_y
  _atom_site_fract_z
  _atom_site_occupancy
  Ba  Ba1       1.0  0.82999  0.55639  0.32715  1.0000
  Ba  Ba2       1.0  0.00305  0.22938  0.67290  1.0000
  H   H1        1.0  0.18862  0.45893  0.54307  1.0000
  H   H2        1.0  0.14504  0.91584  0.45706  1.0000
  H   H3        1.0  0.24183  0.61366  0.57154  1.0000
  H   H4        1.0  0.17030  0.04216  0.42874  1.0000
  H   H5        1.0  0.92673  0.30207  0.15791  1.0000
  H   H6        1.0  0.26917  0.14422  0.84217  1.0000
  H   H7        1.0  0.90827  0.33591  0.03037  1.0000
  H   H8        1.0  0.37810  0.30554  0.96989  1.0000
  H   H9        1.0  0.26721  0.39009  0.14612  1.0000
  H   H10       1.0  0.62143  0.24428  0.85394  1.0000
  H   H11       1.0  0.36366  0.50671  0.11950  1.0000
  H   H12       1.0  0.74457  0.38744  0.88041  1.0000
  H   H13       1.0  0.53707  0.73875  0.27540  1.0000
  H   H14       1.0  0.76202  0.46374  0.72467  1.0000
  H   H15       1.0  0.65820  0.86413  0.43281  1.0000
  H   H16       1.0  0.72524  0.43151  0.56720  1.0000
  H   H17       1.0  0.32486  0.75175  0.43119  1.0000
  H   H18       1.0  0.39360  0.32030  0.56866  1.0000
  H   H19       1.0  0.21140  0.70860  0.27209  1.0000
  H   H20       1.0  0.43962  0.43646  0.72768  1.0000
  H   H21       1.0  0.44158  0.45378  0.42519  1.0000
  H   H22       1.0  0.51713  0.02828  0.57495  1.0000
  H   H23       1.0  0.58191  0.60823  0.53992  1.0000
  H   H24       1.0  0.54158  0.06792  0.45999  1.0000
  H   H25       1.0  0.59356  0.66470  0.77004  1.0000
  H   H26       1.0  0.32295  0.89426  0.22999  1.0000
  H   H27       1.0  0.63086  0.10813  0.99833  1.0000
  H   H28       1.0  0.13261  0.10956  0.00169  1.0000
  H   H29       1.0  0.81473  0.89755  0.23133  1.0000
  H   H30       1.0  0.08404  0.66620  0.76863  1.0000
  C   C1        1.0  0.70611  0.76699  0.00058  1.0000
  C   C2        1.0  0.20553  0.76620  0.99939  1.0000
  C   C3        1.0  0.63185  0.76307  0.87040  1.0000
  C   C4        1.0  0.26109  0.89233  0.12962  1.0000
  C   C5        1.0  0.60719  0.88656  0.87226  1.0000
  C   C6        1.0  0.23461  0.01392  0.12774  1.0000
  C   C7        1.0  0.65490  0.01397  0.99989  1.0000
  C   C8        1.0  0.15506  0.01382  0.00010  1.0000
  C   C9        1.0  0.73267  0.01869  0.13014  1.0000
  C   C10       1.0  0.10297  0.88841  0.86981  1.0000
  C   C11       1.0  0.75673  0.89476  0.12960  1.0000
  C   C12       1.0  0.12752  0.76504  0.87036  1.0000
  C   C13       1.0  0.73297  0.63359  0.00047  1.0000
  C   C14       1.0  0.23256  0.63290  0.99936  1.0000
  C   C15       1.0  0.79338  0.15913  0.27071  1.0000
  C   C16       1.0  0.02356  0.88836  0.72922  1.0000
  N   N1        1.0  0.52934  0.88362  0.73755  1.0000
  N   N2        1.0  0.29132  0.14565  0.26248  1.0000
  O   O1        1.0  0.80393  0.63920  0.11792  1.0000
  O   O2        1.0  0.18730  0.52135  0.88188  1.0000
  O   O3        1.0  0.15579  0.51689  0.49889  1.0000
  O   O4        1.0  0.15649  0.01797  0.50123  1.0000
  O   O5        1.0  0.99539  0.36659  0.13126  1.0000
  O   O6        1.0  0.36465  0.23549  0.86910  1.0000
  O   O7        1.0  0.39542  0.42673  0.13325  1.0000
  O   O8        1.0  0.76254  0.29374  0.86676  1.0000
  O   O9        1.0  0.63966  0.76354  0.36705  1.0000
  O   O10       1.0  0.77283  0.39686  0.63308  1.0000
  O   O11       1.0  0.19391  0.74289  0.36683  1.0000
  O   O12       1.0  0.32712  0.37579  0.63296  1.0000
  O   O13       1.0  0.58628  0.51275  0.47807  1.0000
  O   O14       1.0  0.60844  0.03447  0.52187  1.0000
  O   O15       1.0  0.68081  0.52201  0.87586  1.0000
  O   O16       1.0  0.30410  0.64569  0.12394  1.0000
  O   O17       1.0  0.86544  0.15766  0.38528  1.0000
  O   O18       1.0  0.98177  0.77245  0.61470  1.0000
  O   O19       1.0  0.76658  0.26488  0.25821  1.0000
  O   O20       1.0  0.00897  0.00653  0.74168  1.0000
  O   O21       1.0  0.50196  0.99219  0.73969  1.0000
  O   O22       1.0  0.26176  0.25199  0.26015  1.0000
  O   O23       1.0  0.48957  0.76980  0.62223  1.0000
  O   O24       1.0  0.36682  0.14727  0.37791  1.0000
