data_image0
_chemical_formula_structural       Cu8H8C8N28
_chemical_formula_sum              "Cu8 H8 C8 N28"
_cell_length_a       7.02108
_cell_length_b       7.47484
_cell_length_c       11.2204
_cell_angle_alpha    103.357
_cell_angle_beta     90.0002
_cell_angle_gamma    89.9999

_space_group_name_H-M_alt    "P 1"
_space_group_IT_number       1

loop_
  _space_group_symop_operation_xyz
  'x, y, z'

loop_
  _atom_site_type_symbol
  _atom_site_label
  _atom_site_symmetry_multiplicity
  _atom_site_fract_x
  _atom_site_fract_y
  _atom_site_fract_z
  _atom_site_occupancy
  Cu  Cu1       1.0  0.82662  0.88609  0.44112  1.0000
  Cu  Cu2       1.0  0.32663  0.61391  0.05888  1.0000
  Cu  Cu3       1.0  0.17338  0.11391  0.55888  1.0000
  Cu  Cu4       1.0  0.67338  0.38609  0.94112  1.0000
  Cu  Cu5       1.0  0.07292  0.98689  0.25067  1.0000
  Cu  Cu6       1.0  0.57292  0.51311  0.24933  1.0000
  Cu  Cu7       1.0  0.92708  0.01311  0.74933  1.0000
  Cu  Cu8       1.0  0.42708  0.48689  0.75067  1.0000
  H   H1        1.0  0.14834  0.63012  0.34394  1.0000
  H   H2        1.0  0.64835  0.86986  0.15606  1.0000
  H   H3        1.0  0.85165  0.36986  0.65607  1.0000
  H   H4        1.0  0.35166  0.13014  0.84394  1.0000
  H   H5        1.0  0.28801  0.35458  0.40245  1.0000
  H   H6        1.0  0.78801  0.14541  0.09755  1.0000
  H   H7        1.0  0.71199  0.64541  0.59755  1.0000
  H   H8        1.0  0.21200  0.85459  0.90244  1.0000
  C   C1        1.0  0.08212  0.57277  0.41432  1.0000
  C   C2        1.0  0.58211  0.92724  0.08567  1.0000
  C   C3        1.0  0.91790  0.42723  0.58566  1.0000
  C   C4        1.0  0.41790  0.07277  0.91433  1.0000
  C   C5        1.0  0.15822  0.41858  0.44558  1.0000
  C   C6        1.0  0.65823  0.08142  0.05443  1.0000
  C   C7        1.0  0.84176  0.58143  0.55444  1.0000
  C   C8        1.0  0.34178  0.91858  0.94557  1.0000
  N   N1        1.0  0.92419  0.65720  0.46892  1.0000
  N   N2        1.0  0.42419  0.84279  0.03107  1.0000
  N   N3        1.0  0.07580  0.34280  0.53107  1.0000
  N   N4        1.0  0.57580  0.15719  0.96893  1.0000
  N   N5        1.0  0.82563  0.06766  0.34498  1.0000
  N   N6        1.0  0.32563  0.43234  0.15502  1.0000
  N   N7        1.0  0.17437  0.93234  0.65502  1.0000
  N   N8        1.0  0.67437  0.56766  0.84498  1.0000
  N   N9        1.0  0.72665  0.19796  0.34351  1.0000
  N   N10       1.0  0.22665  0.30203  0.15649  1.0000
  N   N11       1.0  0.27335  0.80204  0.65649  1.0000
  N   N12       1.0  0.77336  0.69797  0.84351  1.0000
  N   N13       1.0  0.63304  0.32722  0.34035  1.0000
  N   N14       1.0  0.13304  0.17278  0.15964  1.0000
  N   N15       1.0  0.36697  0.67278  0.65965  1.0000
  N   N16       1.0  0.86697  0.82722  0.84036  1.0000
  N   N17       1.0  0.53137  0.76468  0.35531  1.0000
  N   N18       1.0  0.03138  0.73533  0.14469  1.0000
  N   N19       1.0  0.46862  0.23533  0.64469  1.0000
  N   N20       1.0  0.96862  0.26467  0.85531  1.0000
  N   N21       1.0  0.40128  0.86861  0.36599  1.0000
  N   N22       1.0  0.90128  0.63140  0.13401  1.0000
  N   N23       1.0  0.59873  0.13140  0.63401  1.0000
  N   N24       1.0  0.09871  0.36859  0.86599  1.0000
  N   N25       1.0  0.27280  0.97676  0.37990  1.0000
  N   N26       1.0  0.77280  0.52325  0.12010  1.0000
  N   N27       1.0  0.72720  0.02325  0.62010  1.0000
  N   N28       1.0  0.22721  0.47675  0.87990  1.0000
