data_image0
_chemical_formula_structural       CdH42C42N4O6
_chemical_formula_sum              "Cd1 H42 C42 N4 O6"
_cell_length_a       6.759
_cell_length_b       7.74274
_cell_length_c       16.8629
_cell_angle_alpha    78.9738
_cell_angle_beta     85.6232
_cell_angle_gamma    87.4925

_space_group_name_H-M_alt    "P 1"
_space_group_IT_number       1

loop_
  _space_group_symop_operation_xyz
  'x, y, z'

loop_
  _atom_site_type_symbol
  _atom_site_label
  _atom_site_symmetry_multiplicity
  _atom_site_fract_x
  _atom_site_fract_y
  _atom_site_fract_z
  _atom_site_occupancy
  Cd  Cd1       1.0  0.50000  0.50001  0.50000  1.0000
  H   H1        1.0  0.01378  0.57847  0.33159  1.0000
  H   H2        1.0  0.98622  0.42152  0.66842  1.0000
  H   H3        1.0  0.32313  0.58957  0.23974  1.0000
  H   H4        1.0  0.67686  0.41042  0.76026  1.0000
  H   H5        1.0  0.34693  0.40965  0.13071  1.0000
  H   H6        1.0  0.65306  0.59035  0.86929  1.0000
  H   H7        1.0  0.06798  0.22781  0.11388  1.0000
  H   H8        1.0  0.93201  0.77219  0.88612  1.0000
  H   H9        1.0  0.74352  0.73421  0.00700  1.0000
  H   H10       1.0  0.25648  0.26579  0.99300  1.0000
  H   H11       1.0  0.73563  0.62992  0.15618  1.0000
  H   H12       1.0  0.26438  0.37007  0.84382  1.0000
  H   H13       1.0  0.73513  0.84597  0.24735  1.0000
  H   H14       1.0  0.26487  0.15402  0.75265  1.0000
  H   H15       1.0  0.70458  0.40570  0.07767  1.0000
  H   H16       1.0  0.29543  0.59430  0.92233  1.0000
  H   H17       1.0  0.60928  0.35811  0.98895  1.0000
  H   H18       1.0  0.39072  0.64188  0.01106  1.0000
  H   H19       1.0  0.86746  0.36960  0.99413  1.0000
  H   H20       1.0  0.13254  0.63040  0.00588  1.0000
  H   H21       1.0  0.90109  0.09974  0.89808  1.0000
  H   H22       1.0  0.09891  0.90025  0.10192  1.0000
  H   H23       1.0  0.65796  0.18931  0.90603  1.0000
  H   H24       1.0  0.34204  0.81069  0.09397  1.0000
  H   H25       1.0  0.69336  0.96837  0.89407  1.0000
  H   H26       1.0  0.30664  0.03163  0.10593  1.0000
  H   H27       1.0  0.74826  0.97440  0.52195  1.0000
  H   H28       1.0  0.25174  0.02561  0.47805  1.0000
  H   H29       1.0  0.62789  0.90868  0.44355  1.0000
  H   H30       1.0  0.37211  0.09134  0.55645  1.0000
  H   H31       1.0  0.87747  0.04861  0.33931  1.0000
  H   H32       1.0  0.12253  0.95140  0.66069  1.0000
  H   H33       1.0  0.21248  0.01415  0.26843  1.0000
  H   H34       1.0  0.78751  0.98587  0.73156  1.0000
  H   H35       1.0  0.45615  0.78841  0.33714  1.0000
  H   H36       1.0  0.54385  0.21160  0.66286  1.0000
  H   H37       1.0  0.05539  0.64274  0.53491  1.0000
  H   H38       1.0  0.94461  0.35728  0.46509  1.0000
  H   H39       1.0  0.62762  0.17343  0.25378  1.0000
  H   H40       1.0  0.37238  0.82656  0.74622  1.0000
  H   H41       1.0  0.59375  0.73053  0.58842  1.0000
  H   H42       1.0  0.40624  0.26949  0.41158  1.0000
  C   C1        1.0  0.69536  0.39331  0.33638  1.0000
  C   C2        1.0  0.30464  0.60669  0.66362  1.0000
  C   C3        1.0  0.86885  0.39792  0.27597  1.0000
  C   C4        1.0  0.13115  0.60207  0.72404  1.0000
  C   C5        1.0  0.02865  0.50281  0.28316  1.0000
  C   C6        1.0  0.97134  0.49718  0.71684  1.0000
  C   C7        1.0  0.20022  0.50929  0.23201  1.0000
  C   C8        1.0  0.79978  0.49070  0.76799  1.0000
  C   C9        1.0  0.21258  0.40905  0.17090  1.0000
  C   C10       1.0  0.78742  0.59094  0.82910  1.0000
  C   C11       1.0  0.05631  0.30617  0.16113  1.0000
  C   C12       1.0  0.94369  0.69382  0.83887  1.0000
  C   C13       1.0  0.88166  0.29662  0.21318  1.0000
  C   C14       1.0  0.11834  0.70337  0.78682  1.0000
  C   C15       1.0  0.73403  0.07257  0.14991  1.0000
  C   C16       1.0  0.26597  0.92742  0.85009  1.0000
  C   C17       1.0  0.73721  0.13351  0.06532  1.0000
  C   C18       1.0  0.26279  0.86648  0.93468  1.0000
  C   C19       1.0  0.74241  0.00951  0.01355  1.0000
  C   C20       1.0  0.25759  0.99048  0.98645  1.0000
  C   C21       1.0  0.74082  0.82949  0.04716  1.0000
  C   C22       1.0  0.25918  0.17050  0.95284  1.0000
  C   C23       1.0  0.73429  0.77032  0.13069  1.0000
  C   C24       1.0  0.26572  0.22967  0.86931  1.0000
  C   C25       1.0  0.73201  0.89147  0.18210  1.0000
  C   C26       1.0  0.26799  0.10852  0.81790  1.0000
  C   C27       1.0  0.72956  0.32697  0.03020  1.0000
  C   C28       1.0  0.27044  0.67302  0.96980  1.0000
  C   C29       1.0  0.74905  0.06953  0.92335  1.0000
  C   C30       1.0  0.25096  0.93046  0.07665  1.0000
  C   C31       1.0  0.74172  0.86771  0.48750  1.0000
  C   C32       1.0  0.25828  0.13231  0.51250  1.0000
  C   C33       1.0  0.93986  0.84784  0.44259  1.0000
  C   C34       1.0  0.06014  0.15218  0.55740  1.0000
  C   C35       1.0  0.98695  0.95293  0.36697  1.0000
  C   C36       1.0  0.01305  0.04708  0.63303  1.0000
  C   C37       1.0  0.17351  0.93437  0.32769  1.0000
  C   C38       1.0  0.82649  0.06565  0.67231  1.0000
  C   C39       1.0  0.30930  0.81105  0.36549  1.0000
  C   C40       1.0  0.69070  0.18897  0.63451  1.0000
  C   C41       1.0  0.08515  0.72777  0.47616  1.0000
  C   C42       1.0  0.91486  0.27225  0.52384  1.0000
  N   N1        1.0  0.72797  0.19194  0.20431  1.0000
  N   N2        1.0  0.27203  0.80805  0.79569  1.0000
  N   N3        1.0  0.26607  0.71053  0.43871  1.0000
  N   N4        1.0  0.73393  0.28949  0.56128  1.0000
  O   O1        1.0  0.57744  0.26382  0.34608  1.0000
  O   O2        1.0  0.42256  0.73618  0.65392  1.0000
  O   O3        1.0  0.67604  0.51795  0.37673  1.0000
  O   O4        1.0  0.32395  0.48205  0.62327  1.0000
  O   O5        1.0  0.69359  0.70833  0.54192  1.0000
  O   O6        1.0  0.30640  0.29169  0.45808  1.0000
