data_image0
_chemical_formula_structural       Cu2H20C8N4O8
_chemical_formula_sum              "Cu2 H20 C8 N4 O8"
_cell_length_a       7.15726
_cell_length_b       7.69957
_cell_length_c       8.34149
_cell_angle_alpha    65.5852
_cell_angle_beta     64.5959
_cell_angle_gamma    62.2767

_space_group_name_H-M_alt    "P 1"
_space_group_IT_number       1

loop_
  _space_group_symop_operation_xyz
  'x, y, z'

loop_
  _atom_site_type_symbol
  _atom_site_label
  _atom_site_symmetry_multiplicity
  _atom_site_fract_x
  _atom_site_fract_y
  _atom_site_fract_z
  _atom_site_occupancy
  Cu  Cu1       1.0  0.33563  0.17877  0.15008  1.0000
  Cu  Cu2       1.0  0.66437  0.82122  0.84993  1.0000
  H   H1        1.0  0.97658  0.28467  0.07973  1.0000
  H   H2        1.0  0.34068  0.71565  0.92053  1.0000
  H   H3        1.0  0.02341  0.71533  0.92027  1.0000
  H   H4        1.0  0.65932  0.28436  0.07946  1.0000
  H   H5        1.0  0.94127  0.16582  0.30222  1.0000
  H   H6        1.0  0.40919  0.83398  0.69792  1.0000
  H   H7        1.0  0.05873  0.83418  0.69779  1.0000
  H   H8        1.0  0.59081  0.16602  0.30209  1.0000
  H   H9        1.0  0.08214  0.03335  0.15131  1.0000
  H   H10       1.0  0.26667  0.96692  0.84845  1.0000
  H   H11       1.0  0.91785  0.96664  0.84870  1.0000
  H   H12       1.0  0.73333  0.03308  0.15154  1.0000
  H   H13       1.0  0.70359  0.50684  0.32872  1.0000
  H   H14       1.0  0.53929  0.49302  0.67119  1.0000
  H   H15       1.0  0.29643  0.49317  0.67126  1.0000
  H   H16       1.0  0.46072  0.50698  0.32879  1.0000
  H   H17       1.0  0.22865  0.33723  0.44681  1.0000
  H   H18       1.0  0.01298  0.66245  0.55322  1.0000
  H   H19       1.0  0.77136  0.66276  0.55319  1.0000
  H   H20       1.0  0.98703  0.33755  0.44678  1.0000
  C   C1        1.0  0.43225  0.78253  0.35310  1.0000
  C   C2        1.0  0.56773  0.21751  0.64687  1.0000
  C   C3        1.0  0.52505  0.55224  0.39769  1.0000
  C   C4        1.0  0.47494  0.44768  0.60238  1.0000
  C   C5        1.0  0.09590  0.57643  0.23155  1.0000
  C   C6        1.0  0.90411  0.42357  0.76844  1.0000
  C   C7        1.0  0.06560  0.44082  0.42795  1.0000
  C   C8        1.0  0.93439  0.55918  0.57208  1.0000
  N   N1        1.0  0.05373  0.16644  0.17319  1.0000
  N   N2        1.0  0.39320  0.83365  0.82685  1.0000
  N   N3        1.0  0.94627  0.83355  0.82682  1.0000
  N   N4        1.0  0.60680  0.16635  0.17314  1.0000
  O   O1        1.0  0.47260  0.87515  0.17981  1.0000
  O   O2        1.0  0.52742  0.12487  0.82013  1.0000
  O   O3        1.0  0.32414  0.87305  0.47869  1.0000
  O   O4        1.0  0.67581  0.12696  0.52133  1.0000
  O   O5        1.0  0.20720  0.48657  0.09884  1.0000
  O   O6        1.0  0.79281  0.51342  0.90114  1.0000
  O   O7        1.0  0.01683  0.76643  0.19991  1.0000
  O   O8        1.0  0.98319  0.23357  0.80009  1.0000
