data_image0
_chemical_formula_structural       Cd2H28C28S4N8
_chemical_formula_sum              "Cd2 H28 C28 S4 N8"
_cell_length_a       5.60869
_cell_length_b       11.4499
_cell_length_c       12.8952
_cell_angle_alpha    102.699
_cell_angle_beta     90.0036
_cell_angle_gamma    89.9976

_space_group_name_H-M_alt    "P 1"
_space_group_IT_number       1

loop_
  _space_group_symop_operation_xyz
  'x, y, z'

loop_
  _atom_site_type_symbol
  _atom_site_label
  _atom_site_symmetry_multiplicity
  _atom_site_fract_x
  _atom_site_fract_y
  _atom_site_fract_z
  _atom_site_occupancy
  Cd  Cd1       1.0  0.49992  1.00000  0.50000  1.0000
  Cd  Cd2       1.0  0.00010  0.99999  0.00001  1.0000
  H   H1        1.0  0.21800  0.20464  0.59500  1.0000
  H   H2        1.0  0.28201  0.20461  0.09500  1.0000
  H   H3        1.0  0.78195  0.79539  0.40501  1.0000
  H   H4        1.0  0.71804  0.79541  0.90501  1.0000
  H   H5        1.0  0.34008  0.15096  0.69251  1.0000
  H   H6        1.0  0.15994  0.15093  0.19251  1.0000
  H   H7        1.0  0.65991  0.84906  0.30751  1.0000
  H   H8        1.0  0.84011  0.84909  0.80750  1.0000
  H   H9        1.0  0.72665  0.21310  0.76748  1.0000
  H   H10       1.0  0.77336  0.21311  0.26749  1.0000
  H   H11       1.0  0.27333  0.78689  0.23250  1.0000
  H   H12       1.0  0.22666  0.78689  0.73251  1.0000
  H   H13       1.0  0.05168  0.36316  0.78117  1.0000
  H   H14       1.0  0.44831  0.36317  0.28115  1.0000
  H   H15       1.0  0.94832  0.63684  0.21883  1.0000
  H   H16       1.0  0.55170  0.63682  0.71884  1.0000
  H   H17       1.0  0.06734  0.50101  0.65729  1.0000
  H   H18       1.0  0.43263  0.50101  0.15727  1.0000
  H   H19       1.0  0.93265  0.49899  0.34270  1.0000
  H   H20       1.0  0.56736  0.49897  0.84272  1.0000
  H   H21       1.0  0.75224  0.48800  0.51759  1.0000
  H   H22       1.0  0.74776  0.48800  0.01759  1.0000
  H   H23       1.0  0.24776  0.51199  0.48240  1.0000
  H   H24       1.0  0.25223  0.51198  0.98241  1.0000
  H   H25       1.0  0.42646  0.33808  0.50395  1.0000
  H   H26       1.0  0.07356  0.33809  0.00396  1.0000
  H   H27       1.0  0.57350  0.66193  0.49605  1.0000
  H   H28       1.0  0.92646  0.66192  0.99604  1.0000
  C   C1        1.0  0.00983  0.08776  0.40376  1.0000
  C   C2        1.0  0.49016  0.08776  0.90377  1.0000
  C   C3        1.0  0.99003  0.91226  0.59627  1.0000
  C   C4        1.0  0.50996  0.91222  0.09626  1.0000
  C   C5        1.0  0.55350  0.26845  0.63603  1.0000
  C   C6        1.0  0.94652  0.26845  0.13605  1.0000
  C   C7        1.0  0.44648  0.73156  0.36396  1.0000
  C   C8        1.0  0.05350  0.73156  0.86395  1.0000
  C   C9        1.0  0.73124  0.27424  0.71341  1.0000
  C   C10       1.0  0.76877  0.27424  0.21342  1.0000
  C   C11       1.0  0.26874  0.72577  0.28657  1.0000
  C   C12       1.0  0.23125  0.72576  0.78658  1.0000
  C   C13       1.0  0.91480  0.35791  0.72031  1.0000
  C   C14       1.0  0.58518  0.35793  0.22032  1.0000
  C   C15       1.0  0.08516  0.64209  0.27967  1.0000
  C   C16       1.0  0.41482  0.64206  0.77968  1.0000
  C   C17       1.0  0.92401  0.43554  0.65044  1.0000
  C   C18       1.0  0.57598  0.43554  0.15043  1.0000
  C   C19       1.0  0.07598  0.56445  0.34953  1.0000
  C   C20       1.0  0.42401  0.56444  0.84955  1.0000
  C   C21       1.0  0.74673  0.42864  0.57308  1.0000
  C   C22       1.0  0.75330  0.42865  0.07309  1.0000
  C   C23       1.0  0.25324  0.57136  0.42691  1.0000
  C   C24       1.0  0.24671  0.57134  0.92691  1.0000
  C   C25       1.0  0.56205  0.34583  0.56579  1.0000
  C   C26       1.0  0.93797  0.34583  0.06580  1.0000
  C   C27       1.0  0.43791  0.65417  0.43420  1.0000
  C   C28       1.0  0.06205  0.65416  0.93420  1.0000
  S   S1        1.0  0.26570  0.07949  0.34202  1.0000
  S   S2        1.0  0.23431  0.07949  0.84203  1.0000
  S   S3        1.0  0.73417  0.92052  0.65800  1.0000
  S   S4        1.0  0.76586  0.92049  0.15800  1.0000
  N   N1        1.0  0.17218  0.90470  0.54910  1.0000
  N   N2        1.0  0.32788  0.90469  0.04907  1.0000
  N   N3        1.0  0.82769  0.09531  0.45092  1.0000
  N   N4        1.0  0.67232  0.09528  0.95094  1.0000
  N   N5        1.0  0.37502  0.17860  0.62331  1.0000
  N   N6        1.0  0.12499  0.17859  0.12331  1.0000
  N   N7        1.0  0.62492  0.82142  0.37670  1.0000
  N   N8        1.0  0.87506  0.82143  0.87670  1.0000
