data_image0
_chemical_formula_structural       Cd3H16C22S6N30
_chemical_formula_sum              "Cd3 H16 C22 S6 N30"
_cell_length_a       6.97939
_cell_length_b       10.6065
_cell_length_c       13.8037
_cell_angle_alpha    88.3184
_cell_angle_beta     80.9486
_cell_angle_gamma    81.1872

_space_group_name_H-M_alt    "P 1"
_space_group_IT_number       1

loop_
  _space_group_symop_operation_xyz
  'x, y, z'

loop_
  _atom_site_type_symbol
  _atom_site_label
  _atom_site_symmetry_multiplicity
  _atom_site_fract_x
  _atom_site_fract_y
  _atom_site_fract_z
  _atom_site_occupancy
  Cd  Cd1       1.0  0.74418  0.37528  0.40947  1.0000
  Cd  Cd2       1.0  0.25580  0.62473  0.59053  1.0000
  Cd  Cd3       1.0  0.00000  1.00000  0.00000  1.0000
  H   H1        1.0  0.56848  0.27710  0.65446  1.0000
  H   H2        1.0  0.43152  0.72291  0.34554  1.0000
  H   H3        1.0  0.16256  0.09571  0.53001  1.0000
  H   H4        1.0  0.83744  0.90429  0.46999  1.0000
  H   H5        1.0  0.09859  0.21811  0.80047  1.0000
  H   H6        1.0  0.90141  0.78189  0.19954  1.0000
  H   H7        1.0  0.51052  0.91594  0.65995  1.0000
  H   H8        1.0  0.48948  0.08406  0.34005  1.0000
  H   H9        1.0  0.65938  0.36035  0.04078  1.0000
  H   H10       1.0  0.34062  0.63965  0.95921  1.0000
  H   H11       1.0  0.28466  0.33206  0.31224  1.0000
  H   H12       1.0  0.71535  0.66794  0.68776  1.0000
  H   H13       1.0  0.32798  0.10222  0.12334  1.0000
  H   H14       1.0  0.67203  0.89777  0.87666  1.0000
  H   H15       1.0  0.14292  0.49359  0.06134  1.0000
  H   H16       1.0  0.85708  0.50640  0.93867  1.0000
  C   C1        1.0  0.48688  0.24734  0.60037  1.0000
  C   C2        1.0  0.51312  0.75266  0.39963  1.0000
  C   C3        1.0  0.27631  0.15356  0.53520  1.0000
  C   C4        1.0  0.72369  0.84644  0.46480  1.0000
  C   C5        1.0  0.19060  0.12612  0.78823  1.0000
  C   C6        1.0  0.80940  0.87388  0.21177  1.0000
  C   C7        1.0  0.40429  0.96893  0.71591  1.0000
  C   C8        1.0  0.59571  0.03107  0.28409  1.0000
  C   C9        1.0  0.60628  0.36509  0.11901  1.0000
  C   C10       1.0  0.39372  0.63491  0.88099  1.0000
  C   C11       1.0  0.40956  0.35060  0.25930  1.0000
  C   C12       1.0  0.59044  0.64940  0.74070  1.0000
  C   C13       1.0  0.24717  0.18803  0.09609  1.0000
  C   C14       1.0  0.75283  0.81197  0.90391  1.0000
  C   C15       1.0  0.15259  0.39030  0.06207  1.0000
  C   C16       1.0  0.84742  0.60970  0.93793  1.0000
  C   C17       1.0  0.33939  0.80373  0.10205  1.0000
  C   C18       1.0  0.66062  0.19627  0.89795  1.0000
  C   C19       1.0  0.03529  0.09495  0.35699  1.0000
  C   C20       1.0  0.96469  0.90507  0.64301  1.0000
  C   C21       1.0  0.08565  0.56064  0.38792  1.0000
  C   C22       1.0  0.91435  0.43935  0.61208  1.0000
  S   S1        1.0  0.44645  0.67809  0.15277  1.0000
  S   S2        1.0  0.55356  0.32191  0.84723  1.0000
  S   S3        1.0  0.14549  0.94977  0.34219  1.0000
  S   S4        1.0  0.85451  0.05024  0.65781  1.0000
  S   S5        1.0  0.94412  0.54533  0.30667  1.0000
  S   S6        1.0  0.05589  0.45467  0.69332  1.0000
  N   N1        1.0  0.49085  0.28391  0.50822  1.0000
  N   N2        1.0  0.50914  0.71609  0.49179  1.0000
  N   N3        1.0  0.35926  0.22488  0.46683  1.0000
  N   N4        1.0  0.64074  0.77511  0.53317  1.0000
  N   N5        1.0  0.35269  0.16476  0.62008  1.0000
  N   N6        1.0  0.64731  0.83524  0.37993  1.0000
  N   N7        1.0  0.31884  0.09320  0.70385  1.0000
  N   N8        1.0  0.68116  0.90680  0.29615  1.0000
  N   N9        1.0  0.20070  0.02739  0.84778  1.0000
  N   N10       1.0  0.79930  0.97261  0.15222  1.0000
  N   N11       1.0  0.33474  0.92814  0.80280  1.0000
  N   N12       1.0  0.66526  0.07186  0.19720  1.0000
  N   N13       1.0  0.70142  0.38933  0.18912  1.0000
  N   N14       1.0  0.29859  0.61066  0.81088  1.0000
  N   N15       1.0  0.57748  0.37980  0.27694  1.0000
  N   N16       1.0  0.42252  0.62019  0.72306  1.0000
  N   N17       1.0  0.42202  0.34186  0.15985  1.0000
  N   N18       1.0  0.57798  0.65813  0.84015  1.0000
  N   N19       1.0  0.28085  0.30941  0.11031  1.0000
  N   N20       1.0  0.71916  0.69058  0.88969  1.0000
  N   N21       1.0  0.10508  0.19531  0.04328  1.0000
  N   N22       1.0  0.89493  0.80468  0.95672  1.0000
  N   N23       1.0  0.04597  0.32225  0.02081  1.0000
  N   N24       1.0  0.95403  0.67774  0.97919  1.0000
  N   N25       1.0  0.26481  0.89499  0.06239  1.0000
  N   N26       1.0  0.73519  0.10501  0.93761  1.0000
  N   N27       1.0  0.95715  0.20212  0.36855  1.0000
  N   N28       1.0  0.04283  0.79789  0.63145  1.0000
  N   N29       1.0  0.19573  0.56697  0.44393  1.0000
  N   N30       1.0  0.80427  0.43303  0.55608  1.0000
