data_image0
_chemical_formula_structural       Cu4H20C20N16
_chemical_formula_sum              "Cu4 H20 C20 N16"
_cell_length_a       6.87248
_cell_length_b       8.05396
_cell_length_c       11.3207
_cell_angle_alpha    89.9991
_cell_angle_beta     89.9998
_cell_angle_gamma    90

_space_group_name_H-M_alt    "P 1"
_space_group_IT_number       1

loop_
  _space_group_symop_operation_xyz
  'x, y, z'

loop_
  _atom_site_type_symbol
  _atom_site_label
  _atom_site_symmetry_multiplicity
  _atom_site_fract_x
  _atom_site_fract_y
  _atom_site_fract_z
  _atom_site_occupancy
  Cu  Cu1       1.0  0.21080  0.95647  0.50896  1.0000
  Cu  Cu2       1.0  0.21080  0.45646  0.99104  1.0000
  Cu  Cu3       1.0  0.78920  0.95646  0.00896  1.0000
  Cu  Cu4       1.0  0.78921  0.45648  0.49104  1.0000
  H   H1        1.0  0.36723  0.84689  0.94694  1.0000
  H   H2        1.0  0.36723  0.34690  0.55306  1.0000
  H   H3        1.0  0.63278  0.84691  0.44693  1.0000
  H   H4        1.0  0.63277  0.34690  0.05307  1.0000
  H   H5        1.0  0.81554  0.08392  0.76549  1.0000
  H   H6        1.0  0.81553  0.58394  0.73450  1.0000
  H   H7        1.0  0.18447  0.08394  0.26548  1.0000
  H   H8        1.0  0.18446  0.58392  0.23452  1.0000
  H   H9        1.0  0.62017  0.07266  0.57971  1.0000
  H   H10       1.0  0.62016  0.57265  0.92029  1.0000
  H   H11       1.0  0.37983  0.07266  0.07970  1.0000
  H   H12       1.0  0.37983  0.57265  0.42030  1.0000
  H   H13       1.0  0.06182  0.81049  0.68397  1.0000
  H   H14       1.0  0.06182  0.31047  0.81604  1.0000
  H   H15       1.0  0.93819  0.81048  0.18396  1.0000
  H   H16       1.0  0.93819  0.31048  0.31604  1.0000
  H   H17       1.0  0.07239  0.78512  0.83863  1.0000
  H   H18       1.0  0.07239  0.28512  0.66137  1.0000
  H   H19       1.0  0.92761  0.78512  0.33862  1.0000
  H   H20       1.0  0.92761  0.28512  0.16137  1.0000
  C   C1        1.0  0.30908  0.89621  0.76132  1.0000
  C   C2        1.0  0.30909  0.39621  0.73868  1.0000
  C   C3        1.0  0.69091  0.89621  0.26132  1.0000
  C   C4        1.0  0.69091  0.39621  0.23868  1.0000
  C   C5        1.0  0.42360  0.90129  0.86561  1.0000
  C   C6        1.0  0.42359  0.40130  0.63439  1.0000
  C   C7        1.0  0.57640  0.90130  0.36561  1.0000
  C   C8        1.0  0.57639  0.40129  0.13440  1.0000
  C   C9        1.0  0.67028  0.03071  0.76435  1.0000
  C   C10       1.0  0.67027  0.53072  0.73565  1.0000
  C   C11       1.0  0.32973  0.03073  0.26434  1.0000
  C   C12       1.0  0.32972  0.53070  0.23566  1.0000
  C   C13       1.0  0.56147  0.02299  0.66181  1.0000
  C   C14       1.0  0.56146  0.52298  0.83819  1.0000
  C   C15       1.0  0.43854  0.02299  0.16180  1.0000
  C   C16       1.0  0.43854  0.52298  0.33820  1.0000
  C   C17       1.0  0.02208  0.12307  0.50002  1.0000
  C   C18       1.0  0.02207  0.62306  0.99998  1.0000
  C   C19       1.0  0.97792  0.12305  0.00002  1.0000
  C   C20       1.0  0.97792  0.62309  0.49999  1.0000
  N   N1        1.0  0.38169  0.95573  0.65773  1.0000
  N   N2        1.0  0.38169  0.45573  0.84227  1.0000
  N   N3        1.0  0.61831  0.95573  0.15772  1.0000
  N   N4        1.0  0.61831  0.45573  0.34228  1.0000
  N   N5        1.0  0.60101  0.96727  0.86724  1.0000
  N   N6        1.0  0.60100  0.46727  0.63276  1.0000
  N   N7        1.0  0.39899  0.96728  0.36724  1.0000
  N   N8        1.0  0.39899  0.46726  0.13277  1.0000
  N   N9        1.0  0.12793  0.83371  0.76277  1.0000
  N   N10       1.0  0.12793  0.33370  0.73723  1.0000
  N   N11       1.0  0.87207  0.83371  0.26277  1.0000
  N   N12       1.0  0.87207  0.33371  0.23723  1.0000
  N   N13       1.0  0.90735  0.23249  0.49708  1.0000
  N   N14       1.0  0.90736  0.73247  0.00291  1.0000
  N   N15       1.0  0.09266  0.23248  0.99709  1.0000
  N   N16       1.0  0.09265  0.73249  0.50292  1.0000
