data_image0
_chemical_formula_structural       Sm4H12C4S4O28
_chemical_formula_sum              "Sm4 H12 C4 S4 O28"
_cell_length_a       6.93089
_cell_length_b       6.93086
_cell_length_c       11.6158
_cell_angle_alpha    90
_cell_angle_beta     90
_cell_angle_gamma    90.0013

_space_group_name_H-M_alt    "P 1"
_space_group_IT_number       1

loop_
  _space_group_symop_operation_xyz
  'x, y, z'

loop_
  _atom_site_type_symbol
  _atom_site_label
  _atom_site_symmetry_multiplicity
  _atom_site_fract_x
  _atom_site_fract_y
  _atom_site_fract_z
  _atom_site_occupancy
  Sm  Sm1       1.0  0.62356  0.88115  0.15447  1.0000
  Sm  Sm2       1.0  0.37644  0.11885  0.65447  1.0000
  Sm  Sm3       1.0  0.11875  0.62368  0.40450  1.0000
  Sm  Sm4       1.0  0.88125  0.37632  0.90450  1.0000
  H   H1        1.0  0.39631  0.82042  0.93229  1.0000
  H   H2        1.0  0.60369  0.17958  0.43229  1.0000
  H   H3        1.0  0.17949  0.39644  0.18232  1.0000
  H   H4        1.0  0.82052  0.60356  0.68232  1.0000
  H   H5        1.0  0.45240  0.60951  0.97421  1.0000
  H   H6        1.0  0.54760  0.39049  0.47421  1.0000
  H   H7        1.0  0.39043  0.45260  0.22421  1.0000
  H   H8        1.0  0.60957  0.54739  0.72421  1.0000
  H   H9        1.0  0.12968  0.97267  0.11349  1.0000
  H   H10       1.0  0.87032  0.02733  0.61349  1.0000
  H   H11       1.0  0.02737  0.12989  0.36350  1.0000
  H   H12       1.0  0.97263  0.87012  0.86350  1.0000
  C   C1        1.0  0.12645  0.88189  0.19124  1.0000
  C   C2        1.0  0.87355  0.11811  0.69124  1.0000
  C   C3        1.0  0.11815  0.12668  0.44124  1.0000
  C   C4        1.0  0.88185  0.87332  0.94124  1.0000
  S   S1        1.0  0.77242  0.38588  0.21263  1.0000
  S   S2        1.0  0.22758  0.61412  0.71263  1.0000
  S   S3        1.0  0.61405  0.77249  0.46257  1.0000
  S   S4        1.0  0.38595  0.22751  0.96257  1.0000
  O   O1        1.0  0.90092  0.38155  0.11088  1.0000
  O   O2        1.0  0.09908  0.61845  0.61088  1.0000
  O   O3        1.0  0.61829  0.90107  0.36086  1.0000
  O   O4        1.0  0.38171  0.09893  0.86086  1.0000
  O   O5        1.0  0.62035  0.53832  0.19673  1.0000
  O   O6        1.0  0.37965  0.46168  0.69673  1.0000
  O   O7        1.0  0.46167  0.62041  0.44661  1.0000
  O   O8        1.0  0.53833  0.37959  0.94661  1.0000
  O   O9        1.0  0.67938  0.19760  0.23078  1.0000
  O   O10       1.0  0.32062  0.80240  0.73078  1.0000
  O   O11       1.0  0.80239  0.67954  0.48063  1.0000
  O   O12       1.0  0.19761  0.32046  0.98063  1.0000
  O   O13       1.0  0.88747  0.42891  0.31597  1.0000
  O   O14       1.0  0.11253  0.57109  0.81597  1.0000
  O   O15       1.0  0.57101  0.88746  0.56594  1.0000
  O   O16       1.0  0.42899  0.11254  0.06594  1.0000
  O   O17       1.0  0.96412  0.82947  0.23329  1.0000
  O   O18       1.0  0.03588  0.17053  0.73329  1.0000
  O   O19       1.0  0.17030  0.96439  0.48345  1.0000
  O   O20       1.0  0.82970  0.03561  0.98345  1.0000
  O   O21       1.0  0.28424  0.83526  0.23911  1.0000
  O   O22       1.0  0.71576  0.16474  0.73911  1.0000
  O   O23       1.0  0.16501  0.28454  0.48897  1.0000
  O   O24       1.0  0.83499  0.71546  0.98897  1.0000
  O   O25       1.0  0.42329  0.74212  0.00078  1.0000
  O   O26       1.0  0.57671  0.25788  0.50078  1.0000
  O   O27       1.0  0.25779  0.42361  0.25077  1.0000
  O   O28       1.0  0.74221  0.57639  0.75077  1.0000
