data_image0
_chemical_formula_structural       Gd2H28C48N8O10F4
_chemical_formula_sum              "Gd2 H28 C48 N8 O10 F4"
_cell_length_a       7.6609
_cell_length_b       11.1304
_cell_length_c       13.9082
_cell_angle_alpha    70.2083
_cell_angle_beta     76.3157
_cell_angle_gamma    88.0217

_space_group_name_H-M_alt    "P 1"
_space_group_IT_number       1

loop_
  _space_group_symop_operation_xyz
  'x, y, z'

loop_
  _atom_site_type_symbol
  _atom_site_label
  _atom_site_symmetry_multiplicity
  _atom_site_fract_x
  _atom_site_fract_y
  _atom_site_fract_z
  _atom_site_occupancy
  Gd  Gd1       1.0  0.31294  0.40182  0.50101  1.0000
  Gd  Gd2       1.0  0.68702  0.59817  0.49900  1.0000
  H   H1        1.0  0.44029  0.60483  0.83174  1.0000
  H   H2        1.0  0.55969  0.39518  0.16824  1.0000
  H   H3        1.0  0.33007  0.55400  0.02703  1.0000
  H   H4        1.0  0.66993  0.44601  0.97296  1.0000
  H   H5        1.0  0.08274  0.29748  0.85901  1.0000
  H   H6        1.0  0.91727  0.70252  0.14099  1.0000
  H   H7        1.0  0.38524  0.61998  0.18668  1.0000
  H   H8        1.0  0.61477  0.38002  0.81332  1.0000
  H   H9        1.0  0.09608  0.02917  0.07298  1.0000
  H   H10       1.0  0.90392  0.97083  0.92703  1.0000
  H   H11       1.0  0.97594  0.87358  0.25600  1.0000
  H   H12       1.0  0.02407  0.12642  0.74401  1.0000
  H   H13       1.0  0.20754  0.35984  0.28862  1.0000
  H   H14       1.0  0.79248  0.64016  0.71138  1.0000
  H   H15       1.0  0.14312  0.19640  0.21372  1.0000
  H   H16       1.0  0.85687  0.80361  0.78628  1.0000
  H   H17       1.0  0.15504  0.96264  0.31895  1.0000
  H   H18       1.0  0.84495  0.03736  0.68106  1.0000
  H   H19       1.0  0.20823  0.79581  0.48182  1.0000
  H   H20       1.0  0.79176  0.20418  0.51818  1.0000
  H   H21       1.0  0.28065  0.74300  0.65392  1.0000
  H   H22       1.0  0.71934  0.25699  0.34608  1.0000
  H   H23       1.0  0.35245  0.81444  0.79379  1.0000
  H   H24       1.0  0.64754  0.18555  0.20622  1.0000
  H   H25       1.0  0.42661  0.99501  0.84904  1.0000
  H   H26       1.0  0.57339  0.00498  0.15096  1.0000
  H   H27       1.0  0.42261  0.21969  0.72685  1.0000
  H   H28       1.0  0.57741  0.78030  0.27314  1.0000
  C   C1        1.0  0.33379  0.47910  0.71348  1.0000
  C   C2        1.0  0.66622  0.52089  0.28650  1.0000
  C   C3        1.0  0.26847  0.45556  0.83028  1.0000
  C   C4        1.0  0.73152  0.54445  0.16972  1.0000
  C   C5        1.0  0.33872  0.52833  0.87857  1.0000
  C   C6        1.0  0.66127  0.47167  0.12142  1.0000
  C   C7        1.0  0.27887  0.49915  0.98685  1.0000
  C   C8        1.0  0.72114  0.50085  0.01314  1.0000
  C   C9        1.0  0.09477  0.33724  0.99999  1.0000
  C   C10       1.0  0.90524  0.66276  0.00002  1.0000
  C   C11       1.0  0.14099  0.35658  0.89282  1.0000
  C   C12       1.0  0.85900  0.64342  0.10718  1.0000
  C   C13       1.0  0.11041  0.63991  0.34531  1.0000
  C   C14       1.0  0.88958  0.36010  0.65469  1.0000
  C   C15       1.0  0.17494  0.73652  0.23562  1.0000
  C   C16       1.0  0.82508  0.26348  0.76438  1.0000
  C   C17       1.0  0.31940  0.70998  0.16444  1.0000
  C   C18       1.0  0.68062  0.29003  0.83556  1.0000
  C   C19       1.0  0.37136  0.80330  0.06543  1.0000
  C   C20       1.0  0.62865  0.19670  0.93457  1.0000
  C   C21       1.0  0.15747  0.93790  0.10118  1.0000
  C   C22       1.0  0.84252  0.06210  0.89883  1.0000
  C   C23       1.0  0.09166  0.85254  0.20275  1.0000
  C   C24       1.0  0.90835  0.14746  0.79725  1.0000
  C   C25       1.0  0.21230  0.25803  0.33175  1.0000
  C   C26       1.0  0.78771  0.74197  0.66825  1.0000
  C   C27       1.0  0.17588  0.16533  0.29016  1.0000
  C   C28       1.0  0.82412  0.83468  0.70984  1.0000
  C   C29       1.0  0.18157  0.03774  0.34811  1.0000
  C   C30       1.0  0.81842  0.96227  0.65189  1.0000
  C   C31       1.0  0.22234  0.00264  0.44744  1.0000
  C   C32       1.0  0.77765  0.99736  0.55256  1.0000
  C   C33       1.0  0.23090  0.87202  0.51101  1.0000
  C   C34       1.0  0.76910  0.12797  0.48899  1.0000
  C   C35       1.0  0.27077  0.84239  0.60674  1.0000
  C   C36       1.0  0.72922  0.15761  0.39327  1.0000
  C   C37       1.0  0.30719  0.94035  0.64544  1.0000
  C   C38       1.0  0.69281  0.05965  0.35456  1.0000
  C   C39       1.0  0.35138  0.91356  0.74332  1.0000
  C   C40       1.0  0.64861  0.08644  0.25669  1.0000
  C   C41       1.0  0.39388  0.01285  0.77353  1.0000
  C   C42       1.0  0.60612  0.98714  0.22647  1.0000
  C   C43       1.0  0.38942  0.13883  0.70594  1.0000
  C   C44       1.0  0.61059  0.86116  0.29406  1.0000
  C   C45       1.0  0.30233  0.07131  0.58346  1.0000
  C   C46       1.0  0.69768  0.92870  0.41654  1.0000
  C   C47       1.0  0.25716  0.10309  0.48306  1.0000
  C   C48       1.0  0.74285  0.89691  0.51694  1.0000
  N   N1        1.0  0.25242  0.22859  0.42496  1.0000
  N   N2        1.0  0.74758  0.77142  0.57504  1.0000
  N   N3        1.0  0.34206  0.16802  0.61479  1.0000
  N   N4        1.0  0.65794  0.83200  0.38520  1.0000
  N   N5        1.0  0.29821  0.91369  0.03253  1.0000
  N   N6        1.0  0.70179  0.08632  0.96747  1.0000
  N   N7        1.0  0.15730  0.40302  0.04826  1.0000
  N   N8        1.0  0.84270  0.59699  0.95174  1.0000
  O   O1        1.0  0.25920  0.41108  0.67626  1.0000
  O   O2        1.0  0.74082  0.58889  0.32376  1.0000
  O   O3        1.0  0.46094  0.56314  0.66338  1.0000
  O   O4        1.0  0.53899  0.43686  0.33660  1.0000
  O   O5        1.0  0.18403  0.53321  0.36373  1.0000
  O   O6        1.0  0.81598  0.46679  0.63627  1.0000
  O   O7        1.0  0.98936  0.67306  0.40948  1.0000
  O   O8        1.0  0.01064  0.32694  0.59051  1.0000
  O   O9        1.0  0.60605  0.39169  0.51900  1.0000
  O   O10       1.0  0.39398  0.60831  0.48100  1.0000
  F   F1        1.0  0.97209  0.23942  0.06375  1.0000
  F   F2        1.0  0.02792  0.76059  0.93625  1.0000
  F   F3        1.0  0.51130  0.78011  0.99303  1.0000
  F   F4        1.0  0.48870  0.21989  0.00697  1.0000
