data_image0
_chemical_formula_structural       K2Cr2H62C50O24
_chemical_formula_sum              "K2 Cr2 H62 C50 O24"
_cell_length_a       10.558
_cell_length_b       10.488
_cell_length_c       13.8858
_cell_angle_alpha    108.455
_cell_angle_beta     95.1648
_cell_angle_gamma    97.5618

_space_group_name_H-M_alt    "P 1"
_space_group_IT_number       1

loop_
  _space_group_symop_operation_xyz
  'x, y, z'

loop_
  _atom_site_type_symbol
  _atom_site_label
  _atom_site_symmetry_multiplicity
  _atom_site_fract_x
  _atom_site_fract_y
  _atom_site_fract_z
  _atom_site_occupancy
  K   K1        1.0  0.64273  0.97805  0.25387  1.0000
  K   K2        1.0  0.35728  0.02196  0.74613  1.0000
  Cr  Cr1       1.0  0.85767  0.48585  0.23907  1.0000
  Cr  Cr2       1.0  0.14234  0.51415  0.76093  1.0000
  H   H1        1.0  0.28814  0.99748  0.13344  1.0000
  H   H2        1.0  0.71185  0.00253  0.86656  1.0000
  H   H3        1.0  0.20836  0.82783  0.11525  1.0000
  H   H4        1.0  0.79163  0.17218  0.88476  1.0000
  H   H5        1.0  0.32019  0.84859  0.29003  1.0000
  H   H6        1.0  0.67981  0.15141  0.70998  1.0000
  H   H7        1.0  0.20860  0.96238  0.29149  1.0000
  H   H8        1.0  0.79140  0.03763  0.70852  1.0000
  H   H9        1.0  0.40516  0.00885  0.45552  1.0000
  H   H10       1.0  0.59484  0.99115  0.54448  1.0000
  H   H11       1.0  0.31843  0.14066  0.44858  1.0000
  H   H12       1.0  0.68157  0.85935  0.55142  1.0000
  H   H13       1.0  0.51937  0.24155  0.56052  1.0000
  H   H14       1.0  0.48063  0.75845  0.43948  1.0000
  H   H15       1.0  0.52347  0.28965  0.44846  1.0000
  H   H16       1.0  0.47653  0.71035  0.55154  1.0000
  H   H17       1.0  0.75144  0.27796  0.59207  1.0000
  H   H18       1.0  0.24856  0.72203  0.40793  1.0000
  H   H19       1.0  0.75379  0.33298  0.48283  1.0000
  H   H20       1.0  0.24621  0.66702  0.51718  1.0000
  H   H21       1.0  0.86118  0.08141  0.50060  1.0000
  H   H22       1.0  0.13882  0.91859  0.49940  1.0000
  H   H23       1.0  0.95463  0.24748  0.52755  1.0000
  H   H24       1.0  0.04537  0.75252  0.47245  1.0000
  H   H25       1.0  0.07333  0.16521  0.38692  1.0000
  H   H26       1.0  0.92667  0.83480  0.61308  1.0000
  H   H27       1.0  0.98500  0.99524  0.35628  1.0000
  H   H28       1.0  0.01500  0.00476  0.64372  1.0000
  H   H29       1.0  0.07509  0.04538  0.20653  1.0000
  H   H30       1.0  0.92491  0.95462  0.79347  1.0000
  H   H31       1.0  0.97352  0.17152  0.21715  1.0000
  H   H32       1.0  0.02647  0.82849  0.78286  1.0000
  H   H33       1.0  0.85747  0.03944  0.04900  1.0000
  H   H34       1.0  0.14253  0.96057  0.95100  1.0000
  H   H35       1.0  0.96117  0.91473  0.03971  1.0000
  H   H36       1.0  0.03882  0.08527  0.96029  1.0000
  H   H37       1.0  0.77233  0.73961  0.03101  1.0000
  H   H38       1.0  0.22767  0.26039  0.96899  1.0000
  H   H39       1.0  0.76296  0.80453  0.92698  1.0000
  H   H40       1.0  0.23703  0.19547  0.07303  1.0000
  H   H41       1.0  0.52995  0.73650  0.90249  1.0000
  H   H42       1.0  0.47005  0.26350  0.09751  1.0000
  H   H43       1.0  0.54000  0.67879  0.01053  1.0000
  H   H44       1.0  0.46000  0.32122  0.98948  1.0000
  H   H45       1.0  0.40675  0.91739  0.99474  1.0000
  H   H46       1.0  0.59324  0.08261  0.00526  1.0000
  H   H47       1.0  0.32689  0.74713  0.97116  1.0000
  H   H48       1.0  0.67311  0.25288  0.02884  1.0000
  H   H49       1.0  0.55933  0.45644  0.39966  1.0000
  H   H50       1.0  0.44067  0.54356  0.60034  1.0000
  H   H51       1.0  0.33578  0.32845  0.35324  1.0000
  H   H52       1.0  0.66422  0.67156  0.64677  1.0000
  H   H53       1.0  0.18249  0.37148  0.22436  1.0000
  H   H54       1.0  0.81752  0.62852  0.77565  1.0000
  H   H55       1.0  0.25553  0.53995  0.14024  1.0000
  H   H56       1.0  0.74447  0.46005  0.85976  1.0000
  H   H57       1.0  0.47892  0.67049  0.18926  1.0000
  H   H58       1.0  0.52108  0.32951  0.81074  1.0000
  H   H59       1.0  0.84786  0.69909  0.42175  1.0000
  H   H60       1.0  0.15214  0.30090  0.57824  1.0000
  H   H61       1.0  0.74545  0.54433  0.41815  1.0000
  H   H62       1.0  0.25456  0.45567  0.58184  1.0000
  C   C1        1.0  0.29539  0.90460  0.15391  1.0000
  C   C2        1.0  0.70460  0.09540  0.84609  1.0000
  C   C3        1.0  0.30221  0.93811  0.26829  1.0000
  C   C4        1.0  0.69779  0.06190  0.73171  1.0000
  C   C5        1.0  0.40540  0.09586  0.42710  1.0000
  C   C6        1.0  0.59460  0.90414  0.57290  1.0000
  C   C7        1.0  0.52276  0.20293  0.47738  1.0000
  C   C8        1.0  0.47724  0.79707  0.52262  1.0000
  C   C9        1.0  0.75075  0.24278  0.50804  1.0000
  C   C10       1.0  0.24925  0.75722  0.49196  1.0000
  C   C11       1.0  0.86733  0.17685  0.48178  1.0000
  C   C12       1.0  0.13267  0.82315  0.51823  1.0000
  C   C13       1.0  0.98485  0.09397  0.34329  1.0000
  C   C14       1.0  0.01515  0.90603  0.65672  1.0000
  C   C15       1.0  0.98307  0.07469  0.23075  1.0000
  C   C16       1.0  0.01693  0.92531  0.76925  1.0000
  C   C17       1.0  0.87085  0.94561  0.06620  1.0000
  C   C18       1.0  0.12915  0.05439  0.93380  1.0000
  C   C19       1.0  0.76105  0.83117  0.01042  1.0000
  C   C20       1.0  0.23895  0.16884  0.98958  1.0000
  C   C21       1.0  0.53271  0.76861  0.98659  1.0000
  C   C22       1.0  0.46728  0.23139  0.01342  1.0000
  C   C23       1.0  0.41147  0.82403  0.01463  1.0000
  C   C24       1.0  0.58852  0.17598  0.98537  1.0000
  C   C25       1.0  0.53522  0.57158  0.29690  1.0000
  C   C26       1.0  0.46478  0.42842  0.70310  1.0000
  C   C27       1.0  0.49337  0.47420  0.34209  1.0000
  C   C28       1.0  0.50663  0.52580  0.65791  1.0000
  C   C29       1.0  0.36715  0.40286  0.31666  1.0000
  C   C30       1.0  0.63285  0.59715  0.68334  1.0000
  C   C31       1.0  0.28115  0.42678  0.24437  1.0000
  C   C32       1.0  0.71885  0.57322  0.75563  1.0000
  C   C33       1.0  0.32192  0.52223  0.19768  1.0000
  C   C34       1.0  0.67808  0.47776  0.80231  1.0000
  C   C35       1.0  0.44768  0.59448  0.22426  1.0000
  C   C36       1.0  0.55232  0.40551  0.77573  1.0000
  C   C37       1.0  0.66703  0.66030  0.32969  1.0000
  C   C38       1.0  0.33297  0.33969  0.67030  1.0000
  C   C39       1.0  0.77182  0.61456  0.37691  1.0000
  C   C40       1.0  0.22818  0.38543  0.62308  1.0000
  C   C41       1.0  0.73938  0.33564  0.23734  1.0000
  C   C42       1.0  0.26062  0.66436  0.76265  1.0000
  C   C43       1.0  0.74605  0.51638  0.13898  1.0000
  C   C44       1.0  0.25396  0.48361  0.86101  1.0000
  C   C45       1.0  0.96645  0.64722  0.24854  1.0000
  C   C46       1.0  0.03356  0.35278  0.75145  1.0000
  C   C47       1.0  0.97422  0.45783  0.33820  1.0000
  C   C48       1.0  0.02578  0.54217  0.66179  1.0000
  C   C49       1.0  0.93380  0.38336  0.13549  1.0000
  C   C50       1.0  0.06623  0.61664  0.86451  1.0000
  O   O1        1.0  0.40911  0.85333  0.12247  1.0000
  O   O2        1.0  0.59088  0.14667  0.87753  1.0000
  O   O3        1.0  0.40283  0.05152  0.31825  1.0000
  O   O4        1.0  0.59717  0.94848  0.68175  1.0000
  O   O5        1.0  0.63714  0.14542  0.45777  1.0000
  O   O6        1.0  0.36286  0.85458  0.54222  1.0000
  O   O7        1.0  0.87300  0.14887  0.37503  1.0000
  O   O8        1.0  0.12700  0.85113  0.62497  1.0000
  O   O9        1.0  0.87751  0.97086  0.17390  1.0000
  O   O10       1.0  0.12249  0.02914  0.82610  1.0000
  O   O11       1.0  0.64170  0.87404  0.03609  1.0000
  O   O12       1.0  0.35829  0.12597  0.96391  1.0000
  O   O13       1.0  0.67981  0.77377  0.31571  1.0000
  O   O14       1.0  0.32020  0.22622  0.68428  1.0000
  O   O15       1.0  0.66459  0.24108  0.23420  1.0000
  O   O16       1.0  0.33541  0.75891  0.76581  1.0000
  O   O17       1.0  0.68205  0.53150  0.07157  1.0000
  O   O18       1.0  0.31796  0.46849  0.92842  1.0000
  O   O19       1.0  0.03556  0.74594  0.25272  1.0000
  O   O20       1.0  0.96445  0.25406  0.74728  1.0000
  O   O21       1.0  0.04931  0.43915  0.39713  1.0000
  O   O22       1.0  0.95070  0.56086  0.60287  1.0000
  O   O23       1.0  0.98104  0.31665  0.06730  1.0000
  O   O24       1.0  0.01896  0.68333  0.93270  1.0000
