data_image0
_chemical_formula_structural       Ni2H36C40N4O16
_chemical_formula_sum              "Ni2 H36 C40 N4 O16"
_cell_length_a       6.74248
_cell_length_b       11.4245
_cell_length_c       12.5882
_cell_angle_alpha    93.4232
_cell_angle_beta     89.9826
_cell_angle_gamma    107.224

_space_group_name_H-M_alt    "P 1"
_space_group_IT_number       1

loop_
  _space_group_symop_operation_xyz
  'x, y, z'

loop_
  _atom_site_type_symbol
  _atom_site_label
  _atom_site_symmetry_multiplicity
  _atom_site_fract_x
  _atom_site_fract_y
  _atom_site_fract_z
  _atom_site_occupancy
  Ni  Ni1       1.0  0.56612  0.99990  0.75008  1.0000
  Ni  Ni2       1.0  0.43776  0.00008  0.24996  1.0000
  H   H1        1.0  0.30222  0.70184  0.95677  1.0000
  H   H2        1.0  0.59964  0.29799  0.54311  1.0000
  H   H3        1.0  0.69535  0.28560  0.04444  1.0000
  H   H4        1.0  0.40947  0.71442  0.45584  1.0000
  H   H5        1.0  0.18132  0.51046  0.05367  1.0000
  H   H6        1.0  0.67010  0.48937  0.44627  1.0000
  H   H7        1.0  0.81564  0.47635  0.94909  1.0000
  H   H8        1.0  0.33866  0.52362  0.55104  1.0000
  H   H9        1.0  0.37885  0.30900  0.79534  1.0000
  H   H10       1.0  0.06967  0.69111  0.70441  1.0000
  H   H11       1.0  0.61239  0.67619  0.20696  1.0000
  H   H12       1.0  0.93648  0.32357  0.29281  1.0000
  H   H13       1.0  0.50144  0.50362  0.69868  1.0000
  H   H14       1.0  0.99769  0.49649  0.80104  1.0000
  H   H15       1.0  0.48702  0.48102  0.30206  1.0000
  H   H16       1.0  0.00661  0.51878  0.19785  1.0000
  H   H17       1.0  0.12062  0.29784  0.06442  1.0000
  H   H18       1.0  0.82199  0.70207  0.43556  1.0000
  H   H19       1.0  0.87493  0.69217  0.93921  1.0000
  H   H20       1.0  0.18214  0.30781  0.56080  1.0000
  H   H21       1.0  0.83623  0.91568  0.89417  1.0000
  H   H22       1.0  0.92112  0.08466  0.60645  1.0000
  H   H23       1.0  0.16109  0.07506  0.10088  1.0000
  H   H24       1.0  0.08530  0.92482  0.39879  1.0000
  H   H25       1.0  0.21013  0.91426  0.89380  1.0000
  H   H26       1.0  0.29633  0.08569  0.60660  1.0000
  H   H27       1.0  0.78973  0.07529  0.10168  1.0000
  H   H28       1.0  0.71392  0.92497  0.39801  1.0000
  H   H29       1.0  0.41607  0.91862  0.55250  1.0000
  H   H30       1.0  0.49795  0.08127  0.94770  1.0000
  H   H31       1.0  0.59645  0.10804  0.48305  1.0000
  H   H32       1.0  0.48814  0.89249  0.01677  1.0000
  H   H33       1.0  0.53380  0.83498  0.61121  1.0000
  H   H34       1.0  0.69919  0.16500  0.88872  1.0000
  H   H35       1.0  0.44989  0.15654  0.41130  1.0000
  H   H36       1.0  0.29348  0.84355  0.08886  1.0000
  C   C1        1.0  0.47664  0.72742  0.76101  1.0000
  C   C2        1.0  0.74914  0.27252  0.73877  1.0000
  C   C3        1.0  0.51208  0.25853  0.24129  1.0000
  C   C4        1.0  0.25390  0.74147  0.25888  1.0000
  C   C5        1.0  0.40975  0.61351  0.82222  1.0000
  C   C6        1.0  0.79595  0.38646  0.67757  1.0000
  C   C7        1.0  0.58477  0.37201  0.17964  1.0000
  C   C8        1.0  0.21277  0.62797  0.32050  1.0000
  C   C9        1.0  0.31879  0.61579  0.92206  1.0000
  C   C10       1.0  0.70250  0.38408  0.57780  1.0000
  C   C11       1.0  0.67846  0.37104  0.08038  1.0000
  C   C12       1.0  0.30713  0.62897  0.41982  1.0000
  C   C13       1.0  0.25002  0.50831  0.97546  1.0000
  C   C14       1.0  0.74114  0.49155  0.52439  1.0000
  C   C15       1.0  0.74701  0.47902  0.02726  1.0000
  C   C16       1.0  0.26750  0.52095  0.47286  1.0000
  C   C17       1.0  0.27201  0.39799  0.92978  1.0000
  C   C18       1.0  0.87357  0.60198  0.57007  1.0000
  C   C19       1.0  0.72347  0.58894  0.07305  1.0000
  C   C20       1.0  0.13414  0.41094  0.42698  1.0000
  C   C21       1.0  0.36334  0.39566  0.82961  1.0000
  C   C22       1.0  0.96738  0.60439  0.67016  1.0000
  C   C23       1.0  0.62972  0.58997  0.17263  1.0000
  C   C24       1.0  0.03978  0.40986  0.32731  1.0000
  C   C25       1.0  0.43095  0.50281  0.77643  1.0000
  C   C26       1.0  0.92792  0.49723  0.72331  1.0000
  C   C27       1.0  0.56098  0.48243  0.22516  1.0000
  C   C28       1.0  0.07879  0.51744  0.27485  1.0000
  C   C29       1.0  0.20397  0.28710  0.98937  1.0000
  C   C30       1.0  0.91581  0.71299  0.51069  1.0000
  C   C31       1.0  0.79172  0.70122  0.01452  1.0000
  C   C32       1.0  0.08996  0.29865  0.48546  1.0000
  C   C33       1.0  0.93915  0.95245  0.82959  1.0000
  C   C34       1.0  0.98714  0.04782  0.67096  1.0000
  C   C35       1.0  0.06283  0.04218  0.16826  1.0000
  C   C36       1.0  0.02026  0.95775  0.33140  1.0000
  C   C37       1.0  0.14431  0.95151  0.82920  1.0000
  C   C38       1.0  0.19307  0.04851  0.67124  1.0000
  C   C39       1.0  0.85615  0.04246  0.16856  1.0000
  C   C40       1.0  0.81342  0.95763  0.33110  1.0000
  N   N1        1.0  0.86158  0.00016  0.75028  1.0000
  N   N2        1.0  0.14612  0.99991  0.24983  1.0000
  N   N3        1.0  0.27051  0.99992  0.75017  1.0000
  N   N4        1.0  0.72997  0.00009  0.24985  1.0000
  O   O1        1.0  0.52292  0.71551  0.66403  1.0000
  O   O2        1.0  0.80762  0.28456  0.83570  1.0000
  O   O3        1.0  0.44813  0.26798  0.33404  1.0000
  O   O4        1.0  0.18134  0.73182  0.16595  1.0000
  O   O5        1.0  0.47774  0.82794  0.81194  1.0000
  O   O6        1.0  0.64970  0.17193  0.68794  1.0000
  O   O7        1.0  0.52378  0.15788  0.19146  1.0000
  O   O8        1.0  0.36563  0.84228  0.30883  1.0000
  O   O9        1.0  0.23519  0.18858  0.96333  1.0000
  O   O10       1.0  0.04486  0.81182  0.53703  1.0000
  O   O11       1.0  0.76033  0.79914  0.04262  1.0000
  O   O12       1.0  0.96074  0.20061  0.45734  1.0000
  O   O13       1.0  0.54553  0.92194  0.58925  1.0000
  O   O14       1.0  0.62408  0.07806  0.91090  1.0000
  O   O15       1.0  0.45460  0.08694  0.45496  1.0000
  O   O16       1.0  0.36727  0.91323  0.04507  1.0000
