data_image0
_chemical_formula_structural       K9H12C18N9O33
_chemical_formula_sum              "K9 H12 C18 N9 O33"
_cell_length_a       9.8217
_cell_length_b       9.82171
_cell_length_c       11.8378
_cell_angle_alpha    89.9994
_cell_angle_beta     90.0009
_cell_angle_gamma    120

_space_group_name_H-M_alt    "P 1"
_space_group_IT_number       1

loop_
  _space_group_symop_operation_xyz
  'x, y, z'

loop_
  _atom_site_type_symbol
  _atom_site_label
  _atom_site_symmetry_multiplicity
  _atom_site_fract_x
  _atom_site_fract_y
  _atom_site_fract_z
  _atom_site_occupancy
  K   K1        1.0  1.00000  0.55086  0.16664  1.0000
  K   K2        1.0  0.44914  0.44914  0.50000  1.0000
  K   K3        1.0  0.55086  1.00000  0.83336  1.0000
  K   K4        1.0  0.64744  0.16513  0.47302  1.0000
  K   K5        1.0  0.83488  0.48231  0.80632  1.0000
  K   K6        1.0  0.51768  0.35257  0.13968  1.0000
  K   K7        1.0  0.16513  0.64745  0.52697  1.0000
  K   K8        1.0  0.48231  0.83488  0.19368  1.0000
  K   K9        1.0  0.35257  0.51768  0.86032  1.0000
  H   H1        1.0  0.27578  0.43710  0.24263  1.0000
  H   H2        1.0  0.56288  0.83868  0.57598  1.0000
  H   H3        1.0  0.16132  0.72422  0.90930  1.0000
  H   H4        1.0  0.43710  0.27578  0.75737  1.0000
  H   H5        1.0  0.83868  0.56288  0.42402  1.0000
  H   H6        1.0  0.72422  0.16132  0.09070  1.0000
  H   H7        1.0  0.22372  0.44465  0.11941  1.0000
  H   H8        1.0  0.55536  0.77909  0.45276  1.0000
  H   H9        1.0  0.22095  0.77629  0.78610  1.0000
  H   H10       1.0  0.44465  0.22373  0.88059  1.0000
  H   H11       1.0  0.77909  0.55536  0.54724  1.0000
  H   H12       1.0  0.77629  0.22095  0.21390  1.0000
  C   C1        1.0  0.87025  0.99999  0.33335  1.0000
  C   C2        1.0  0.99999  0.87025  0.66665  1.0000
  C   C3        1.0  0.12975  0.12974  1.00000  1.0000
  C   C4        1.0  0.02250  0.14298  0.34422  1.0000
  C   C5        1.0  0.85700  0.87952  0.67754  1.0000
  C   C6        1.0  0.12049  0.97749  0.01085  1.0000
  C   C7        1.0  0.14298  0.02250  0.65578  1.0000
  C   C8        1.0  0.87952  0.85700  0.32246  1.0000
  C   C9        1.0  0.97750  0.12049  0.98915  1.0000
  C   C10       1.0  0.17250  0.14924  0.32712  1.0000
  C   C11       1.0  0.85075  0.02327  0.66046  1.0000
  C   C12       1.0  0.97672  0.82750  0.99377  1.0000
  C   C13       1.0  0.14924  0.17251  0.67288  1.0000
  C   C14       1.0  0.02327  0.85075  0.33954  1.0000
  C   C15       1.0  0.82750  0.97672  0.00623  1.0000
  C   C16       1.0  0.16938  1.00000  0.33333  1.0000
  C   C17       1.0  1.00000  0.16939  0.66667  1.0000
  C   C18       1.0  0.83062  0.83062  0.00000  1.0000
  N   N1        1.0  0.02857  0.28426  0.37235  1.0000
  N   N2        1.0  0.71573  0.74432  0.70569  1.0000
  N   N3        1.0  0.25568  0.97141  0.03900  1.0000
  N   N4        1.0  0.28426  0.02857  0.62765  1.0000
  N   N5        1.0  0.74432  0.71574  0.29431  1.0000
  N   N6        1.0  0.97142  0.25568  0.96100  1.0000
  N   N7        1.0  0.31200  0.00000  0.33332  1.0000
  N   N8        1.0  0.00000  0.31201  0.66667  1.0000
  N   N9        1.0  0.68801  0.68801  0.00000  1.0000
  O   O1        1.0  0.74147  0.99998  0.33338  1.0000
  O   O2        1.0  0.99998  0.74147  0.66662  1.0000
  O   O3        1.0  0.25853  0.25853  1.00000  1.0000
  O   O4        1.0  0.92101  0.31226  0.34215  1.0000
  O   O5        1.0  0.68772  0.60876  0.67550  1.0000
  O   O6        1.0  0.39126  0.07899  0.00883  1.0000
  O   O7        1.0  0.31225  0.92101  0.65785  1.0000
  O   O8        1.0  0.60875  0.68772  0.32450  1.0000
  O   O9        1.0  0.07900  0.39126  0.99117  1.0000
  O   O10       1.0  0.14227  0.38469  0.43107  1.0000
  O   O11       1.0  0.61533  0.75761  0.76444  1.0000
  O   O12       1.0  0.24240  0.85770  0.09772  1.0000
  O   O13       1.0  0.38469  0.14227  0.56893  1.0000
  O   O14       1.0  0.75760  0.61533  0.23556  1.0000
  O   O15       1.0  0.85771  0.24241  0.90228  1.0000
  O   O16       1.0  0.29722  0.27949  0.30988  1.0000
  O   O17       1.0  0.72051  0.01775  0.64324  1.0000
  O   O18       1.0  0.98226  0.70278  0.97651  1.0000
  O   O19       1.0  0.27949  0.29723  0.69012  1.0000
  O   O20       1.0  0.01775  0.72051  0.35676  1.0000
  O   O21       1.0  0.70278  0.98226  0.02348  1.0000
  O   O22       1.0  0.32230  0.88918  0.37939  1.0000
  O   O23       1.0  0.11082  0.43313  0.71274  1.0000
  O   O24       1.0  0.56689  0.67769  0.04607  1.0000
  O   O25       1.0  0.88918  0.32230  0.62061  1.0000
  O   O26       1.0  0.43313  0.11082  0.28726  1.0000
  O   O27       1.0  0.67769  0.56689  0.95393  1.0000
  O   O28       1.0  0.25729  0.50475  0.19027  1.0000
  O   O29       1.0  0.49525  0.75254  0.52361  1.0000
  O   O30       1.0  0.24746  0.74270  0.85695  1.0000
  O   O31       1.0  0.50475  0.25729  0.80973  1.0000
  O   O32       1.0  0.75254  0.49525  0.47639  1.0000
  O   O33       1.0  0.74270  0.24746  0.14305  1.0000
