data_image0
_chemical_formula_structural       Cu4H12C24N16O8F4
_chemical_formula_sum              "Cu4 H12 C24 N16 O8 F4"
_cell_length_a       5.92554
_cell_length_b       10.7312
_cell_length_c       12.4159
_cell_angle_alpha    90.0003
_cell_angle_beta     90.0013
_cell_angle_gamma    90

_space_group_name_H-M_alt    "P 1"
_space_group_IT_number       1

loop_
  _space_group_symop_operation_xyz
  'x, y, z'

loop_
  _atom_site_type_symbol
  _atom_site_label
  _atom_site_symmetry_multiplicity
  _atom_site_fract_x
  _atom_site_fract_y
  _atom_site_fract_z
  _atom_site_occupancy
  Cu  Cu1       1.0  0.74849  0.69025  0.48998  1.0000
  Cu  Cu2       1.0  0.75151  0.30975  0.98997  1.0000
  Cu  Cu3       1.0  0.25151  0.19025  0.01002  1.0000
  Cu  Cu4       1.0  0.24848  0.80975  0.51003  1.0000
  H   H1        1.0  0.23523  0.01903  0.21166  1.0000
  H   H2        1.0  0.26477  0.98096  0.71166  1.0000
  H   H3        1.0  0.76478  0.51904  0.28834  1.0000
  H   H4        1.0  0.73523  0.48096  0.78834  1.0000
  H   H5        1.0  0.66102  0.77569  0.16972  1.0000
  H   H6        1.0  0.83895  0.22431  0.66971  1.0000
  H   H7        1.0  0.33897  0.27569  0.33028  1.0000
  H   H8        1.0  0.16103  0.72431  0.83029  1.0000
  H   H9        1.0  0.91228  0.00884  0.91329  1.0000
  H   H10       1.0  0.58771  0.99116  0.41328  1.0000
  H   H11       1.0  0.08773  0.50882  0.58671  1.0000
  H   H12       1.0  0.41230  0.49116  0.08671  1.0000
  C   C1        1.0  0.98247  0.84327  0.31739  1.0000
  C   C2        1.0  0.51753  0.15673  0.81738  1.0000
  C   C3        1.0  0.01754  0.34328  0.18261  1.0000
  C   C4        1.0  0.48246  0.65672  0.68262  1.0000
  C   C5        1.0  0.95694  0.88945  0.20390  1.0000
  C   C6        1.0  0.54306  0.11055  0.70390  1.0000
  C   C7        1.0  0.04307  0.38945  0.29611  1.0000
  C   C8        1.0  0.45693  0.61054  0.79610  1.0000
  C   C9        1.0  0.10289  0.97915  0.16165  1.0000
  C   C10       1.0  0.39710  0.02086  0.66165  1.0000
  C   C11       1.0  0.89710  0.47914  0.33836  1.0000
  C   C12       1.0  0.60289  0.52086  0.83835  1.0000
  C   C13       1.0  0.78191  0.84381  0.13937  1.0000
  C   C14       1.0  0.71808  0.15620  0.63937  1.0000
  C   C15       1.0  0.21809  0.34380  0.36064  1.0000
  C   C16       1.0  0.28191  0.65619  0.86064  1.0000
  C   C17       1.0  0.76814  0.88821  0.03494  1.0000
  C   C18       1.0  0.73185  0.11179  0.53493  1.0000
  C   C19       1.0  0.23186  0.38820  0.46507  1.0000
  C   C20       1.0  0.26815  0.61179  0.96507  1.0000
  C   C21       1.0  0.92170  0.97527  0.99593  1.0000
  C   C22       1.0  0.57831  0.02474  0.49593  1.0000
  C   C23       1.0  0.07833  0.47526  0.50408  1.0000
  C   C24       1.0  0.42169  0.52474  0.00408  1.0000
  N   N1        1.0  0.08394  0.02153  0.06006  1.0000
  N   N2        1.0  0.41605  0.97848  0.56007  1.0000
  N   N3        1.0  0.91608  0.52152  0.43994  1.0000
  N   N4        1.0  0.58395  0.47848  0.93993  1.0000
  N   N5        1.0  0.92519  0.82038  0.57005  1.0000
  N   N6        1.0  0.57480  0.17962  0.07004  1.0000
  N   N7        1.0  0.07481  0.32038  0.92995  1.0000
  N   N8        1.0  0.42520  0.67962  0.42996  1.0000
  N   N9        1.0  0.90026  0.83538  0.66607  1.0000
  N   N10       1.0  0.59974  0.16462  0.16607  1.0000
  N   N11       1.0  0.09974  0.33538  0.83393  1.0000
  N   N12       1.0  0.40027  0.66462  0.33394  1.0000
  N   N13       1.0  0.87563  0.85285  0.75772  1.0000
  N   N14       1.0  0.62437  0.14715  0.25770  1.0000
  N   N15       1.0  0.12438  0.35285  0.74229  1.0000
  N   N16       1.0  0.37563  0.64715  0.24229  1.0000
  O   O1        1.0  0.83247  0.76645  0.34843  1.0000
  O   O2        1.0  0.66752  0.23356  0.84843  1.0000
  O   O3        1.0  0.16755  0.26645  0.15157  1.0000
  O   O4        1.0  0.33246  0.73354  0.65158  1.0000
  O   O5        1.0  0.15048  0.88377  0.37118  1.0000
  O   O6        1.0  0.34952  0.11624  0.87118  1.0000
  O   O7        1.0  0.84953  0.38378  0.12881  1.0000
  O   O8        1.0  0.65046  0.61623  0.62881  1.0000
  F   F1        1.0  0.60021  0.84794  0.96962  1.0000
  F   F2        1.0  0.89978  0.15206  0.46962  1.0000
  F   F3        1.0  0.39978  0.34793  0.53037  1.0000
  F   F4        1.0  0.10022  0.65206  0.03038  1.0000
