data_image0
_chemical_formula_structural       Cu5H24C38N18O14F6
_chemical_formula_sum              "Cu5 H24 C38 N18 O14 F6"
_cell_length_a       7.26998
_cell_length_b       12.3576
_cell_length_c       13.5702
_cell_angle_alpha    99.7929
_cell_angle_beta     102.038
_cell_angle_gamma    90.1521

_space_group_name_H-M_alt    "P 1"
_space_group_IT_number       1

loop_
  _space_group_symop_operation_xyz
  'x, y, z'

loop_
  _atom_site_type_symbol
  _atom_site_label
  _atom_site_symmetry_multiplicity
  _atom_site_fract_x
  _atom_site_fract_y
  _atom_site_fract_z
  _atom_site_occupancy
  Cu  Cu1       1.0  0.21589  0.97694  0.22445  1.0000
  Cu  Cu2       1.0  0.78409  0.02299  0.77572  1.0000
  Cu  Cu3       1.0  0.99993  0.99997  0.99992  1.0000
  Cu  Cu4       1.0  0.99998  0.50000  0.49998  1.0000
  Cu  Cu5       1.0  0.49995  0.49998  0.49997  1.0000
  H   H1        1.0  0.32914  0.88891  0.06550  1.0000
  H   H2        1.0  0.67069  0.11113  0.93449  1.0000
  H   H3        1.0  0.29572  0.68034  0.34672  1.0000
  H   H4        1.0  0.70432  0.31964  0.65331  1.0000
  H   H5        1.0  0.39779  0.57086  0.04501  1.0000
  H   H6        1.0  0.60219  0.42918  0.95501  1.0000
  H   H7        1.0  0.45959  0.36018  0.27323  1.0000
  H   H8        1.0  0.54036  0.63979  0.72674  1.0000
  H   H9        1.0  0.05829  0.28954  0.37112  1.0000
  H   H10       1.0  0.94180  0.71049  0.62885  1.0000
  H   H11       1.0  0.92752  0.33554  0.05638  1.0000
  H   H12       1.0  0.07243  0.66449  0.94361  1.0000
  H   H13       1.0  0.88805  0.59638  0.30693  1.0000
  H   H14       1.0  0.11188  0.40365  0.69306  1.0000
  H   H15       1.0  0.02120  0.86057  0.54467  1.0000
  H   H16       1.0  0.97875  0.13944  0.45535  1.0000
  H   H17       1.0  0.40385  0.12453  0.72305  1.0000
  H   H18       1.0  0.59623  0.87546  0.27691  1.0000
  H   H19       1.0  0.61658  0.81722  0.64151  1.0000
  H   H20       1.0  0.38337  0.18273  0.35844  1.0000
  H   H21       1.0  0.61047  0.01014  0.11111  1.0000
  H   H22       1.0  0.38940  0.98978  0.88884  1.0000
  H   H23       1.0  0.46261  0.11148  0.06115  1.0000
  H   H24       1.0  0.53738  0.88850  0.93880  1.0000
  C   C1        1.0  0.30223  0.75077  0.16630  1.0000
  C   C2        1.0  0.69783  0.24926  0.83379  1.0000
  C   C3        1.0  0.34074  0.63872  0.19282  1.0000
  C   C4        1.0  0.65926  0.36128  0.80722  1.0000
  C   C5        1.0  0.33556  0.61671  0.29001  1.0000
  C   C6        1.0  0.66446  0.38327  0.71002  1.0000
  C   C7        1.0  0.38888  0.55527  0.12036  1.0000
  C   C8        1.0  0.61109  0.44474  0.87965  1.0000
  C   C9        1.0  0.42736  0.45450  0.15017  1.0000
  C   C10       1.0  0.57258  0.54550  0.84982  1.0000
  C   C11       1.0  0.42344  0.43846  0.24865  1.0000
  C   C12       1.0  0.57652  0.56153  0.75133  1.0000
  C   C13       1.0  0.05683  0.18359  0.17636  1.0000
  C   C14       1.0  0.94333  0.81648  0.82357  1.0000
  C   C15       1.0  0.00194  0.29895  0.21021  1.0000
  C   C16       1.0  0.99807  0.70110  0.78978  1.0000
  C   C17       1.0  0.01370  0.34082  0.31369  1.0000
  C   C18       1.0  0.98633  0.65922  0.68629  1.0000
  C   C19       1.0  0.94286  0.36662  0.13789  1.0000
  C   C20       1.0  0.05709  0.63342  0.86210  1.0000
  C   C21       1.0  0.90293  0.47351  0.17471  1.0000
  C   C22       1.0  0.09698  0.52653  0.82528  1.0000
  C   C23       1.0  0.91696  0.51163  0.27876  1.0000
  C   C24       1.0  0.08298  0.48841  0.72123  1.0000
  C   C25       1.0  0.29186  0.70463  0.53727  1.0000
  C   C26       1.0  0.70809  0.29535  0.46271  1.0000
  C   C27       1.0  0.31624  0.82413  0.58756  1.0000
  C   C28       1.0  0.68373  0.17587  0.41241  1.0000
  C   C29       1.0  0.16220  0.89168  0.58486  1.0000
  C   C30       1.0  0.83778  0.10832  0.41513  1.0000
  C   C31       1.0  0.19771  0.99948  0.63513  1.0000
  C   C32       1.0  0.80230  0.00053  0.36486  1.0000
  C   C33       1.0  0.37802  0.03941  0.68514  1.0000
  C   C34       1.0  0.62201  0.96058  0.31483  1.0000
  C   C35       1.0  0.49461  0.86793  0.63874  1.0000
  C   C36       1.0  0.50537  0.13205  0.36123  1.0000
  C   C37       1.0  0.48469  0.02259  0.05333  1.0000
  C   C38       1.0  0.51521  0.97738  0.94662  1.0000
  N   N1        1.0  0.37786  0.51914  0.31788  1.0000
  N   N2        1.0  0.62215  0.48084  0.68213  1.0000
  N   N3        1.0  0.97065  0.44441  0.34678  1.0000
  N   N4        1.0  0.02935  0.55562  0.65321  1.0000
  N   N5        1.0  0.52499  0.97291  0.68671  1.0000
  N   N6        1.0  0.47502  0.02706  0.31326  1.0000
  N   N7        1.0  0.96791  0.94042  0.12589  1.0000
  N   N8        1.0  0.03216  0.05960  0.87425  1.0000
  N   N9        1.0  0.87932  0.85491  0.12049  1.0000
  N   N10       1.0  0.12089  0.14500  0.87967  1.0000
  N   N11       1.0  0.78969  0.77631  0.11727  1.0000
  N   N12       1.0  0.21080  0.22351  0.88278  1.0000
  N   N13       1.0  0.25786  0.43245  0.52548  1.0000
  N   N14       1.0  0.74209  0.56753  0.47454  1.0000
  N   N15       1.0  0.26866  0.33941  0.54365  1.0000
  N   N16       1.0  0.73129  0.66057  0.45635  1.0000
  N   N17       1.0  0.28194  0.25063  0.56130  1.0000
  N   N18       1.0  0.71802  0.74935  0.43871  1.0000
  O   O1        1.0  0.03124  0.15169  0.08045  1.0000
  O   O2        1.0  0.96881  0.84839  0.91948  1.0000
  O   O3        1.0  0.12714  0.13034  0.24716  1.0000
  O   O4        1.0  0.87326  0.86977  0.75277  1.0000
  O   O5        1.0  0.26340  0.82345  0.23869  1.0000
  O   O6        1.0  0.73693  0.17656  0.76150  1.0000
  O   O7        1.0  0.31443  0.76592  0.07846  1.0000
  O   O8        1.0  0.68547  0.23412  0.92162  1.0000
  O   O9        1.0  0.13385  0.66934  0.48458  1.0000
  O   O10       1.0  0.86606  0.33066  0.51541  1.0000
  O   O11       1.0  0.44248  0.65061  0.55567  1.0000
  O   O12       1.0  0.55743  0.34935  0.44431  1.0000
  O   O13       1.0  0.32021  0.97207  0.07069  1.0000
  O   O14       1.0  0.67963  0.02796  0.92924  1.0000
  F   F1        1.0  0.47410  0.36914  0.08330  1.0000
  F   F2        1.0  0.52578  0.63087  0.91666  1.0000
  F   F3        1.0  0.84838  0.54357  0.10846  1.0000
  F   F4        1.0  0.15147  0.45645  0.89152  1.0000
  F   F5        1.0  0.05330  0.06879  0.63661  1.0000
  F   F6        1.0  0.94672  0.93122  0.36342  1.0000
