data_image0
_chemical_formula_structural       Zn2H18C26N2O10
_chemical_formula_sum              "Zn2 H18 C26 N2 O10"
_cell_length_a       7.75596
_cell_length_b       8.2207
_cell_length_c       9.73755
_cell_angle_alpha    73.087
_cell_angle_beta     75.9246
_cell_angle_gamma    72.1975

_space_group_name_H-M_alt    "P 1"
_space_group_IT_number       1

loop_
  _space_group_symop_operation_xyz
  'x, y, z'

loop_
  _atom_site_type_symbol
  _atom_site_label
  _atom_site_symmetry_multiplicity
  _atom_site_fract_x
  _atom_site_fract_y
  _atom_site_fract_z
  _atom_site_occupancy
  Zn  Zn1       1.0  0.51989  0.12912  0.09878  1.0000
  Zn  Zn2       1.0  0.48011  0.87088  0.90122  1.0000
  H   H1        1.0  0.84182  0.09020  0.91398  1.0000
  H   H2        1.0  0.15818  0.90980  0.08602  1.0000
  H   H3        1.0  0.85194  0.15904  0.04520  1.0000
  H   H4        1.0  0.14806  0.84096  0.95479  1.0000
  H   H5        1.0  0.86751  0.41520  0.08697  1.0000
  H   H6        1.0  0.13249  0.58480  0.91303  1.0000
  H   H7        1.0  0.14468  0.21395  0.45539  1.0000
  H   H8        1.0  0.85532  0.78604  0.54461  1.0000
  H   H9        1.0  0.81711  0.75161  0.36415  1.0000
  H   H10       1.0  0.18289  0.24838  0.63586  1.0000
  H   H11       1.0  0.35771  0.49894  0.13055  1.0000
  H   H12       1.0  0.64229  0.50106  0.86944  1.0000
  H   H13       1.0  0.34303  0.67123  0.30226  1.0000
  H   H14       1.0  0.65697  0.32878  0.69773  1.0000
  H   H15       1.0  0.65266  0.19348  0.56139  1.0000
  H   H16       1.0  0.34733  0.80652  0.43861  1.0000
  H   H17       1.0  0.65821  0.04444  0.37391  1.0000
  H   H18       1.0  0.34179  0.95557  0.62609  1.0000
  C   C1        1.0  0.70301  0.74367  0.13395  1.0000
  C   C2        1.0  0.29700  0.25633  0.86605  1.0000
  C   C3        1.0  0.83226  0.59690  0.21864  1.0000
  C   C4        1.0  0.16775  0.40309  0.78136  1.0000
  C   C5        1.0  0.90199  0.43417  0.18205  1.0000
  C   C6        1.0  0.09802  0.56582  0.81796  1.0000
  C   C7        1.0  0.01654  0.29789  0.26795  1.0000
  C   C8        1.0  0.98347  0.70211  0.73205  1.0000
  C   C9        1.0  0.10376  0.12499  0.22472  1.0000
  C   C10       1.0  0.89624  0.87501  0.77528  1.0000
  C   C11       1.0  0.05456  0.32416  0.39220  1.0000
  C   C12       1.0  0.94544  0.67583  0.60780  1.0000
  C   C13       1.0  0.98218  0.48595  0.43315  1.0000
  C   C14       1.0  0.01782  0.51405  0.56685  1.0000
  C   C15       1.0  0.87447  0.62218  0.34133  1.0000
  C   C16       1.0  0.12553  0.37782  0.65867  1.0000
  C   C17       1.0  0.42327  0.43671  0.22643  1.0000
  C   C18       1.0  0.57672  0.56329  0.77357  1.0000
  C   C19       1.0  0.41519  0.53252  0.32481  1.0000
  C   C20       1.0  0.58480  0.46749  0.67519  1.0000
  C   C21       1.0  0.50057  0.45033  0.44770  1.0000
  C   C22       1.0  0.49942  0.54968  0.55230  1.0000
  C   C23       1.0  0.58759  0.26992  0.46714  1.0000
  C   C24       1.0  0.41240  0.73009  0.53286  1.0000
  C   C25       1.0  0.59021  0.18356  0.36363  1.0000
  C   C26       1.0  0.40979  0.81645  0.63637  1.0000
  N   N1        1.0  0.51092  0.26509  0.24449  1.0000
  N   N2        1.0  0.48908  0.73491  0.75550  1.0000
  O   O1        1.0  0.64353  0.88475  0.17832  1.0000
  O   O2        1.0  0.35648  0.11525  0.82168  1.0000
  O   O3        1.0  0.65740  0.71572  0.02697  1.0000
  O   O4        1.0  0.34260  0.28428  0.97303  1.0000
  O   O5        1.0  0.25945  0.03777  0.25904  1.0000
  O   O6        1.0  0.74055  0.96223  0.74096  1.0000
  O   O7        1.0  0.01825  0.07621  0.15320  1.0000
  O   O8        1.0  0.98175  0.92379  0.84680  1.0000
  O   O9        1.0  0.76979  0.17972  0.97361  1.0000
  O   O10       1.0  0.23020  0.82029  0.02638  1.0000
