data_image0
_chemical_formula_structural       Cu4H24C16N16Cl8
_chemical_formula_sum              "Cu4 H24 C16 N16 Cl8"
_cell_length_a       6.77631
_cell_length_b       8.99597
_cell_length_c       14.1262
_cell_angle_alpha    89.9994
_cell_angle_beta     90.0005
_cell_angle_gamma    111.159

_space_group_name_H-M_alt    "P 1"
_space_group_IT_number       1

loop_
  _space_group_symop_operation_xyz
  'x, y, z'

loop_
  _atom_site_type_symbol
  _atom_site_label
  _atom_site_symmetry_multiplicity
  _atom_site_fract_x
  _atom_site_fract_y
  _atom_site_fract_z
  _atom_site_occupancy
  Cu  Cu1       1.0  0.30307  0.74111  0.25507  1.0000
  Cu  Cu2       1.0  0.19693  0.25889  0.75507  1.0000
  Cu  Cu3       1.0  0.69692  0.25889  0.74493  1.0000
  Cu  Cu4       1.0  0.80307  0.74111  0.24493  1.0000
  H   H1        1.0  0.69172  0.61279  0.62138  1.0000
  H   H2        1.0  0.80828  0.38722  0.12137  1.0000
  H   H3        1.0  0.30827  0.38721  0.37863  1.0000
  H   H4        1.0  0.19172  0.61278  0.87863  1.0000
  H   H5        1.0  0.43259  0.61928  0.64235  1.0000
  H   H6        1.0  0.06741  0.38073  0.14235  1.0000
  H   H7        1.0  0.56740  0.38072  0.35765  1.0000
  H   H8        1.0  0.93260  0.61927  0.85765  1.0000
  H   H9        1.0  0.66450  0.79666  0.65319  1.0000
  H   H10       1.0  0.83550  0.20334  0.15319  1.0000
  H   H11       1.0  0.33550  0.20333  0.34681  1.0000
  H   H12       1.0  0.16450  0.79666  0.84681  1.0000
  H   H13       1.0  0.10070  0.74334  0.45960  1.0000
  H   H14       1.0  0.39931  0.25667  0.95959  1.0000
  H   H15       1.0  0.89931  0.25666  0.54041  1.0000
  H   H16       1.0  0.60070  0.74334  0.04039  1.0000
  H   H17       1.0  0.37104  0.87574  0.64005  1.0000
  H   H18       1.0  0.12897  0.12427  0.14004  1.0000
  H   H19       1.0  0.62896  0.12426  0.35997  1.0000
  H   H20       1.0  0.87104  0.87575  0.85995  1.0000
  H   H21       1.0  0.09655  0.86034  0.61663  1.0000
  H   H22       1.0  0.40346  0.13967  0.11663  1.0000
  H   H23       1.0  0.90345  0.13966  0.38337  1.0000
  H   H24       1.0  0.59656  0.86034  0.88336  1.0000
  C   C1        1.0  0.41747  0.74627  0.46727  1.0000
  C   C2        1.0  0.08254  0.25373  0.96727  1.0000
  C   C3        1.0  0.58254  0.25373  0.53273  1.0000
  C   C4        1.0  0.91747  0.74627  0.03272  1.0000
  C   C5        1.0  0.59139  0.68426  0.61454  1.0000
  C   C6        1.0  0.90861  0.31574  0.11454  1.0000
  C   C7        1.0  0.40861  0.31573  0.38546  1.0000
  C   C8        1.0  0.09139  0.68426  0.88547  1.0000
  C   C9        1.0  0.23717  0.77413  0.50650  1.0000
  C   C10       1.0  0.26283  0.22588  0.00650  1.0000
  C   C11       1.0  0.76283  0.22587  0.49350  1.0000
  C   C12       1.0  0.73718  0.77413  0.99349  1.0000
  C   C13       1.0  0.23585  0.83810  0.59217  1.0000
  C   C14       1.0  0.26416  0.16192  0.09216  1.0000
  C   C15       1.0  0.76415  0.16190  0.40784  1.0000
  C   C16       1.0  0.73585  0.83811  0.90782  1.0000
  N   N1        1.0  0.57404  0.71589  0.51428  1.0000
  N   N2        1.0  0.92596  0.28411  0.01427  1.0000
  N   N3        1.0  0.42596  0.28410  0.48573  1.0000
  N   N4        1.0  0.07405  0.71589  0.98573  1.0000
  N   N5        1.0  0.71782  0.70353  0.45215  1.0000
  N   N6        1.0  0.78218  0.29646  0.95214  1.0000
  N   N7        1.0  0.28218  0.29646  0.54785  1.0000
  N   N8        1.0  0.21782  0.70353  0.04786  1.0000
  N   N9        1.0  0.64991  0.72452  0.36920  1.0000
  N   N10       1.0  0.85008  0.27548  0.86920  1.0000
  N   N11       1.0  0.35008  0.27547  0.63080  1.0000
  N   N12       1.0  0.14990  0.72452  0.13080  1.0000
  N   N13       1.0  0.46582  0.74809  0.37482  1.0000
  N   N14       1.0  0.03417  0.25191  0.87482  1.0000
  N   N15       1.0  0.53417  0.25191  0.62518  1.0000
  N   N16       1.0  0.96582  0.74810  0.12518  1.0000
  Cl  Cl1       1.0  0.59418  0.93874  0.19310  1.0000
  Cl  Cl2       1.0  0.90582  0.06125  0.69310  1.0000
  Cl  Cl3       1.0  0.40582  0.06126  0.80690  1.0000
  Cl  Cl4       1.0  0.09417  0.93874  0.30690  1.0000
  Cl  Cl5       1.0  0.52674  0.52924  0.18626  1.0000
  Cl  Cl6       1.0  0.97326  0.47075  0.68626  1.0000
  Cl  Cl7       1.0  0.47326  0.47075  0.81374  1.0000
  Cl  Cl8       1.0  0.02674  0.52924  0.31374  1.0000
