data_image0
_chemical_formula_structural       Cd2H38C62N10O8
_chemical_formula_sum              "Cd2 H38 C62 N10 O8"
_cell_length_a       10.8084
_cell_length_b       12.2869
_cell_length_c       12.2151
_cell_angle_alpha    59.4955
_cell_angle_beta     82.7116
_cell_angle_gamma    78.1057

_space_group_name_H-M_alt    "P 1"
_space_group_IT_number       1

loop_
  _space_group_symop_operation_xyz
  'x, y, z'

loop_
  _atom_site_type_symbol
  _atom_site_label
  _atom_site_symmetry_multiplicity
  _atom_site_fract_x
  _atom_site_fract_y
  _atom_site_fract_z
  _atom_site_occupancy
  Cd  Cd1       1.0  0.28194  0.49692  0.93541  1.0000
  Cd  Cd2       1.0  0.71806  0.50308  0.06459  1.0000
  H   H1        1.0  0.10758  0.14947  0.72019  1.0000
  H   H2        1.0  0.89242  0.85053  0.27981  1.0000
  H   H3        1.0  0.30794  0.00006  0.80360  1.0000
  H   H4        1.0  0.69207  0.99994  0.19640  1.0000
  H   H5        1.0  0.45445  0.03219  0.91756  1.0000
  H   H6        1.0  0.54555  0.96781  0.08244  1.0000
  H   H7        1.0  0.40575  0.22054  0.95597  1.0000
  H   H8        1.0  0.59425  0.77946  0.04403  1.0000
  H   H9        1.0  0.00648  0.53275  0.79326  1.0000
  H   H10       1.0  0.99352  0.46725  0.20674  1.0000
  H   H11       1.0  0.80665  0.48110  0.78489  1.0000
  H   H12       1.0  0.19335  0.51890  0.21511  1.0000
  H   H13       1.0  0.67036  0.48272  0.46617  1.0000
  H   H14       1.0  0.32963  0.51728  0.53383  1.0000
  H   H15       1.0  0.04570  0.33456  0.55984  1.0000
  H   H16       1.0  0.95430  0.66544  0.44016  1.0000
  H   H17       1.0  0.60292  0.70917  0.37602  1.0000
  H   H18       1.0  0.39708  0.29082  0.62398  1.0000
  H   H19       1.0  0.41169  0.86730  0.27508  1.0000
  H   H20       1.0  0.58831  0.13270  0.72492  1.0000
  H   H21       1.0  0.21820  0.88334  0.40166  1.0000
  H   H22       1.0  0.78179  0.11666  0.59834  1.0000
  H   H23       1.0  0.21058  0.74035  0.63818  1.0000
  H   H24       1.0  0.78942  0.25965  0.36182  1.0000
  H   H25       1.0  0.59268  0.42481  0.85818  1.0000
  H   H26       1.0  0.40732  0.57519  0.14182  1.0000
  H   H27       1.0  0.20913  0.80454  0.07079  1.0000
  H   H28       1.0  0.79087  0.19546  0.92921  1.0000
  H   H29       1.0  0.18840  0.94678  0.16451  1.0000
  H   H30       1.0  0.81160  0.05322  0.83549  1.0000
  H   H31       1.0  0.06987  0.13471  0.18376  1.0000
  H   H32       1.0  0.93013  0.86529  0.81624  1.0000
  H   H33       1.0  0.26790  0.15154  0.39861  1.0000
  H   H34       1.0  0.73210  0.84846  0.60139  1.0000
  H   H35       1.0  0.26542  0.97998  0.62636  1.0000
  H   H36       1.0  0.73458  0.02002  0.37364  1.0000
  H   H37       1.0  0.38300  0.80232  0.81755  1.0000
  H   H38       1.0  0.61700  0.19768  0.18245  1.0000
  C   C1        1.0  0.14734  0.27296  0.78716  1.0000
  C   C2        1.0  0.85266  0.72704  0.21284  1.0000
  C   C3        1.0  0.17282  0.16813  0.76726  1.0000
  C   C4        1.0  0.82719  0.83187  0.23274  1.0000
  C   C5        1.0  0.28462  0.08332  0.81624  1.0000
  C   C6        1.0  0.71538  0.91667  0.18376  1.0000
  C   C7        1.0  0.36819  0.10188  0.88225  1.0000
  C   C8        1.0  0.63182  0.89812  0.11775  1.0000
  C   C9        1.0  0.34296  0.20585  0.90307  1.0000
  C   C10       1.0  0.65704  0.79415  0.09693  1.0000
  C   C11       1.0  0.23044  0.29161  0.85475  1.0000
  C   C12       1.0  0.76956  0.70839  0.14525  1.0000
  C   C13       1.0  0.06933  0.44626  0.80535  1.0000
  C   C14       1.0  0.93067  0.55374  0.19465  1.0000
  C   C15       1.0  0.93981  0.40101  0.68419  1.0000
  C   C16       1.0  0.06019  0.59899  0.31582  1.0000
  C   C17       1.0  0.82247  0.45949  0.70748  1.0000
  C   C18       1.0  0.17754  0.54051  0.29252  1.0000
  C   C19       1.0  0.72401  0.48898  0.62817  1.0000
  C   C20       1.0  0.27599  0.51102  0.37183  1.0000
  C   C21       1.0  0.74645  0.46190  0.52821  1.0000
  C   C22       1.0  0.25355  0.53810  0.47179  1.0000
  C   C23       1.0  0.95403  0.37679  0.58230  1.0000
  C   C24       1.0  0.04597  0.62321  0.41770  1.0000
  C   C25       1.0  0.51203  0.63421  0.56468  1.0000
  C   C26       1.0  0.48797  0.36579  0.43532  1.0000
  C   C27       1.0  0.51809  0.71329  0.43306  1.0000
  C   C28       1.0  0.48192  0.28671  0.56694  1.0000
  C   C29       1.0  0.40987  0.80233  0.37738  1.0000
  C   C30       1.0  0.59013  0.19767  0.62262  1.0000
  C   C31       1.0  0.30021  0.81194  0.44962  1.0000
  C   C32       1.0  0.69979  0.18806  0.55038  1.0000
  C   C33       1.0  0.29439  0.73307  0.58087  1.0000
  C   C34       1.0  0.70561  0.26693  0.41913  1.0000
  C   C35       1.0  0.40228  0.64385  0.63812  1.0000
  C   C36       1.0  0.59772  0.35615  0.36188  1.0000
  C   C37       1.0  0.54398  0.49841  0.77170  1.0000
  C   C38       1.0  0.45602  0.50159  0.22831  1.0000
  C   C39       1.0  0.14750  0.71354  0.93029  1.0000
  C   C40       1.0  0.85250  0.28646  0.06971  1.0000
  C   C41       1.0  0.07726  0.82579  0.94202  1.0000
  C   C42       1.0  0.92274  0.17421  0.05798  1.0000
  C   C43       1.0  0.12184  0.85958  0.02025  1.0000
  C   C44       1.0  0.87816  0.14042  0.97975  1.0000
  C   C45       1.0  0.05678  0.96401  0.03459  1.0000
  C   C46       1.0  0.94322  0.03599  0.96541  1.0000
  C   C47       1.0  0.10086  0.00084  0.11391  1.0000
  C   C48       1.0  0.89914  0.99916  0.88609  1.0000
  C   C49       1.0  0.03595  0.10365  0.12535  1.0000
  C   C50       1.0  0.96405  0.89635  0.87464  1.0000
  C   C51       1.0  0.36924  0.29138  0.16466  1.0000
  C   C52       1.0  0.63076  0.70862  0.83534  1.0000
  C   C53       1.0  0.43545  0.18269  0.28044  1.0000
  C   C54       1.0  0.56455  0.81732  0.71956  1.0000
  C   C55       1.0  0.36971  0.12081  0.39424  1.0000
  C   C56       1.0  0.63029  0.87919  0.60576  1.0000
  C   C57       1.0  0.43287  0.01907  0.50386  1.0000
  C   C58       1.0  0.56713  0.98093  0.49615  1.0000
  C   C59       1.0  0.36791  0.95273  0.62141  1.0000
  C   C60       1.0  0.63209  0.04728  0.37859  1.0000
  C   C61       1.0  0.43184  0.85504  0.72688  1.0000
  C   C62       1.0  0.56816  0.14496  0.27312  1.0000
  N   N1        1.0  0.04480  0.37295  0.75754  1.0000
  N   N2        1.0  0.95520  0.62705  0.24246  1.0000
  N   N3        1.0  0.17825  0.40063  0.86347  1.0000
  N   N4        1.0  0.82176  0.59937  0.13653  1.0000
  N   N5        1.0  0.85969  0.40727  0.50582  1.0000
  N   N6        1.0  0.14031  0.59273  0.49418  1.0000
  N   N7        1.0  0.60094  0.54024  0.65294  1.0000
  N   N8        1.0  0.39906  0.45976  0.34706  1.0000
  N   N9        1.0  0.42605  0.55732  0.76604  1.0000
  N   N10       1.0  0.57395  0.44268  0.23396  1.0000
  O   O1        1.0  0.10839  0.68395  0.85659  1.0000
  O   O2        1.0  0.89161  0.31606  0.14341  1.0000
  O   O3        1.0  0.24637  0.64942  0.99776  1.0000
  O   O4        1.0  0.75363  0.35058  0.00224  1.0000
  O   O5        1.0  0.25650  0.34263  0.17337  1.0000
  O   O6        1.0  0.74350  0.65737  0.82664  1.0000
  O   O7        1.0  0.43294  0.32973  0.05867  1.0000
  O   O8        1.0  0.56706  0.67028  0.94134  1.0000
