data_image0
_chemical_formula_structural       Li4H44C48O24
_chemical_formula_sum              "Li4 H44 C48 O24"
_cell_length_a       7.98132
_cell_length_b       7.86584
_cell_length_c       18.7883
_cell_angle_alpha    89.9997
_cell_angle_beta     90.0005
_cell_angle_gamma    110.659

_space_group_name_H-M_alt    "P 1"
_space_group_IT_number       1

loop_
  _space_group_symop_operation_xyz
  'x, y, z'

loop_
  _atom_site_type_symbol
  _atom_site_label
  _atom_site_symmetry_multiplicity
  _atom_site_fract_x
  _atom_site_fract_y
  _atom_site_fract_z
  _atom_site_occupancy
  Li  Li1       1.0  0.68684  0.26633  0.02713  1.0000
  Li  Li2       1.0  0.81316  0.73367  0.52713  1.0000
  Li  Li3       1.0  0.31316  0.73367  0.97287  1.0000
  Li  Li4       1.0  0.18684  0.26633  0.47287  1.0000
  H   H1        1.0  0.35038  0.15695  0.02597  1.0000
  H   H2        1.0  0.14961  0.84304  0.52597  1.0000
  H   H3        1.0  0.64962  0.84305  0.97403  1.0000
  H   H4        1.0  0.85038  0.15695  0.47403  1.0000
  H   H5        1.0  0.39994  0.01628  0.07399  1.0000
  H   H6        1.0  0.10005  0.98372  0.57399  1.0000
  H   H7        1.0  0.60005  0.98371  0.92601  1.0000
  H   H8        1.0  0.89994  0.01629  0.42601  1.0000
  H   H9        1.0  0.77231  0.55074  0.95679  1.0000
  H   H10       1.0  0.72770  0.44926  0.45679  1.0000
  H   H11       1.0  0.22769  0.44925  0.04321  1.0000
  H   H12       1.0  0.27232  0.55075  0.54321  1.0000
  H   H13       1.0  0.84811  0.04836  0.06483  1.0000
  H   H14       1.0  0.65189  0.95164  0.56482  1.0000
  H   H15       1.0  0.15190  0.95164  0.93517  1.0000
  H   H16       1.0  0.34810  0.04836  0.43518  1.0000
  H   H17       1.0  0.97584  0.24847  0.08446  1.0000
  H   H18       1.0  0.52416  0.75153  0.58446  1.0000
  H   H19       1.0  0.02416  0.75153  0.91554  1.0000
  H   H20       1.0  0.47584  0.24846  0.41554  1.0000
  H   H21       1.0  0.43272  0.08711  0.86093  1.0000
  H   H22       1.0  0.06730  0.91289  0.36093  1.0000
  H   H23       1.0  0.56728  0.91288  0.13907  1.0000
  H   H24       1.0  0.93271  0.08711  0.63907  1.0000
  H   H25       1.0  0.21199  0.83045  0.80184  1.0000
  H   H26       1.0  0.28803  0.16955  0.30185  1.0000
  H   H27       1.0  0.78801  0.16954  0.19815  1.0000
  H   H28       1.0  0.71199  0.83045  0.69815  1.0000
  H   H29       1.0  0.20685  0.80756  0.66818  1.0000
  H   H30       1.0  0.29316  0.19246  0.16818  1.0000
  H   H31       1.0  0.79314  0.19245  0.33182  1.0000
  H   H32       1.0  0.70686  0.80754  0.83182  1.0000
  H   H33       1.0  0.42677  0.04439  0.59735  1.0000
  H   H34       1.0  0.07324  0.95563  0.09735  1.0000
  H   H35       1.0  0.57323  0.95562  0.40265  1.0000
  H   H36       1.0  0.92677  0.04437  0.90265  1.0000
  H   H37       1.0  0.91290  0.59543  0.65011  1.0000
  H   H38       1.0  0.58710  0.40459  0.15011  1.0000
  H   H39       1.0  0.08710  0.40458  0.34989  1.0000
  H   H40       1.0  0.41290  0.59542  0.84989  1.0000
  H   H41       1.0  0.91908  0.61717  0.78161  1.0000
  H   H42       1.0  0.58092  0.38284  0.28161  1.0000
  H   H43       1.0  0.08091  0.38283  0.21839  1.0000
  H   H44       1.0  0.41909  0.61717  0.71839  1.0000
  C   C1        1.0  0.56835  0.19857  0.68803  1.0000
  C   C2        1.0  0.93166  0.80144  0.18803  1.0000
  C   C3        1.0  0.43165  0.80143  0.31197  1.0000
  C   C4        1.0  0.06835  0.19856  0.81197  1.0000
  C   C5        1.0  0.57125  0.21133  0.76461  1.0000
  C   C6        1.0  0.92876  0.78867  0.26461  1.0000
  C   C7        1.0  0.42874  0.78866  0.23539  1.0000
  C   C8        1.0  0.07125  0.21133  0.73540  1.0000
  C   C9        1.0  0.43780  0.07555  0.80353  1.0000
  C   C10       1.0  0.06220  0.92445  0.30354  1.0000
  C   C11       1.0  0.56219  0.92444  0.19646  1.0000
  C   C12       1.0  0.93780  0.07555  0.69646  1.0000
  C   C13       1.0  0.31172  0.93163  0.76974  1.0000
  C   C14       1.0  0.18829  0.06837  0.26974  1.0000
  C   C15       1.0  0.68827  0.06836  0.23025  1.0000
  C   C16       1.0  0.81172  0.93163  0.73025  1.0000
  C   C17       1.0  0.30889  0.91889  0.69505  1.0000
  C   C18       1.0  0.19112  0.08112  0.19506  1.0000
  C   C19       1.0  0.69110  0.08111  0.30494  1.0000
  C   C20       1.0  0.80889  0.91888  0.80494  1.0000
  C   C21       1.0  0.43318  0.05083  0.65515  1.0000
  C   C22       1.0  0.06683  0.94919  0.15515  1.0000
  C   C23       1.0  0.56682  0.94917  0.34484  1.0000
  C   C24       1.0  0.93318  0.05082  0.84484  1.0000
  C   C25       1.0  0.69711  0.33791  0.64745  1.0000
  C   C26       1.0  0.80289  0.66209  0.14745  1.0000
  C   C27       1.0  0.30289  0.66208  0.35255  1.0000
  C   C28       1.0  0.19710  0.33791  0.85255  1.0000
  C   C29       1.0  0.81715  0.48804  0.68148  1.0000
  C   C30       1.0  0.68285  0.51197  0.18148  1.0000
  C   C31       1.0  0.18284  0.51196  0.31852  1.0000
  C   C32       1.0  0.31716  0.48804  0.81852  1.0000
  C   C33       1.0  0.82073  0.50013  0.75608  1.0000
  C   C34       1.0  0.67927  0.49988  0.25608  1.0000
  C   C35       1.0  0.17927  0.49986  0.24392  1.0000
  C   C36       1.0  0.32073  0.50013  0.74392  1.0000
  C   C37       1.0  0.70398  0.36391  0.79781  1.0000
  C   C38       1.0  0.79603  0.63610  0.29781  1.0000
  C   C39       1.0  0.29602  0.63609  0.20219  1.0000
  C   C40       1.0  0.20398  0.36391  0.70219  1.0000
  C   C41       1.0  0.72032  0.38274  0.87650  1.0000
  C   C42       1.0  0.77968  0.61726  0.37649  1.0000
  C   C43       1.0  0.27967  0.61726  0.12350  1.0000
  C   C44       1.0  0.22033  0.38274  0.62351  1.0000
  C   C45       1.0  0.71381  0.32449  0.56822  1.0000
  C   C46       1.0  0.78621  0.67553  0.06821  1.0000
  C   C47       1.0  0.28620  0.67551  0.43178  1.0000
  C   C48       1.0  0.21380  0.32448  0.93179  1.0000
  O   O1        1.0  0.67884  0.25221  0.91895  1.0000
  O   O2        1.0  0.82117  0.74780  0.41896  1.0000
  O   O3        1.0  0.32115  0.74777  0.08105  1.0000
  O   O4        1.0  0.17884  0.25221  0.58105  1.0000
  O   O5        1.0  0.44525  0.14195  0.05681  1.0000
  O   O6        1.0  0.05474  0.85805  0.55681  1.0000
  O   O7        1.0  0.55475  0.85804  0.94319  1.0000
  O   O8        1.0  0.94525  0.14195  0.44319  1.0000
  O   O9        1.0  0.78267  0.55328  0.89983  1.0000
  O   O10       1.0  0.71734  0.44672  0.39983  1.0000
  O   O11       1.0  0.21733  0.44671  0.10017  1.0000
  O   O12       1.0  0.28267  0.55329  0.60017  1.0000
  O   O13       1.0  0.85582  0.17688  0.06795  1.0000
  O   O14       1.0  0.64418  0.82312  0.56795  1.0000
  O   O15       1.0  0.14418  0.82312  0.93205  1.0000
  O   O16       1.0  0.35582  0.17688  0.43205  1.0000
  O   O17       1.0  0.70517  0.17570  0.53991  1.0000
  O   O18       1.0  0.79484  0.82430  0.03991  1.0000
  O   O19       1.0  0.29482  0.82430  0.46009  1.0000
  O   O20       1.0  0.20517  0.17570  0.96009  1.0000
  O   O21       1.0  0.74230  0.47101  0.53221  1.0000
  O   O22       1.0  0.75770  0.52900  0.03221  1.0000
  O   O23       1.0  0.25770  0.52900  0.46779  1.0000
  O   O24       1.0  0.24230  0.47100  0.96779  1.0000
