data_image0
_chemical_formula_structural       Ba4H52C60N4O20
_chemical_formula_sum              "Ba4 H52 C60 N4 O20"
_cell_length_a       7.07518
_cell_length_b       14.5124
_cell_length_c       15.1471
_cell_angle_alpha    90.0002
_cell_angle_beta     90
_cell_angle_gamma    89.9986

_space_group_name_H-M_alt    "P 1"
_space_group_IT_number       1

loop_
  _space_group_symop_operation_xyz
  'x, y, z'

loop_
  _atom_site_type_symbol
  _atom_site_label
  _atom_site_symmetry_multiplicity
  _atom_site_fract_x
  _atom_site_fract_y
  _atom_site_fract_z
  _atom_site_occupancy
  Ba  Ba1       1.0  0.94185  0.19237  0.43938  1.0000
  Ba  Ba2       1.0  0.55814  0.80764  0.93938  1.0000
  Ba  Ba3       1.0  0.05816  0.69238  0.06062  1.0000
  Ba  Ba4       1.0  0.44184  0.30763  0.56062  1.0000
  H   H1        1.0  0.95137  0.50162  0.58883  1.0000
  H   H2        1.0  0.54866  0.49838  0.08883  1.0000
  H   H3        1.0  0.04864  0.00162  0.91117  1.0000
  H   H4        1.0  0.45137  0.99838  0.41117  1.0000
  H   H5        1.0  0.87660  0.22178  0.75199  1.0000
  H   H6        1.0  0.62342  0.77822  0.25199  1.0000
  H   H7        1.0  0.12339  0.72178  0.74800  1.0000
  H   H8        1.0  0.37660  0.27822  0.24801  1.0000
  H   H9        1.0  0.82846  0.18288  0.90951  1.0000
  H   H10       1.0  0.67154  0.81711  0.40951  1.0000
  H   H11       1.0  0.17153  0.68289  0.59049  1.0000
  H   H12       1.0  0.32847  0.31711  0.09049  1.0000
  H   H13       1.0  0.78620  0.30888  0.02077  1.0000
  H   H14       1.0  0.71380  0.69112  0.52077  1.0000
  H   H15       1.0  0.21380  0.80888  0.47923  1.0000
  H   H16       1.0  0.28619  0.19112  0.97923  1.0000
  H   H17       1.0  0.78712  0.47211  0.97283  1.0000
  H   H18       1.0  0.71287  0.52790  0.47283  1.0000
  H   H19       1.0  0.21289  0.97211  0.52718  1.0000
  H   H20       1.0  0.28712  0.02789  0.02718  1.0000
  H   H21       1.0  0.85923  0.62629  0.69485  1.0000
  H   H22       1.0  0.64079  0.37371  0.19485  1.0000
  H   H23       1.0  0.14077  0.12629  0.80515  1.0000
  H   H24       1.0  0.35923  0.87371  0.30515  1.0000
  H   H25       1.0  0.89029  0.93003  0.26090  1.0000
  H   H26       1.0  0.60971  0.06998  0.76090  1.0000
  H   H27       1.0  0.10970  0.43003  0.23909  1.0000
  H   H28       1.0  0.39029  0.56997  0.73910  1.0000
  H   H29       1.0  0.81360  0.90567  0.12812  1.0000
  H   H30       1.0  0.68641  0.09432  0.62812  1.0000
  H   H31       1.0  0.18640  0.40568  0.37187  1.0000
  H   H32       1.0  0.31359  0.59433  0.87188  1.0000
  H   H33       1.0  0.91338  0.98716  0.05336  1.0000
  H   H34       1.0  0.58662  0.01283  0.55335  1.0000
  H   H35       1.0  0.08661  0.48717  0.44664  1.0000
  H   H36       1.0  0.41338  0.51284  0.94664  1.0000
  H   H37       1.0  0.66520  0.99014  0.07729  1.0000
  H   H38       1.0  0.83480  0.00986  0.57729  1.0000
  H   H39       1.0  0.33480  0.49014  0.42270  1.0000
  H   H40       1.0  0.16520  0.50987  0.92271  1.0000
  H   H41       1.0  0.84701  0.17710  0.22090  1.0000
  H   H42       1.0  0.65299  0.82289  0.72090  1.0000
  H   H43       1.0  0.15298  0.67711  0.27911  1.0000
  H   H44       1.0  0.34702  0.32290  0.77910  1.0000
  H   H45       1.0  0.69708  0.15449  0.12873  1.0000
  H   H46       1.0  0.80292  0.84551  0.62873  1.0000
  H   H47       1.0  0.30291  0.65449  0.37127  1.0000
  H   H48       1.0  0.19709  0.34551  0.87127  1.0000
  H   H49       1.0  0.94854  0.15628  0.11483  1.0000
  H   H50       1.0  0.55146  0.84372  0.61483  1.0000
  H   H51       1.0  0.05145  0.65628  0.38518  1.0000
  H   H52       1.0  0.44855  0.34372  0.88517  1.0000
  C   C1        1.0  0.92953  0.32287  0.61019  1.0000
  C   C2        1.0  0.57048  0.67713  0.11019  1.0000
  C   C3        1.0  0.07047  0.82287  0.88981  1.0000
  C   C4        1.0  0.42953  0.17713  0.38981  1.0000
  C   C5        1.0  0.76961  0.61578  0.86141  1.0000
  C   C6        1.0  0.73038  0.38422  0.36141  1.0000
  C   C7        1.0  0.23039  0.11578  0.63860  1.0000
  C   C8        1.0  0.26961  0.88422  0.13860  1.0000
  C   C9        1.0  0.91403  0.48488  0.65682  1.0000
  C   C10       1.0  0.58599  0.51512  0.15682  1.0000
  C   C11       1.0  0.08596  0.98488  0.84318  1.0000
  C   C12       1.0  0.41403  0.01511  0.34319  1.0000
  C   C13       1.0  0.90404  0.39324  0.68167  1.0000
  C   C14       1.0  0.59598  0.60676  0.18167  1.0000
  C   C15       1.0  0.09596  0.89324  0.81833  1.0000
  C   C16       1.0  0.40404  0.10676  0.31833  1.0000
  C   C17       1.0  0.86175  0.36930  0.77116  1.0000
  C   C18       1.0  0.63824  0.63070  0.27116  1.0000
  C   C19       1.0  0.13824  0.86930  0.72884  1.0000
  C   C20       1.0  0.36175  0.13070  0.22885  1.0000
  C   C21       1.0  0.85720  0.27620  0.80059  1.0000
  C   C22       1.0  0.64278  0.72380  0.30059  1.0000
  C   C23       1.0  0.14280  0.77620  0.69941  1.0000
  C   C24       1.0  0.35722  0.22380  0.19941  1.0000
  C   C25       1.0  0.83036  0.25483  0.88848  1.0000
  C   C26       1.0  0.66964  0.74517  0.38847  1.0000
  C   C27       1.0  0.16964  0.75484  0.61152  1.0000
  C   C28       1.0  0.33036  0.24516  0.11153  1.0000
  C   C29       1.0  0.80560  0.32594  0.95120  1.0000
  C   C30       1.0  0.69440  0.67406  0.45120  1.0000
  C   C31       1.0  0.19440  0.82594  0.54880  1.0000
  C   C32       1.0  0.30561  0.17406  0.04880  1.0000
  C   C33       1.0  0.80485  0.41700  0.92483  1.0000
  C   C34       1.0  0.69516  0.58300  0.42483  1.0000
  C   C35       1.0  0.19515  0.91701  0.57518  1.0000
  C   C36       1.0  0.30485  0.08299  0.07518  1.0000
  C   C37       1.0  0.83171  0.44182  0.83468  1.0000
  C   C38       1.0  0.66830  0.55818  0.33467  1.0000
  C   C39       1.0  0.16829  0.94182  0.66533  1.0000
  C   C40       1.0  0.33170  0.05818  0.16533  1.0000
  C   C41       1.0  0.82607  0.53528  0.80418  1.0000
  C   C42       1.0  0.67393  0.46472  0.30418  1.0000
  C   C43       1.0  0.17393  0.03528  0.69583  1.0000
  C   C44       1.0  0.32607  0.96472  0.19582  1.0000
  C   C45       1.0  0.86689  0.55485  0.71671  1.0000
  C   C46       1.0  0.63312  0.44515  0.21670  1.0000
  C   C47       1.0  0.13311  0.05485  0.78330  1.0000
  C   C48       1.0  0.36688  0.94515  0.28330  1.0000
  C   C49       1.0  0.88473  0.00610  0.25861  1.0000
  C   C50       1.0  0.61528  0.99390  0.75861  1.0000
  C   C51       1.0  0.11527  0.50610  0.24139  1.0000
  C   C52       1.0  0.38473  0.49390  0.74139  1.0000
  C   C53       1.0  0.80639  0.97715  0.10514  1.0000
  C   C54       1.0  0.69362  0.02285  0.60514  1.0000
  C   C55       1.0  0.19361  0.47715  0.39486  1.0000
  C   C56       1.0  0.30638  0.52285  0.89486  1.0000
  C   C57       1.0  0.83289  0.13748  0.15989  1.0000
  C   C58       1.0  0.66711  0.86252  0.65989  1.0000
  C   C59       1.0  0.16710  0.63748  0.34012  1.0000
  C   C60       1.0  0.33290  0.36252  0.84011  1.0000
  N   N1        1.0  0.83989  0.03923  0.17866  1.0000
  N   N2        1.0  0.66012  0.96077  0.67866  1.0000
  N   N3        1.0  0.16011  0.53923  0.32133  1.0000
  N   N4        1.0  0.33989  0.46077  0.82133  1.0000
  O   O1        1.0  0.80906  0.25747  0.60443  1.0000
  O   O2        1.0  0.69095  0.74253  0.10443  1.0000
  O   O3        1.0  0.19094  0.75748  0.89557  1.0000
  O   O4        1.0  0.30904  0.24252  0.39557  1.0000
  O   O5        1.0  0.06425  0.33422  0.55554  1.0000
  O   O6        1.0  0.43575  0.66578  0.05554  1.0000
  O   O7        1.0  0.93573  0.83422  0.94446  1.0000
  O   O8        1.0  0.56426  0.16578  0.44446  1.0000
  O   O9        1.0  0.82302  0.61841  0.94173  1.0000
  O   O10       1.0  0.67696  0.38159  0.44173  1.0000
  O   O11       1.0  0.17699  0.11840  0.55827  1.0000
  O   O12       1.0  0.32297  0.88159  0.05827  1.0000
  O   O13       1.0  0.66959  0.67743  0.82420  1.0000
  O   O14       1.0  0.83040  0.32256  0.32421  1.0000
  O   O15       1.0  0.33041  0.17743  0.67580  1.0000
  O   O16       1.0  0.16960  0.82257  0.17581  1.0000
  O   O17       1.0  0.91991  0.05377  0.32524  1.0000
  O   O18       1.0  0.58009  0.94623  0.82524  1.0000
  O   O19       1.0  0.08008  0.55378  0.17476  1.0000
  O   O20       1.0  0.41991  0.44623  0.67476  1.0000
