data_image0
_chemical_formula_structural       Sr4H52C60N4O20
_chemical_formula_sum              "Sr4 H52 C60 N4 O20"
_cell_length_a       6.80659
_cell_length_b       14.8517
_cell_length_c       14.7629
_cell_angle_alpha    90.0002
_cell_angle_beta     89.9999
_cell_angle_gamma    90.0001

_space_group_name_H-M_alt    "P 1"
_space_group_IT_number       1

loop_
  _space_group_symop_operation_xyz
  'x, y, z'

loop_
  _atom_site_type_symbol
  _atom_site_label
  _atom_site_symmetry_multiplicity
  _atom_site_fract_x
  _atom_site_fract_y
  _atom_site_fract_z
  _atom_site_occupancy
  Sr  Sr1       1.0  0.85361  0.19195  0.55112  1.0000
  Sr  Sr2       1.0  0.64639  0.80805  0.05112  1.0000
  Sr  Sr3       1.0  0.14639  0.69195  0.94888  1.0000
  Sr  Sr4       1.0  0.35361  0.30805  0.44888  1.0000
  H   H1        1.0  0.83992  0.33366  0.25076  1.0000
  H   H2        1.0  0.66008  0.66634  0.75076  1.0000
  H   H3        1.0  0.16008  0.83366  0.24924  1.0000
  H   H4        1.0  0.33993  0.16634  0.74924  1.0000
  H   H5        1.0  0.89026  0.44824  0.12851  1.0000
  H   H6        1.0  0.60973  0.55176  0.62852  1.0000
  H   H7        1.0  0.10973  0.94824  0.37148  1.0000
  H   H8        1.0  0.39027  0.05176  0.87149  1.0000
  H   H9        1.0  0.88118  0.50003  0.52709  1.0000
  H   H10       1.0  0.61881  0.49997  0.02710  1.0000
  H   H11       1.0  0.11881  0.00003  0.97290  1.0000
  H   H12       1.0  0.38119  0.99997  0.47290  1.0000
  H   H13       1.0  0.89057  0.66199  0.56735  1.0000
  H   H14       1.0  0.60941  0.33801  0.06736  1.0000
  H   H15       1.0  0.10942  0.16200  0.93264  1.0000
  H   H16       1.0  0.39057  0.83801  0.43264  1.0000
  H   H17       1.0  0.89311  0.77853  0.44484  1.0000
  H   H18       1.0  0.60689  0.22147  0.94484  1.0000
  H   H19       1.0  0.10689  0.27853  0.05516  1.0000
  H   H20       1.0  0.39311  0.72147  0.55516  1.0000
  H   H21       1.0  0.88896  0.73237  0.28380  1.0000
  H   H22       1.0  0.61104  0.26763  0.78380  1.0000
  H   H23       1.0  0.11104  0.23238  0.21620  1.0000
  H   H24       1.0  0.38897  0.76763  0.71620  1.0000
  H   H25       1.0  0.87807  0.88109  0.83130  1.0000
  H   H26       1.0  0.62193  0.11891  0.33130  1.0000
  H   H27       1.0  0.12193  0.38109  0.66870  1.0000
  H   H28       1.0  0.37807  0.61891  0.16870  1.0000
  H   H29       1.0  0.02246  0.81621  0.75417  1.0000
  H   H30       1.0  0.47754  0.18379  0.25416  1.0000
  H   H31       1.0  0.97754  0.31621  0.74583  1.0000
  H   H32       1.0  0.52246  0.68379  0.24584  1.0000
  H   H33       1.0  0.75957  0.81053  0.75071  1.0000
  H   H34       1.0  0.74043  0.18946  0.25071  1.0000
  H   H35       1.0  0.24043  0.31054  0.74929  1.0000
  H   H36       1.0  0.25957  0.68946  0.24929  1.0000
  H   H37       1.0  0.89347  0.96734  0.56115  1.0000
  H   H38       1.0  0.60654  0.03265  0.06115  1.0000
  H   H39       1.0  0.10652  0.46734  0.93885  1.0000
  H   H40       1.0  0.39347  0.53266  0.43885  1.0000
  H   H41       1.0  0.75615  0.86726  0.58409  1.0000
  H   H42       1.0  0.74386  0.13274  0.08410  1.0000
  H   H43       1.0  0.24384  0.36726  0.91591  1.0000
  H   H44       1.0  0.25614  0.63274  0.41591  1.0000
  H   H45       1.0  0.01896  0.86518  0.58843  1.0000
  H   H46       1.0  0.48104  0.13481  0.08843  1.0000
  H   H47       1.0  0.98103  0.36518  0.91157  1.0000
  H   H48       1.0  0.51896  0.63482  0.41157  1.0000
  H   H49       1.0  0.85927  0.02053  0.80086  1.0000
  H   H50       1.0  0.64073  0.97947  0.30086  1.0000
  H   H51       1.0  0.14073  0.52053  0.69914  1.0000
  H   H52       1.0  0.35927  0.47947  0.19914  1.0000
  C   C1        1.0  0.85802  0.35541  0.42656  1.0000
  C   C2        1.0  0.64198  0.64459  0.92656  1.0000
  C   C3        1.0  0.14199  0.85541  0.07344  1.0000
  C   C4        1.0  0.35802  0.14459  0.57344  1.0000
  C   C5        1.0  0.91918  0.62293  0.13983  1.0000
  C   C6        1.0  0.58083  0.37706  0.63984  1.0000
  C   C7        1.0  0.08082  0.12294  0.36016  1.0000
  C   C8        1.0  0.41918  0.87707  0.86017  1.0000
  C   C9        1.0  0.86313  0.42967  0.35799  1.0000
  C   C10       1.0  0.63687  0.57033  0.85800  1.0000
  C   C11       1.0  0.13688  0.92967  0.14201  1.0000
  C   C12       1.0  0.36313  0.07033  0.64201  1.0000
  C   C13       1.0  0.85686  0.40461  0.26782  1.0000
  C   C14       1.0  0.64315  0.59539  0.76783  1.0000
  C   C15       1.0  0.14314  0.90461  0.23217  1.0000
  C   C16       1.0  0.35686  0.09539  0.73217  1.0000
  C   C17       1.0  0.88061  0.46893  0.19921  1.0000
  C   C18       1.0  0.61939  0.53107  0.69922  1.0000
  C   C19       1.0  0.11939  0.96893  0.30078  1.0000
  C   C20       1.0  0.38061  0.03108  0.80078  1.0000
  C   C21       1.0  0.89371  0.55993  0.21907  1.0000
  C   C22       1.0  0.60629  0.44006  0.71908  1.0000
  C   C23       1.0  0.10629  0.05994  0.28092  1.0000
  C   C24       1.0  0.39372  0.94007  0.78093  1.0000
  C   C25       1.0  0.88616  0.58932  0.31153  1.0000
  C   C26       1.0  0.61384  0.41068  0.81154  1.0000
  C   C27       1.0  0.11384  0.08932  0.18846  1.0000
  C   C28       1.0  0.38617  0.91068  0.68847  1.0000
  C   C29       1.0  0.88002  0.52243  0.38227  1.0000
  C   C30       1.0  0.61998  0.47757  0.88227  1.0000
  C   C31       1.0  0.11999  0.02243  0.11773  1.0000
  C   C32       1.0  0.38002  0.97757  0.61773  1.0000
  C   C33       1.0  0.88320  0.55110  0.47423  1.0000
  C   C34       1.0  0.61680  0.44890  0.97423  1.0000
  C   C35       1.0  0.11680  0.05110  0.02577  1.0000
  C   C36       1.0  0.38320  0.94890  0.52577  1.0000
  C   C37       1.0  0.88871  0.64133  0.49640  1.0000
  C   C38       1.0  0.61128  0.35868  0.99641  1.0000
  C   C39       1.0  0.11129  0.14133  0.00359  1.0000
  C   C40       1.0  0.38871  0.85868  0.50360  1.0000
  C   C41       1.0  0.89106  0.70717  0.42722  1.0000
  C   C42       1.0  0.60893  0.29283  0.92723  1.0000
  C   C43       1.0  0.10894  0.20717  0.07278  1.0000
  C   C44       1.0  0.39106  0.79283  0.57278  1.0000
  C   C45       1.0  0.89033  0.68184  0.33721  1.0000
  C   C46       1.0  0.60967  0.31816  0.83722  1.0000
  C   C47       1.0  0.10967  0.18184  0.16279  1.0000
  C   C48       1.0  0.39033  0.81817  0.66279  1.0000
  C   C49       1.0  0.88616  0.85504  0.76200  1.0000
  C   C50       1.0  0.61384  0.14495  0.26200  1.0000
  C   C51       1.0  0.11384  0.35504  0.73800  1.0000
  C   C52       1.0  0.38616  0.64496  0.23800  1.0000
  C   C53       1.0  0.88790  0.90607  0.60215  1.0000
  C   C54       1.0  0.61210  0.09392  0.10215  1.0000
  C   C55       1.0  0.11209  0.40607  0.89785  1.0000
  C   C56       1.0  0.38790  0.59393  0.39786  1.0000
  C   C57       1.0  0.86504  0.01437  0.72627  1.0000
  C   C58       1.0  0.63496  0.98563  0.22627  1.0000
  C   C59       1.0  0.13496  0.51437  0.77373  1.0000
  C   C60       1.0  0.36504  0.48563  0.27373  1.0000
  N   N1        1.0  0.88206  0.92919  0.69783  1.0000
  N   N2        1.0  0.61794  0.07081  0.19783  1.0000
  N   N3        1.0  0.11794  0.42919  0.80217  1.0000
  N   N4        1.0  0.38206  0.57081  0.30217  1.0000
  O   O1        1.0  0.99375  0.35076  0.48591  1.0000
  O   O2        1.0  0.50625  0.64924  0.98591  1.0000
  O   O3        1.0  0.00625  0.85076  0.01409  1.0000
  O   O4        1.0  0.49375  0.14924  0.51409  1.0000
  O   O5        1.0  0.72118  0.29707  0.42008  1.0000
  O   O6        1.0  0.77882  0.70293  0.92008  1.0000
  O   O7        1.0  0.27882  0.79707  0.07992  1.0000
  O   O8        1.0  0.22118  0.20293  0.57992  1.0000
  O   O9        1.0  0.02180  0.59370  0.07410  1.0000
  O   O10       1.0  0.47820  0.40629  0.57410  1.0000
  O   O11       1.0  0.97820  0.09371  0.42590  1.0000
  O   O12       1.0  0.52181  0.90630  0.92590  1.0000
  O   O13       1.0  0.83639  0.69970  0.14272  1.0000
  O   O14       1.0  0.66361  0.30030  0.64273  1.0000
  O   O15       1.0  0.16361  0.19970  0.35727  1.0000
  O   O16       1.0  0.33640  0.80030  0.85727  1.0000
  O   O17       1.0  0.85551  0.08208  0.67634  1.0000
  O   O18       1.0  0.64448  0.91791  0.17634  1.0000
  O   O19       1.0  0.14448  0.58209  0.82367  1.0000
  O   O20       1.0  0.35552  0.41791  0.32367  1.0000
