data_image0
_chemical_formula_structural       Cd3H36C48N4O24
_chemical_formula_sum              "Cd3 H36 C48 N4 O24"
_cell_length_a       10.2278
_cell_length_b       10.2427
_cell_length_c       11.8706
_cell_angle_alpha    82.5247
_cell_angle_beta     78.926
_cell_angle_gamma    82.0335

_space_group_name_H-M_alt    "P 1"
_space_group_IT_number       1

loop_
  _space_group_symop_operation_xyz
  'x, y, z'

loop_
  _atom_site_type_symbol
  _atom_site_label
  _atom_site_symmetry_multiplicity
  _atom_site_fract_x
  _atom_site_fract_y
  _atom_site_fract_z
  _atom_site_occupancy
  Cd  Cd1       1.0  0.50001  0.99998  0.50002  1.0000
  Cd  Cd2       1.0  0.14237  0.07548  0.28529  1.0000
  Cd  Cd3       1.0  0.85762  0.92453  0.71471  1.0000
  H   H1        1.0  0.72668  0.81864  0.44658  1.0000
  H   H2        1.0  0.27335  0.18133  0.55344  1.0000
  H   H3        1.0  0.61670  0.75250  0.39735  1.0000
  H   H4        1.0  0.38333  0.24748  0.60266  1.0000
  H   H5        1.0  0.71141  0.13579  0.53066  1.0000
  H   H6        1.0  0.28861  0.86422  0.46930  1.0000
  H   H7        1.0  0.74128  0.11299  0.40045  1.0000
  H   H8        1.0  0.25869  0.88699  0.59954  1.0000
  H   H9        1.0  0.84486  0.09056  0.96169  1.0000
  H   H10       1.0  0.15511  0.90945  0.03831  1.0000
  H   H11       1.0  0.57701  0.07960  0.97507  1.0000
  H   H12       1.0  0.42295  0.92045  0.02496  1.0000
  H   H13       1.0  0.17866  0.40972  0.61284  1.0000
  H   H14       1.0  0.82131  0.59030  0.38719  1.0000
  H   H15       1.0  0.17565  0.68050  0.57359  1.0000
  H   H16       1.0  0.82430  0.31951  0.42641  1.0000
  H   H17       1.0  0.00218  0.44924  0.22465  1.0000
  H   H18       1.0  0.99782  0.55079  0.77534  1.0000
  H   H19       1.0  0.85746  0.35682  0.11433  1.0000
  H   H20       1.0  0.14257  0.64321  0.88564  1.0000
  H   H21       1.0  0.74021  0.76077  0.97387  1.0000
  H   H22       1.0  0.25986  0.23926  0.02611  1.0000
  H   H23       1.0  0.88456  0.83572  0.09354  1.0000
  H   H24       1.0  0.11548  0.16428  0.90647  1.0000
  H   H25       1.0  0.70799  0.38507  0.98620  1.0000
  H   H26       1.0  0.29208  0.61495  0.01378  1.0000
  H   H27       1.0  0.64947  0.66292  0.85895  1.0000
  H   H28       1.0  0.35057  0.33710  0.14103  1.0000
  H   H29       1.0  0.60255  0.29234  0.89807  1.0000
  H   H30       1.0  0.39746  0.70767  0.10194  1.0000
  H   H31       1.0  0.48626  0.19579  0.77010  1.0000
  H   H32       1.0  0.51374  0.80423  0.22992  1.0000
  H   H33       1.0  0.41468  0.55924  0.58027  1.0000
  H   H34       1.0  0.58538  0.44075  0.41971  1.0000
  H   H35       1.0  0.52624  0.67255  0.70014  1.0000
  H   H36       1.0  0.47381  0.32744  0.29983  1.0000
  C   C1        1.0  0.43161  0.08109  0.22155  1.0000
  C   C2        1.0  0.56838  0.91890  0.77848  1.0000
  C   C3        1.0  0.57027  0.08853  0.16020  1.0000
  C   C4        1.0  0.42971  0.91147  0.83982  1.0000
  C   C5        1.0  0.78638  0.09513  0.15011  1.0000
  C   C6        1.0  0.21360  0.90487  0.84990  1.0000
  C   C7        1.0  0.76739  0.09227  0.03823  1.0000
  C   C8        1.0  0.23259  0.90774  0.96178  1.0000
  C   C9        1.0  0.62817  0.08798  0.04513  1.0000
  C   C10       1.0  0.37180  0.91204  0.95490  1.0000
  C   C11       1.0  0.90675  0.09327  0.20143  1.0000
  C   C12       1.0  0.09324  0.90671  0.79856  1.0000
  C   C13       1.0  0.13989  0.77665  0.33033  1.0000
  C   C14       1.0  0.86004  0.22331  0.66967  1.0000
  C   C15       1.0  0.14902  0.64745  0.40034  1.0000
  C   C16       1.0  0.85091  0.35252  0.59968  1.0000
  C   C17       1.0  0.15182  0.43095  0.43191  1.0000
  C   C18       1.0  0.84814  0.56903  0.56812  1.0000
  C   C19       1.0  0.16866  0.47284  0.53357  1.0000
  C   C20       1.0  0.83130  0.52716  0.46645  1.0000
  C   C21       1.0  0.16647  0.61228  0.51368  1.0000
  C   C22       1.0  0.83348  0.38770  0.48633  1.0000
  C   C23       1.0  0.14170  0.30036  0.39795  1.0000
  C   C24       1.0  0.85826  0.69962  0.60207  1.0000
  C   C25       1.0  0.93880  0.51471  0.17077  1.0000
  C   C26       1.0  0.06121  0.48531  0.82923  1.0000
  C   C27       1.0  0.85907  0.46377  0.10796  1.0000
  C   C28       1.0  0.14096  0.53625  0.89201  1.0000
  C   C29       1.0  0.78480  0.55036  0.03479  1.0000
  C   C30       1.0  0.21525  0.44967  0.96520  1.0000
  C   C31       1.0  0.79405  0.68725  0.02879  1.0000
  C   C32       1.0  0.20599  0.31277  0.97119  1.0000
  C   C33       1.0  0.87414  0.73074  0.09587  1.0000
  C   C34       1.0  0.12590  0.26927  0.90414  1.0000
  C   C35       1.0  0.70852  0.49223  0.96649  1.0000
  C   C36       1.0  0.29153  0.50780  0.03349  1.0000
  C   C37       1.0  0.64567  0.55658  0.88115  1.0000
  C   C38       1.0  0.35437  0.44343  0.11884  1.0000
  C   C39       1.0  0.57572  0.49268  0.81145  1.0000
  C   C40       1.0  0.42431  0.50733  0.18854  1.0000
  C   C41       1.0  0.56223  0.35615  0.82916  1.0000
  C   C42       1.0  0.43778  0.64387  0.17084  1.0000
  C   C43       1.0  0.49754  0.30145  0.75743  1.0000
  C   C44       1.0  0.50247  0.69857  0.24258  1.0000
  C   C45       1.0  0.45703  0.50251  0.65187  1.0000
  C   C46       1.0  0.54301  0.49749  0.34811  1.0000
  C   C47       1.0  0.51978  0.56635  0.71990  1.0000
  C   C48       1.0  0.48026  0.43365  0.28007  1.0000
  N   N1        1.0  0.93954  0.64468  0.16550  1.0000
  N   N2        1.0  0.06048  0.35534  0.83451  1.0000
  N   N3        1.0  0.44561  0.37189  0.66890  1.0000
  N   N4        1.0  0.55442  0.62812  0.33110  1.0000
  O   O1        1.0  0.64667  0.83831  0.40804  1.0000
  O   O2        1.0  0.35335  0.16166  0.59198  1.0000
  O   O3        1.0  0.66572  0.13821  0.46378  1.0000
  O   O4        1.0  0.33426  0.86178  0.53620  1.0000
  O   O5        1.0  0.40432  0.07494  0.33069  1.0000
  O   O6        1.0  0.59567  0.92502  0.66934  1.0000
  O   O7        1.0  0.34380  0.08222  0.15737  1.0000
  O   O8        1.0  0.65620  0.91777  0.84266  1.0000
  O   O9        1.0  0.66638  0.09367  0.22468  1.0000
  O   O10       1.0  0.33361  0.90632  0.77533  1.0000
  O   O11       1.0  0.01926  0.09154  0.13328  1.0000
  O   O12       1.0  0.98073  0.90845  0.86671  1.0000
  O   O13       1.0  0.89373  0.09251  0.31076  1.0000
  O   O14       1.0  0.10629  0.90748  0.68923  1.0000
  O   O15       1.0  0.17890  0.87169  0.37260  1.0000
  O   O16       1.0  0.82111  0.12827  0.62730  1.0000
  O   O17       1.0  0.09770  0.79146  0.23618  1.0000
  O   O18       1.0  0.90212  0.20846  0.76383  1.0000
  O   O19       1.0  0.13967  0.53747  0.35023  1.0000
  O   O20       1.0  0.86026  0.46250  0.64979  1.0000
  O   O21       1.0  0.12309  0.29740  0.29438  1.0000
  O   O22       1.0  0.87681  0.70262  0.70565  1.0000
  O   O23       1.0  0.15144  0.19844  0.46983  1.0000
  O   O24       1.0  0.84858  0.80152  0.53014  1.0000
