data_image0
_chemical_formula_structural       K4H20C32O8
_chemical_formula_sum              "K4 H20 C32 O8"
_cell_length_a       3.86337
_cell_length_b       11.3208
_cell_length_c       16.2199
_cell_angle_alpha    93.4313
_cell_angle_beta     90.0005
_cell_angle_gamma    89.9996

_space_group_name_H-M_alt    "P 1"
_space_group_IT_number       1

loop_
  _space_group_symop_operation_xyz
  'x, y, z'

loop_
  _atom_site_type_symbol
  _atom_site_label
  _atom_site_symmetry_multiplicity
  _atom_site_fract_x
  _atom_site_fract_y
  _atom_site_fract_z
  _atom_site_occupancy
  K   K1        1.0  0.31473  0.37725  0.06354  1.0000
  K   K2        1.0  0.81474  0.12275  0.93646  1.0000
  K   K3        1.0  0.68525  0.62275  0.93646  1.0000
  K   K4        1.0  0.18527  0.87726  0.06354  1.0000
  H   H1        1.0  0.37633  0.77595  0.25309  1.0000
  H   H2        1.0  0.87634  0.72405  0.74692  1.0000
  H   H3        1.0  0.62367  0.22405  0.74692  1.0000
  H   H4        1.0  0.12366  0.27595  0.25309  1.0000
  H   H5        1.0  0.26031  0.73667  0.39936  1.0000
  H   H6        1.0  0.76032  0.76333  0.60064  1.0000
  H   H7        1.0  0.73968  0.26333  0.60064  1.0000
  H   H8        1.0  0.23968  0.23667  0.39936  1.0000
  H   H9        1.0  0.72088  0.39045  0.35926  1.0000
  H   H10       1.0  0.22089  0.10954  0.64074  1.0000
  H   H11       1.0  0.27911  0.60954  0.64074  1.0000
  H   H12       1.0  0.77912  0.89045  0.35926  1.0000
  H   H13       1.0  0.82751  0.43031  0.21413  1.0000
  H   H14       1.0  0.32752  0.06969  0.78587  1.0000
  H   H15       1.0  0.17248  0.56969  0.78587  1.0000
  H   H16       1.0  0.67249  0.93031  0.21413  1.0000
  H   H17       1.0  0.26966  0.61095  0.51091  1.0000
  H   H18       1.0  0.76967  0.88904  0.48909  1.0000
  H   H19       1.0  0.73033  0.38904  0.48909  1.0000
  H   H20       1.0  0.23033  0.11096  0.51091  1.0000
  C   C1        1.0  0.70651  0.63042  0.13590  1.0000
  C   C2        1.0  0.20651  0.86958  0.86410  1.0000
  C   C3        1.0  0.29349  0.36958  0.86410  1.0000
  C   C4        1.0  0.79349  0.13042  0.13590  1.0000
  C   C5        1.0  0.62148  0.60748  0.22425  1.0000
  C   C6        1.0  0.12148  0.89252  0.77575  1.0000
  C   C7        1.0  0.37852  0.39252  0.77575  1.0000
  C   C8        1.0  0.87852  0.10748  0.22425  1.0000
  C   C9        1.0  0.45640  0.69236  0.27704  1.0000
  C   C10       1.0  0.95640  0.80764  0.72296  1.0000
  C   C11       1.0  0.54360  0.30764  0.72296  1.0000
  C   C12       1.0  0.04360  0.19236  0.27704  1.0000
  C   C13       1.0  0.39208  0.67012  0.35910  1.0000
  C   C14       1.0  0.89208  0.82988  0.64090  1.0000
  C   C15       1.0  0.60792  0.32988  0.64090  1.0000
  C   C16       1.0  0.10793  0.17012  0.35910  1.0000
  C   C17       1.0  0.49320  0.56256  0.39166  1.0000
  C   C18       1.0  0.99320  0.93744  0.60834  1.0000
  C   C19       1.0  0.50680  0.43743  0.60834  1.0000
  C   C20       1.0  0.00680  0.06256  0.39166  1.0000
  C   C21       1.0  0.64804  0.47615  0.33731  1.0000
  C   C22       1.0  0.14806  0.02385  0.66269  1.0000
  C   C23       1.0  0.35194  0.52385  0.66269  1.0000
  C   C24       1.0  0.85196  0.97615  0.33731  1.0000
  C   C25       1.0  0.70892  0.49820  0.25547  1.0000
  C   C26       1.0  0.20894  0.00180  0.74453  1.0000
  C   C27       1.0  0.29107  0.50180  0.74453  1.0000
  C   C28       1.0  0.79108  0.99820  0.25547  1.0000
  C   C29       1.0  0.43467  0.54462  0.47867  1.0000
  C   C30       1.0  0.93468  0.95538  0.52133  1.0000
  C   C31       1.0  0.56532  0.45538  0.52133  1.0000
  C   C32       1.0  0.06533  0.04462  0.47867  1.0000
  O   O1        1.0  0.81782  0.54350  0.08958  1.0000
  O   O2        1.0  0.31783  0.95650  0.91042  1.0000
  O   O3        1.0  0.18217  0.45650  0.91042  1.0000
  O   O4        1.0  0.68218  0.04351  0.08958  1.0000
  O   O5        1.0  0.66377  0.73445  0.11149  1.0000
  O   O6        1.0  0.16376  0.76555  0.88851  1.0000
  O   O7        1.0  0.33623  0.26555  0.88851  1.0000
  O   O8        1.0  0.83623  0.23445  0.11150  1.0000
