data_image0
_chemical_formula_structural       K4H28C32O12
_chemical_formula_sum              "K4 H28 C32 O12"
_cell_length_a       3.80066
_cell_length_b       11.1798
_cell_length_c       18.074
_cell_angle_alpha    94.3802
_cell_angle_beta     90
_cell_angle_gamma    89.9998

_space_group_name_H-M_alt    "P 1"
_space_group_IT_number       1

loop_
  _space_group_symop_operation_xyz
  'x, y, z'

loop_
  _atom_site_type_symbol
  _atom_site_label
  _atom_site_symmetry_multiplicity
  _atom_site_fract_x
  _atom_site_fract_y
  _atom_site_fract_z
  _atom_site_occupancy
  K   K1        1.0  0.64617  0.38839  0.09345  1.0000
  K   K2        1.0  0.14617  0.11161  0.90655  1.0000
  K   K3        1.0  0.35384  0.61161  0.90655  1.0000
  K   K4        1.0  0.85383  0.88839  0.09345  1.0000
  H   H1        1.0  0.05235  0.38852  0.93505  1.0000
  H   H2        1.0  0.55236  0.11148  0.06495  1.0000
  H   H3        1.0  0.94764  0.61148  0.06495  1.0000
  H   H4        1.0  0.44764  0.88852  0.93505  1.0000
  H   H5        1.0  0.41796  0.32852  0.94082  1.0000
  H   H6        1.0  0.91797  0.17148  0.05918  1.0000
  H   H7        1.0  0.58203  0.67148  0.05918  1.0000
  H   H8        1.0  0.08204  0.82851  0.94082  1.0000
  H   H9        1.0  0.73410  0.61226  0.51241  1.0000
  H   H10       1.0  0.23408  0.88774  0.48759  1.0000
  H   H11       1.0  0.26592  0.38774  0.48759  1.0000
  H   H12       1.0  0.76591  0.11226  0.51241  1.0000
  H   H13       1.0  0.15369  0.44037  0.24294  1.0000
  H   H14       1.0  0.65368  0.05963  0.75706  1.0000
  H   H15       1.0  0.84632  0.55963  0.75706  1.0000
  H   H16       1.0  0.34632  0.94037  0.24294  1.0000
  H   H17       1.0  0.26095  0.39563  0.37211  1.0000
  H   H18       1.0  0.76094  0.10437  0.62789  1.0000
  H   H19       1.0  0.73907  0.60437  0.62789  1.0000
  H   H20       1.0  0.23906  0.89563  0.37211  1.0000
  H   H21       1.0  0.64823  0.78460  0.28405  1.0000
  H   H22       1.0  0.14825  0.71540  0.71595  1.0000
  H   H23       1.0  0.35175  0.21540  0.71595  1.0000
  H   H24       1.0  0.85174  0.28460  0.28405  1.0000
  H   H25       1.0  0.75671  0.74145  0.41490  1.0000
  H   H26       1.0  0.25671  0.75855  0.58511  1.0000
  H   H27       1.0  0.24330  0.25855  0.58510  1.0000
  H   H28       1.0  0.74328  0.24145  0.41490  1.0000
  C   C1        1.0  0.30369  0.64343  0.17709  1.0000
  C   C2        1.0  0.80370  0.85657  0.82291  1.0000
  C   C3        1.0  0.69631  0.35657  0.82291  1.0000
  C   C4        1.0  0.19630  0.14343  0.17709  1.0000
  C   C5        1.0  0.56619  0.54599  0.48194  1.0000
  C   C6        1.0  0.06618  0.95401  0.51806  1.0000
  C   C7        1.0  0.43383  0.45402  0.51806  1.0000
  C   C8        1.0  0.93381  0.04599  0.48194  1.0000
  C   C9        1.0  0.28231  0.50671  0.28118  1.0000
  C   C10       1.0  0.78231  0.99329  0.71882  1.0000
  C   C11       1.0  0.71770  0.49329  0.71882  1.0000
  C   C12       1.0  0.21769  0.00671  0.28118  1.0000
  C   C13       1.0  0.38338  0.61713  0.25548  1.0000
  C   C14       1.0  0.88338  0.88287  0.74452  1.0000
  C   C15       1.0  0.61662  0.38287  0.74452  1.0000
  C   C16       1.0  0.11661  0.11713  0.25548  1.0000
  C   C17       1.0  0.34283  0.48209  0.35404  1.0000
  C   C18       1.0  0.84282  0.01791  0.64597  1.0000
  C   C19       1.0  0.65719  0.51791  0.64597  1.0000
  C   C20       1.0  0.15718  0.98209  0.35404  1.0000
  C   C21       1.0  0.50697  0.56702  0.40444  1.0000
  C   C22       1.0  0.00697  0.93298  0.59556  1.0000
  C   C23       1.0  0.49305  0.43298  0.59556  1.0000
  C   C24       1.0  0.99303  0.06702  0.40444  1.0000
  C   C25       1.0  0.55821  0.70055  0.30429  1.0000
  C   C26       1.0  0.05822  0.79945  0.69571  1.0000
  C   C27       1.0  0.44179  0.29945  0.69571  1.0000
  C   C28       1.0  0.94178  0.20055  0.30429  1.0000
  C   C29       1.0  0.61848  0.67595  0.37750  1.0000
  C   C30       1.0  0.11848  0.82405  0.62250  1.0000
  C   C31       1.0  0.38153  0.32405  0.62249  1.0000
  C   C32       1.0  0.88151  0.17595  0.37751  1.0000
  O   O1        1.0  0.22412  0.36064  0.97263  1.0000
  O   O2        1.0  0.72412  0.13936  0.02737  1.0000
  O   O3        1.0  0.77588  0.63936  0.02737  1.0000
  O   O4        1.0  0.27588  0.86064  0.97263  1.0000
  O   O5        1.0  0.15856  0.55933  0.13527  1.0000
  O   O6        1.0  0.65856  0.94068  0.86473  1.0000
  O   O7        1.0  0.84143  0.44067  0.86473  1.0000
  O   O8        1.0  0.34143  0.05933  0.13527  1.0000
  O   O9        1.0  0.38465  0.74509  0.15483  1.0000
  O   O10       1.0  0.88464  0.75491  0.84517  1.0000
  O   O11       1.0  0.61533  0.25491  0.84517  1.0000
  O   O12       1.0  0.11534  0.24509  0.15483  1.0000
