data_image0
_chemical_formula_structural       Cd2H10C12N6Cl4
_chemical_formula_sum              "Cd2 H10 C12 N6 Cl4"
_cell_length_a       3.78671
_cell_length_b       10.8713
_cell_length_c       11.2019
_cell_angle_alpha    112.647
_cell_angle_beta     89.9995
_cell_angle_gamma    90

_space_group_name_H-M_alt    "P 1"
_space_group_IT_number       1

loop_
  _space_group_symop_operation_xyz
  'x, y, z'

loop_
  _atom_site_type_symbol
  _atom_site_label
  _atom_site_symmetry_multiplicity
  _atom_site_fract_x
  _atom_site_fract_y
  _atom_site_fract_z
  _atom_site_occupancy
  Cd  Cd1       1.0  0.71876  0.51447  0.34705  1.0000
  Cd  Cd2       1.0  0.21876  0.48552  0.65294  1.0000
  H   H1        1.0  0.45829  0.57789  0.07884  1.0000
  H   H2        1.0  0.95830  0.42211  0.92116  1.0000
  H   H3        1.0  0.15659  0.79515  0.98834  1.0000
  H   H4        1.0  0.65661  0.20485  0.01167  1.0000
  H   H5        1.0  0.06646  0.04341  0.07742  1.0000
  H   H6        1.0  0.56648  0.95658  0.92258  1.0000
  H   H7        1.0  0.25836  0.18210  0.30182  1.0000
  H   H8        1.0  0.75840  0.81790  0.69819  1.0000
  H   H9        1.0  0.54372  0.07311  0.43882  1.0000
  H   H10       1.0  0.04376  0.92690  0.56118  1.0000
  C   C1        1.0  0.49437  0.67385  0.15710  1.0000
  C   C2        1.0  0.99439  0.32615  0.84290  1.0000
  C   C3        1.0  0.40197  0.80116  0.16472  1.0000
  C   C4        1.0  0.90198  0.19884  0.83528  1.0000
  C   C5        1.0  0.23973  0.85917  0.08558  1.0000
  C   C6        1.0  0.73976  0.14083  0.91442  1.0000
  C   C7        1.0  0.19085  0.99513  0.13549  1.0000
  C   C8        1.0  0.69086  0.00487  0.86451  1.0000
  C   C9        1.0  0.29968  0.07490  0.26323  1.0000
  C   C10       1.0  0.79970  0.92509  0.73677  1.0000
  C   C11       1.0  0.45757  0.01882  0.33988  1.0000
  C   C12       1.0  0.95760  0.98119  0.66012  1.0000
  N   N1        1.0  0.50582  0.88343  0.28933  1.0000
  N   N2        1.0  0.00585  0.11657  0.71067  1.0000
  N   N3        1.0  0.65194  0.81287  0.35343  1.0000
  N   N4        1.0  0.15196  0.18713  0.64658  1.0000
  N   N5        1.0  0.63940  0.68651  0.27111  1.0000
  N   N6        1.0  0.13942  0.31349  0.72889  1.0000
  Cl  Cl1       1.0  0.21176  0.38036  0.18942  1.0000
  Cl  Cl2       1.0  0.71175  0.61964  0.81057  1.0000
  Cl  Cl3       1.0  0.71316  0.35434  0.48040  1.0000
  Cl  Cl4       1.0  0.21315  0.64566  0.51959  1.0000
