data_image0
_chemical_formula_structural       Cu4H28C36N4Cl4
_chemical_formula_sum              "Cu4 H28 C36 N4 Cl4"
_cell_length_a       3.73589
_cell_length_b       13.8983
_cell_length_c       15.3375
_cell_angle_alpha    89.9988
_cell_angle_beta     89.9994
_cell_angle_gamma    90.0009

_space_group_name_H-M_alt    "P 1"
_space_group_IT_number       1

loop_
  _space_group_symop_operation_xyz
  'x, y, z'

loop_
  _atom_site_type_symbol
  _atom_site_label
  _atom_site_symmetry_multiplicity
  _atom_site_fract_x
  _atom_site_fract_y
  _atom_site_fract_z
  _atom_site_occupancy
  Cu  Cu1       1.0  0.83199  0.07649  0.23360  1.0000
  Cu  Cu2       1.0  0.33196  0.92351  0.26639  1.0000
  Cu  Cu3       1.0  0.16802  0.42353  0.73360  1.0000
  Cu  Cu4       1.0  0.66800  0.57649  0.76638  1.0000
  H   H1        1.0  0.14110  0.04009  0.06493  1.0000
  H   H2        1.0  0.64105  0.95992  0.43507  1.0000
  H   H3        1.0  0.85884  0.45991  0.56495  1.0000
  H   H4        1.0  0.35888  0.54006  0.93505  1.0000
  H   H5        1.0  0.32142  0.13307  0.93229  1.0000
  H   H6        1.0  0.82130  0.86694  0.56771  1.0000
  H   H7        1.0  0.67865  0.36693  0.43230  1.0000
  H   H8        1.0  0.17856  0.63303  0.06769  1.0000
  H   H9        1.0  0.18994  0.31053  0.92584  1.0000
  H   H10       1.0  0.68988  0.68948  0.57415  1.0000
  H   H11       1.0  0.81008  0.18948  0.42585  1.0000
  H   H12       1.0  0.31000  0.81048  0.07416  1.0000
  H   H13       1.0  0.91552  0.45378  0.99794  1.0000
  H   H14       1.0  0.41548  0.54623  0.50206  1.0000
  H   H15       1.0  0.08450  0.04621  0.49796  1.0000
  H   H16       1.0  0.58434  0.95377  0.00205  1.0000
  H   H17       1.0  0.62697  0.52727  0.12814  1.0000
  H   H18       1.0  0.12685  0.47274  0.37186  1.0000
  H   H19       1.0  0.37326  0.97275  0.62816  1.0000
  H   H20       1.0  0.87296  0.02727  0.87185  1.0000
  H   H21       1.0  0.49660  0.42692  0.25870  1.0000
  H   H22       1.0  0.99657  0.57309  0.24130  1.0000
  H   H23       1.0  0.50354  0.07310  0.75871  1.0000
  H   H24       1.0  0.00336  0.92692  0.74130  1.0000
  H   H25       1.0  0.63272  0.25108  0.25758  1.0000
  H   H26       1.0  0.13267  0.74893  0.24243  1.0000
  H   H27       1.0  0.36729  0.24894  0.75759  1.0000
  H   H28       1.0  0.86723  0.75108  0.74242  1.0000
  C   C1        1.0  0.09027  0.11725  0.06053  1.0000
  C   C2        1.0  0.59023  0.88276  0.43947  1.0000
  C   C3        1.0  0.90974  0.38276  0.56054  1.0000
  C   C4        1.0  0.40977  0.61723  0.93946  1.0000
  C   C5        1.0  0.18743  0.16996  0.98583  1.0000
  C   C6        1.0  0.68736  0.83005  0.51417  1.0000
  C   C7        1.0  0.81262  0.33005  0.48584  1.0000
  C   C8        1.0  0.31261  0.66992  0.01417  1.0000
  C   C9        1.0  0.11631  0.26721  0.98230  1.0000
  C   C10       1.0  0.61628  0.73280  0.51770  1.0000
  C   C11       1.0  0.88373  0.23280  0.48230  1.0000
  C   C12       1.0  0.38369  0.76717  0.01770  1.0000
  C   C13       1.0  0.94685  0.31161  0.05438  1.0000
  C   C14       1.0  0.44682  0.68840  0.44562  1.0000
  C   C15       1.0  0.05324  0.18840  0.55439  1.0000
  C   C16       1.0  0.55315  0.81159  0.94562  1.0000
  C   C17       1.0  0.85949  0.41095  0.05587  1.0000
  C   C18       1.0  0.35946  0.58905  0.44412  1.0000
  C   C19       1.0  0.14059  0.08905  0.55589  1.0000
  C   C20       1.0  0.64045  0.91093  0.94412  1.0000
  C   C21       1.0  0.69935  0.45123  0.12810  1.0000
  C   C22       1.0  0.19931  0.54878  0.37189  1.0000
  C   C23       1.0  0.30079  0.04878  0.62812  1.0000
  C   C24       1.0  0.80062  0.95122  0.87189  1.0000
  C   C25       1.0  0.62241  0.39405  0.20199  1.0000
  C   C26       1.0  0.12236  0.60596  0.29800  1.0000
  C   C27       1.0  0.37773  0.10596  0.70200  1.0000
  C   C28       1.0  0.87761  0.89404  0.79800  1.0000
  C   C29       1.0  0.69869  0.29701  0.20212  1.0000
  C   C30       1.0  0.19863  0.70299  0.29787  1.0000
  C   C31       1.0  0.30141  0.20300  0.70213  1.0000
  C   C32       1.0  0.80134  0.79700  0.79788  1.0000
  C   C33       1.0  0.86077  0.25366  0.12863  1.0000
  C   C34       1.0  0.36075  0.74634  0.37138  1.0000
  C   C35       1.0  0.13930  0.24634  0.62862  1.0000
  C   C36       1.0  0.63926  0.75365  0.87138  1.0000
  N   N1        1.0  0.93205  0.15632  0.13002  1.0000
  N   N2        1.0  0.43203  0.84369  0.36997  1.0000
  N   N3        1.0  0.06798  0.34369  0.63003  1.0000
  N   N4        1.0  0.56799  0.65631  0.86997  1.0000
  Cl  Cl1       1.0  0.35145  0.08805  0.32653  1.0000
  Cl  Cl2       1.0  0.85142  0.91195  0.17346  1.0000
  Cl  Cl3       1.0  0.64854  0.41196  0.82653  1.0000
  Cl  Cl4       1.0  0.14855  0.58807  0.67346  1.0000
