data_image0
_chemical_formula_structural       Cu4H28C40S4N8
_chemical_formula_sum              "Cu4 H28 C40 S4 N8"
_cell_length_a       5.62361
_cell_length_b       10.0054
_cell_length_c       16.4814
_cell_angle_alpha    89.9997
_cell_angle_beta     96.1817
_cell_angle_gamma    89.9991

_space_group_name_H-M_alt    "P 1"
_space_group_IT_number       1

loop_
  _space_group_symop_operation_xyz
  'x, y, z'

loop_
  _atom_site_type_symbol
  _atom_site_label
  _atom_site_symmetry_multiplicity
  _atom_site_fract_x
  _atom_site_fract_y
  _atom_site_fract_z
  _atom_site_occupancy
  Cu  Cu1       1.0  0.42576  0.51860  0.08600  1.0000
  Cu  Cu2       1.0  0.57423  0.01860  0.41399  1.0000
  Cu  Cu3       1.0  0.57421  0.48141  0.91400  1.0000
  Cu  Cu4       1.0  0.42579  0.98141  0.58601  1.0000
  H   H1        1.0  0.81401  0.33612  0.07142  1.0000
  H   H2        1.0  0.18598  0.83611  0.42858  1.0000
  H   H3        1.0  0.18594  0.66389  0.92857  1.0000
  H   H4        1.0  0.81404  0.16388  0.57142  1.0000
  H   H5        1.0  0.15172  0.23462  0.15988  1.0000
  H   H6        1.0  0.84827  0.73462  0.34012  1.0000
  H   H7        1.0  0.84826  0.76539  0.84011  1.0000
  H   H8        1.0  0.15174  0.26538  0.65988  1.0000
  H   H9        1.0  0.18435  0.27562  0.31145  1.0000
  H   H10       1.0  0.81566  0.77562  0.18854  1.0000
  H   H11       1.0  0.81565  0.72438  0.68853  1.0000
  H   H12       1.0  0.18436  0.22437  0.81146  1.0000
  H   H13       1.0  0.01701  0.38611  0.42821  1.0000
  H   H14       1.0  0.98301  0.88611  0.07179  1.0000
  H   H15       1.0  0.98301  0.61389  0.57179  1.0000
  H   H16       1.0  0.01702  0.11389  0.92821  1.0000
  H   H17       1.0  0.69867  0.52428  0.48098  1.0000
  H   H18       1.0  0.30135  0.02428  0.01902  1.0000
  H   H19       1.0  0.30135  0.47571  0.51902  1.0000
  H   H20       1.0  0.69868  0.97571  0.98098  1.0000
  H   H21       1.0  0.36267  0.61194  0.38548  1.0000
  H   H22       1.0  0.63734  0.11195  0.11452  1.0000
  H   H23       1.0  0.63735  0.38804  0.61453  1.0000
  H   H24       1.0  0.36267  0.88805  0.88548  1.0000
  H   H25       1.0  0.34540  0.56698  0.23657  1.0000
  H   H26       1.0  0.65459  0.06697  0.26343  1.0000
  H   H27       1.0  0.65459  0.43303  0.76344  1.0000
  H   H28       1.0  0.34541  0.93303  0.73657  1.0000
  C   C1        1.0  0.07901  0.37292  0.94718  1.0000
  C   C2        1.0  0.92098  0.87292  0.55282  1.0000
  C   C3        1.0  0.92094  0.62709  0.05282  1.0000
  C   C4        1.0  0.07904  0.12709  0.44718  1.0000
  C   C5        1.0  0.82798  0.35075  0.13734  1.0000
  C   C6        1.0  0.17201  0.85075  0.36267  1.0000
  C   C7        1.0  0.17199  0.64925  0.86266  1.0000
  C   C8        1.0  0.82800  0.14925  0.63734  1.0000
  C   C9        1.0  0.01972  0.29392  0.18764  1.0000
  C   C10       1.0  0.98028  0.79392  0.31235  1.0000
  C   C11       1.0  0.98027  0.70609  0.81234  1.0000
  C   C12       1.0  0.01973  0.20608  0.68765  1.0000
  C   C13       1.0  0.03739  0.31682  0.27043  1.0000
  C   C14       1.0  0.96261  0.81682  0.22957  1.0000
  C   C15       1.0  0.96260  0.68318  0.72957  1.0000
  C   C16       1.0  0.03740  0.18318  0.77043  1.0000
  C   C17       1.0  0.86938  0.42613  0.38707  1.0000
  C   C18       1.0  0.13062  0.92612  0.11293  1.0000
  C   C19       1.0  0.13062  0.57387  0.61292  1.0000
  C   C20       1.0  0.86941  0.07387  0.88708  1.0000
  C   C21       1.0  0.69254  0.50198  0.41613  1.0000
  C   C22       1.0  0.30748  0.00198  0.08387  1.0000
  C   C23       1.0  0.30748  0.49801  0.58387  1.0000
  C   C24       1.0  0.69254  0.99801  0.91614  1.0000
  C   C25       1.0  0.50203  0.55244  0.36181  1.0000
  C   C26       1.0  0.49797  0.05244  0.13820  1.0000
  C   C27       1.0  0.49797  0.44755  0.63820  1.0000
  C   C28       1.0  0.50204  0.94756  0.86180  1.0000
  C   C29       1.0  0.49125  0.52791  0.27907  1.0000
  C   C30       1.0  0.50875  0.02792  0.22093  1.0000
  C   C31       1.0  0.50874  0.47208  0.72093  1.0000
  C   C32       1.0  0.49126  0.97208  0.77907  1.0000
  C   C33       1.0  0.67034  0.44971  0.24774  1.0000
  C   C34       1.0  0.32965  0.94971  0.25226  1.0000
  C   C35       1.0  0.32964  0.55029  0.75226  1.0000
  C   C36       1.0  0.67036  0.05029  0.74774  1.0000
  C   C37       1.0  0.86201  0.39682  0.30265  1.0000
  C   C38       1.0  0.13800  0.89682  0.19734  1.0000
  C   C39       1.0  0.13799  0.60317  0.69734  1.0000
  C   C40       1.0  0.86202  0.10317  0.80266  1.0000
  S   S1        1.0  0.35050  0.32359  0.97917  1.0000
  S   S2        1.0  0.64950  0.82360  0.52083  1.0000
  S   S3        1.0  0.64947  0.67641  0.02083  1.0000
  S   S4        1.0  0.35051  0.17641  0.47917  1.0000
  N   N1        1.0  0.88441  0.40972  0.92299  1.0000
  N   N2        1.0  0.11557  0.90972  0.57701  1.0000
  N   N3        1.0  0.11554  0.59029  0.07701  1.0000
  N   N4        1.0  0.88443  0.09029  0.42299  1.0000
  N   N5        1.0  0.65724  0.42540  0.16494  1.0000
  N   N6        1.0  0.34276  0.92540  0.33506  1.0000
  N   N7        1.0  0.34274  0.57460  0.83507  1.0000
  N   N8        1.0  0.65725  0.07460  0.66494  1.0000
