data_image0
_chemical_formula_structural       U2H12C8O16
_chemical_formula_sum              "U2 H12 C8 O16"
_cell_length_a       5.48717
_cell_length_b       7.49588
_cell_length_c       9.78347
_cell_angle_alpha    89.9991
_cell_angle_beta     91.0298
_cell_angle_gamma    89.9999

_space_group_name_H-M_alt    "P 1"
_space_group_IT_number       1

loop_
  _space_group_symop_operation_xyz
  'x, y, z'

loop_
  _atom_site_type_symbol
  _atom_site_label
  _atom_site_symmetry_multiplicity
  _atom_site_fract_x
  _atom_site_fract_y
  _atom_site_fract_z
  _atom_site_occupancy
  U   U1        1.0  0.99999  1.00000  0.00001  1.0000
  U   U2        1.0  0.50002  0.50001  0.49999  1.0000
  H   H1        1.0  0.72141  0.15908  0.74792  1.0000
  H   H2        1.0  0.77859  0.65908  0.75207  1.0000
  H   H3        1.0  0.27860  0.84092  0.25210  1.0000
  H   H4        1.0  0.22141  0.34092  0.24791  1.0000
  H   H5        1.0  0.54227  0.01788  0.81964  1.0000
  H   H6        1.0  0.95773  0.51788  0.68036  1.0000
  H   H7        1.0  0.45773  0.98212  0.18035  1.0000
  H   H8        1.0  0.04226  0.48213  0.31964  1.0000
  H   H9        1.0  0.65376  0.40910  0.11481  1.0000
  H   H10       1.0  0.84624  0.90910  0.38518  1.0000
  H   H11       1.0  0.34624  0.59088  0.88518  1.0000
  H   H12       1.0  0.15373  0.09090  0.61482  1.0000
  C   C1        1.0  0.77224  0.65611  0.01408  1.0000
  C   C2        1.0  0.72776  0.15611  0.48590  1.0000
  C   C3        1.0  0.22776  0.34388  0.98591  1.0000
  C   C4        1.0  0.27225  0.84389  0.51410  1.0000
  C   C5        1.0  0.60502  0.50610  0.03596  1.0000
  C   C6        1.0  0.89497  0.00611  0.46402  1.0000
  C   C7        1.0  0.39497  0.49388  0.96402  1.0000
  C   C8        1.0  0.10501  0.99390  0.53598  1.0000
  O   O1        1.0  0.22106  0.93921  0.87243  1.0000
  O   O2        1.0  0.27894  0.43921  0.62757  1.0000
  O   O3        1.0  0.77892  0.06079  0.12759  1.0000
  O   O4        1.0  0.72109  0.56080  0.37242  1.0000
  O   O5        1.0  0.94017  0.69403  0.10058  1.0000
  O   O6        1.0  0.55983  0.19404  0.39941  1.0000
  O   O7        1.0  0.05982  0.30596  0.89942  1.0000
  O   O8        1.0  0.44019  0.80598  0.60059  1.0000
  O   O9        1.0  0.74442  0.75764  0.90797  1.0000
  O   O10       1.0  0.75558  0.25765  0.59203  1.0000
  O   O11       1.0  0.25557  0.24235  0.09204  1.0000
  O   O12       1.0  0.24444  0.74237  0.40797  1.0000
  O   O13       1.0  0.68594  0.09456  0.83408  1.0000
  O   O14       1.0  0.81407  0.59456  0.66593  1.0000
  O   O15       1.0  0.31404  0.90544  0.16593  1.0000
  O   O16       1.0  0.18597  0.40546  0.33407  1.0000
