data_image0
_chemical_formula_structural       K12H12C4S12O40
_chemical_formula_sum              "K12 H12 C4 S12 O40"
_cell_length_a       9.40536
_cell_length_b       9.35884
_cell_length_c       12.2631
_cell_angle_alpha    89.9997
_cell_angle_beta     90
_cell_angle_gamma    90.0001

_space_group_name_H-M_alt    "P 1"
_space_group_IT_number       1

loop_
  _space_group_symop_operation_xyz
  'x, y, z'

loop_
  _atom_site_type_symbol
  _atom_site_label
  _atom_site_symmetry_multiplicity
  _atom_site_fract_x
  _atom_site_fract_y
  _atom_site_fract_z
  _atom_site_occupancy
  K   K1        1.0  0.01294  0.00042  0.06250  1.0000
  K   K2        1.0  0.48706  0.99958  0.56250  1.0000
  K   K3        1.0  0.51293  0.49958  0.93750  1.0000
  K   K4        1.0  0.98707  0.50042  0.43750  1.0000
  K   K5        1.0  0.24978  0.65361  0.16558  1.0000
  K   K6        1.0  0.25022  0.34640  0.66558  1.0000
  K   K7        1.0  0.74979  0.84640  0.83442  1.0000
  K   K8        1.0  0.75022  0.15360  0.33442  1.0000
  K   K9        1.0  0.70550  0.72832  0.21545  1.0000
  K   K10       1.0  0.79450  0.27168  0.71544  1.0000
  K   K11       1.0  0.20550  0.77168  0.78456  1.0000
  K   K12       1.0  0.29450  0.22832  0.28456  1.0000
  H   H1        1.0  0.87006  0.36685  0.99296  1.0000
  H   H2        1.0  0.62994  0.63315  0.49296  1.0000
  H   H3        1.0  0.37007  0.13315  0.00704  1.0000
  H   H4        1.0  0.12994  0.86685  0.50704  1.0000
  H   H5        1.0  0.99606  0.01279  0.74994  1.0000
  H   H6        1.0  0.50394  0.98721  0.24994  1.0000
  H   H7        1.0  0.49606  0.48721  0.25006  1.0000
  H   H8        1.0  0.00394  0.51279  0.75006  1.0000
  H   H9        1.0  0.05002  0.12160  0.83509  1.0000
  H   H10       1.0  0.44998  0.87840  0.33509  1.0000
  H   H11       1.0  0.55002  0.37840  0.16491  1.0000
  H   H12       1.0  0.94998  0.62160  0.66491  1.0000
  C   C1        1.0  0.95734  0.43068  0.02767  1.0000
  C   C2        1.0  0.54266  0.56932  0.52767  1.0000
  C   C3        1.0  0.45735  0.06932  0.97233  1.0000
  C   C4        1.0  0.04265  0.93068  0.47233  1.0000
  S   S1        1.0  0.91437  0.61699  0.99803  1.0000
  S   S2        1.0  0.58563  0.38300  0.49803  1.0000
  S   S3        1.0  0.41436  0.88301  0.00198  1.0000
  S   S4        1.0  0.08563  0.11699  0.50197  1.0000
  S   S5        1.0  0.12138  0.37214  0.95982  1.0000
  S   S6        1.0  0.37862  0.62786  0.45982  1.0000
  S   S7        1.0  0.62138  0.12787  0.04018  1.0000
  S   S8        1.0  0.87862  0.87214  0.54018  1.0000
  S   S9        1.0  0.95490  0.38519  0.17323  1.0000
  S   S10       1.0  0.54510  0.61480  0.67323  1.0000
  S   S11       1.0  0.45490  0.11481  0.82677  1.0000
  S   S12       1.0  0.04510  0.88520  0.32677  1.0000
  O   O1        1.0  0.98546  0.70455  0.08058  1.0000
  O   O2        1.0  0.51454  0.29545  0.58057  1.0000
  O   O3        1.0  0.48546  0.79545  0.91942  1.0000
  O   O4        1.0  0.01454  0.20455  0.41943  1.0000
  O   O5        1.0  0.96440  0.64530  0.88653  1.0000
  O   O6        1.0  0.53560  0.35470  0.38652  1.0000
  O   O7        1.0  0.46440  0.85470  0.11348  1.0000
  O   O8        1.0  0.03560  0.14530  0.61348  1.0000
  O   O9        1.0  0.75868  0.62419  0.00619  1.0000
  O   O10       1.0  0.74133  0.37581  0.50619  1.0000
  O   O11       1.0  0.25867  0.87580  0.99381  1.0000
  O   O12       1.0  0.24132  0.12419  0.49381  1.0000
  O   O13       1.0  0.16657  0.24127  0.01527  1.0000
  O   O14       1.0  0.33343  0.75874  0.51527  1.0000
  O   O15       1.0  0.66657  0.25873  0.98474  1.0000
  O   O16       1.0  0.83343  0.74127  0.48473  1.0000
  O   O17       1.0  0.22244  0.49044  0.96885  1.0000
  O   O18       1.0  0.27756  0.50957  0.46885  1.0000
  O   O19       1.0  0.72244  0.00956  0.03115  1.0000
  O   O20       1.0  0.77756  0.99044  0.53115  1.0000
  O   O21       1.0  0.07287  0.34371  0.84698  1.0000
  O   O22       1.0  0.42713  0.65630  0.34698  1.0000
  O   O23       1.0  0.57287  0.15629  0.15302  1.0000
  O   O24       1.0  0.92713  0.84370  0.65302  1.0000
  O   O25       1.0  0.09496  0.42359  0.21757  1.0000
  O   O26       1.0  0.40504  0.57642  0.71757  1.0000
  O   O27       1.0  0.59496  0.07641  0.78243  1.0000
  O   O28       1.0  0.90504  0.92359  0.28243  1.0000
  O   O29       1.0  0.83857  0.46619  0.22348  1.0000
  O   O30       1.0  0.66142  0.53381  0.72348  1.0000
  O   O31       1.0  0.33858  0.03380  0.77652  1.0000
  O   O32       1.0  0.16142  0.96619  0.27652  1.0000
  O   O33       1.0  0.92811  0.23148  0.17179  1.0000
  O   O34       1.0  0.57190  0.76853  0.67179  1.0000
  O   O35       1.0  0.42811  0.26852  0.82821  1.0000
  O   O36       1.0  0.07189  0.73147  0.32821  1.0000
  O   O37       1.0  0.99286  0.03442  0.82828  1.0000
  O   O38       1.0  0.50714  0.96558  0.32828  1.0000
  O   O39       1.0  0.49286  0.46558  0.17173  1.0000
  O   O40       1.0  0.00714  0.53442  0.67173  1.0000
