data_image0
_chemical_formula_structural       K4Na4H48C16O40
_chemical_formula_sum              "K4 Na4 H48 C16 O40"
_cell_length_a       6.19669
_cell_length_b       11.6442
_cell_length_c       14.266
_cell_angle_alpha    89.9999
_cell_angle_beta     90
_cell_angle_gamma    89.9997

_space_group_name_H-M_alt    "P 1"
_space_group_IT_number       1

loop_
  _space_group_symop_operation_xyz
  'x, y, z'

loop_
  _atom_site_type_symbol
  _atom_site_label
  _atom_site_symmetry_multiplicity
  _atom_site_fract_x
  _atom_site_fract_y
  _atom_site_fract_z
  _atom_site_occupancy
  K   K1        1.0  0.17161  0.00000  0.50000  1.0000
  K   K2        1.0  0.82837  0.50000  0.99999  1.0000
  K   K3        1.0  0.97127  0.50000  0.50001  1.0000
  K   K4        1.0  0.02869  0.99999  1.00000  1.0000
  Na  Na1       1.0  0.47571  0.26950  0.49409  1.0000
  Na  Na2       1.0  0.47571  0.73050  0.50591  1.0000
  Na  Na3       1.0  0.52428  0.23050  0.99409  1.0000
  Na  Na4       1.0  0.52429  0.76950  0.00591  1.0000
  H   H1        1.0  0.55205  0.46739  0.77903  1.0000
  H   H2        1.0  0.55204  0.53261  0.22097  1.0000
  H   H3        1.0  0.44796  0.03261  0.27903  1.0000
  H   H4        1.0  0.44796  0.96739  0.72097  1.0000
  H   H5        1.0  0.26944  0.35365  0.70323  1.0000
  H   H6        1.0  0.26943  0.64635  0.29677  1.0000
  H   H7        1.0  0.73057  0.14635  0.20323  1.0000
  H   H8        1.0  0.73057  0.85365  0.79677  1.0000
  H   H9        1.0  0.43822  0.16072  0.80767  1.0000
  H   H10       1.0  0.43822  0.83928  0.19233  1.0000
  H   H11       1.0  0.56178  0.33928  0.30767  1.0000
  H   H12       1.0  0.56178  0.66072  0.69233  1.0000
  H   H13       1.0  0.64762  0.06020  0.60309  1.0000
  H   H14       1.0  0.64762  0.93980  0.39692  1.0000
  H   H15       1.0  0.35239  0.43980  0.10309  1.0000
  H   H16       1.0  0.35238  0.56020  0.89691  1.0000
  H   H17       1.0  0.80821  0.29424  0.83147  1.0000
  H   H18       1.0  0.80821  0.70576  0.16853  1.0000
  H   H19       1.0  0.19179  0.20576  0.33147  1.0000
  H   H20       1.0  0.19180  0.79424  0.66853  1.0000
  H   H21       1.0  0.03096  0.26615  0.60386  1.0000
  H   H22       1.0  0.03096  0.73385  0.39614  1.0000
  H   H23       1.0  0.96904  0.23385  0.10386  1.0000
  H   H24       1.0  0.96904  0.76614  0.89613  1.0000
  H   H25       1.0  0.49204  0.49714  0.38666  1.0000
  H   H26       1.0  0.49204  0.50286  0.61334  1.0000
  H   H27       1.0  0.50796  0.00286  0.88666  1.0000
  H   H28       1.0  0.50796  0.99714  0.11334  1.0000
  H   H29       1.0  0.27822  0.42652  0.35354  1.0000
  H   H30       1.0  0.27823  0.57349  0.64646  1.0000
  H   H31       1.0  0.72177  0.07348  0.85354  1.0000
  H   H32       1.0  0.72177  0.92652  0.14646  1.0000
  H   H33       1.0  0.93989  0.62120  0.71006  1.0000
  H   H34       1.0  0.93989  0.37881  0.28994  1.0000
  H   H35       1.0  0.06011  0.87881  0.21006  1.0000
  H   H36       1.0  0.06011  0.12120  0.78994  1.0000
  H   H37       1.0  0.07175  0.52018  0.75687  1.0000
  H   H38       1.0  0.07175  0.47982  0.24313  1.0000
  H   H39       1.0  0.92825  0.97982  0.25687  1.0000
  H   H40       1.0  0.92825  0.02018  0.74313  1.0000
  H   H41       1.0  0.00260  0.24200  0.49609  1.0000
  H   H42       1.0  0.00260  0.75801  0.50391  1.0000
  H   H43       1.0  0.99739  0.25800  0.99609  1.0000
  H   H44       1.0  0.99739  0.74199  0.00391  1.0000
  H   H45       1.0  0.46989  0.13923  0.64898  1.0000
  H   H46       1.0  0.46989  0.86078  0.35103  1.0000
  H   H47       1.0  0.53011  0.36077  0.14898  1.0000
  H   H48       1.0  0.53011  0.63923  0.85102  1.0000
  C   C1        1.0  0.71089  0.34696  0.68800  1.0000
  C   C2        1.0  0.71088  0.65303  0.31200  1.0000
  C   C3        1.0  0.28911  0.15303  0.18799  1.0000
  C   C4        1.0  0.28912  0.84697  0.81201  1.0000
  C   C5        1.0  0.57308  0.37372  0.77464  1.0000
  C   C6        1.0  0.57306  0.62629  0.22536  1.0000
  C   C7        1.0  0.42693  0.12628  0.27464  1.0000
  C   C8        1.0  0.42693  0.87371  0.72536  1.0000
  C   C9        1.0  0.21325  0.35095  0.85201  1.0000
  C   C10       1.0  0.21325  0.64906  0.14799  1.0000
  C   C11       1.0  0.78675  0.14905  0.35201  1.0000
  C   C12       1.0  0.78675  0.85095  0.64799  1.0000
  C   C13       1.0  0.34860  0.31837  0.76567  1.0000
  C   C14       1.0  0.34860  0.68164  0.23433  1.0000
  C   C15       1.0  0.65140  0.18163  0.26567  1.0000
  C   C16       1.0  0.65141  0.81836  0.73433  1.0000
  O   O1        1.0  0.87678  0.28664  0.70227  1.0000
  O   O2        1.0  0.87677  0.71336  0.29773  1.0000
  O   O3        1.0  0.12322  0.21336  0.20227  1.0000
  O   O4        1.0  0.12323  0.78664  0.79773  1.0000
  O   O5        1.0  0.67931  0.33337  0.85716  1.0000
  O   O6        1.0  0.67931  0.66663  0.14284  1.0000
  O   O7        1.0  0.32069  0.16663  0.35716  1.0000
  O   O8        1.0  0.32069  0.83337  0.64284  1.0000
  O   O9        1.0  0.36056  0.19705  0.75300  1.0000
  O   O10       1.0  0.36055  0.80296  0.24700  1.0000
  O   O11       1.0  0.63944  0.30295  0.25300  1.0000
  O   O12       1.0  0.63945  0.69705  0.74700  1.0000
  O   O13       1.0  0.64659  0.38602  0.60913  1.0000
  O   O14       1.0  0.64658  0.61398  0.39087  1.0000
  O   O15       1.0  0.35342  0.11398  0.10913  1.0000
  O   O16       1.0  0.35342  0.88602  0.89087  1.0000
  O   O17       1.0  0.42136  0.41947  0.38578  1.0000
  O   O18       1.0  0.42136  0.58053  0.61422  1.0000
  O   O19       1.0  0.57864  0.08053  0.88578  1.0000
  O   O20       1.0  0.57864  0.91947  0.11422  1.0000
  O   O21       1.0  0.51836  0.10605  0.58844  1.0000
  O   O22       1.0  0.51836  0.89396  0.41157  1.0000
  O   O23       1.0  0.48164  0.39395  0.08843  1.0000
  O   O24       1.0  0.48164  0.60605  0.91156  1.0000
  O   O25       1.0  0.14793  0.45460  0.85860  1.0000
  O   O26       1.0  0.14793  0.54540  0.14140  1.0000
  O   O27       1.0  0.85208  0.04540  0.35860  1.0000
  O   O28       1.0  0.85208  0.95460  0.64140  1.0000
  O   O29       1.0  0.18154  0.27243  0.91188  1.0000
  O   O30       1.0  0.18154  0.72757  0.08812  1.0000
  O   O31       1.0  0.81845  0.22756  0.41188  1.0000
  O   O32       1.0  0.81845  0.77244  0.58812  1.0000
  O   O33       1.0  0.11357  0.26274  0.54389  1.0000
  O   O34       1.0  0.11357  0.73726  0.45611  1.0000
  O   O35       1.0  0.88643  0.23726  0.04388  1.0000
  O   O36       1.0  0.88643  0.76273  0.95611  1.0000
  O   O37       1.0  0.03352  0.55562  0.69509  1.0000
  O   O38       1.0  0.03351  0.44438  0.30491  1.0000
  O   O39       1.0  0.96648  0.94438  0.19509  1.0000
  O   O40       1.0  0.96648  0.05562  0.80491  1.0000
