data_image0
_chemical_formula_structural       Na4Ca2H52C40O34
_chemical_formula_sum              "Na4 Ca2 H52 C40 O34"
_cell_length_a       9.43158
_cell_length_b       10.5139
_cell_length_c       14.1639
_cell_angle_alpha    102.509
_cell_angle_beta     104.807
_cell_angle_gamma    91.6371

_space_group_name_H-M_alt    "P 1"
_space_group_IT_number       1

loop_
  _space_group_symop_operation_xyz
  'x, y, z'

loop_
  _atom_site_type_symbol
  _atom_site_label
  _atom_site_symmetry_multiplicity
  _atom_site_fract_x
  _atom_site_fract_y
  _atom_site_fract_z
  _atom_site_occupancy
  Na  Na1       1.0  0.86928  0.44238  0.62331  1.0000
  Na  Na2       1.0  0.13072  0.55762  0.37669  1.0000
  Na  Na3       1.0  0.91754  0.82798  0.89667  1.0000
  Na  Na4       1.0  0.08246  0.17202  0.10333  1.0000
  Ca  Ca1       1.0  0.36644  0.14302  0.76411  1.0000
  Ca  Ca2       1.0  0.63356  0.85699  0.23589  1.0000
  H   H1        1.0  0.74707  0.16490  0.10143  1.0000
  H   H2        1.0  0.25293  0.83509  0.89857  1.0000
  H   H3        1.0  0.76183  0.34040  0.25091  1.0000
  H   H4        1.0  0.23817  0.65959  0.74910  1.0000
  H   H5        1.0  0.56403  0.49560  0.24977  1.0000
  H   H6        1.0  0.43598  0.50440  0.75023  1.0000
  H   H7        1.0  0.36422  0.48141  0.09832  1.0000
  H   H8        1.0  0.63579  0.51859  0.90169  1.0000
  H   H9        1.0  0.28743  0.49372  0.93859  1.0000
  H   H10       1.0  0.71258  0.50629  0.06142  1.0000
  H   H11       1.0  0.15407  0.38149  0.95539  1.0000
  H   H12       1.0  0.84593  0.61852  0.04461  1.0000
  H   H13       1.0  0.74494  0.07679  0.93966  1.0000
  H   H14       1.0  0.25505  0.92322  0.06034  1.0000
  H   H15       1.0  0.63423  0.97877  0.98626  1.0000
  H   H16       1.0  0.36577  0.02123  0.01374  1.0000
  H   H17       1.0  0.04453  0.81096  0.44913  1.0000
  H   H18       1.0  0.95547  0.18904  0.55087  1.0000
  H   H19       1.0  0.07719  0.79880  0.28026  1.0000
  H   H20       1.0  0.92280  0.20120  0.71974  1.0000
  H   H21       1.0  0.25821  0.95901  0.25570  1.0000
  H   H22       1.0  0.74178  0.04098  0.74429  1.0000
  H   H23       1.0  0.40743  0.12450  0.39766  1.0000
  H   H24       1.0  0.59257  0.87549  0.60234  1.0000
  H   H25       1.0  0.44748  0.31662  0.54419  1.0000
  H   H26       1.0  0.55251  0.68337  0.45580  1.0000
  H   H27       1.0  0.57249  0.19123  0.54492  1.0000
  H   H28       1.0  0.42750  0.80877  0.45507  1.0000
  H   H29       1.0  0.99107  0.88721  0.58805  1.0000
  H   H30       1.0  0.00893  0.11280  0.41196  1.0000
  H   H31       1.0  0.14736  0.79390  0.61294  1.0000
  H   H32       1.0  0.85264  0.20610  0.38706  1.0000
  H   H33       1.0  0.91813  0.72982  0.67407  1.0000
  H   H34       1.0  0.08187  0.27018  0.32593  1.0000
  H   H35       1.0  0.75008  0.68955  0.62728  1.0000
  H   H36       1.0  0.24992  0.31045  0.37271  1.0000
  H   H37       1.0  0.65347  0.35471  0.39502  1.0000
  H   H38       1.0  0.34652  0.64529  0.60498  1.0000
  H   H39       1.0  0.79326  0.45620  0.42475  1.0000
  H   H40       1.0  0.20674  0.54380  0.57524  1.0000
  H   H41       1.0  0.05612  0.85244  0.11067  1.0000
  H   H42       1.0  0.94387  0.14756  0.88933  1.0000
  H   H43       1.0  0.92081  0.93254  0.11396  1.0000
  H   H44       1.0  0.07919  0.06747  0.88604  1.0000
  H   H45       1.0  0.08512  0.63031  0.98628  1.0000
  H   H46       1.0  0.91488  0.36969  0.01373  1.0000
  H   H47       1.0  0.00785  0.55848  0.87575  1.0000
  H   H48       1.0  0.99215  0.44153  0.12426  1.0000
  H   H49       1.0  0.12197  0.35684  0.50698  1.0000
  H   H50       1.0  0.87803  0.64316  0.49302  1.0000
  H   H51       1.0  0.14625  0.35610  0.62485  1.0000
  H   H52       1.0  0.85375  0.64390  0.37515  1.0000
  C   C1        1.0  0.44244  0.31581  0.01082  1.0000
  C   C2        1.0  0.55757  0.68419  0.98918  1.0000
  C   C3        1.0  0.54951  0.22438  0.01310  1.0000
  C   C4        1.0  0.45049  0.77562  0.98690  1.0000
  C   C5        1.0  0.66392  0.23427  0.09920  1.0000
  C   C6        1.0  0.33608  0.76573  0.90080  1.0000
  C   C7        1.0  0.67028  0.33288  0.18460  1.0000
  C   C8        1.0  0.32973  0.66711  0.81540  1.0000
  C   C9        1.0  0.56156  0.41926  0.18375  1.0000
  C   C10       1.0  0.43844  0.58074  0.81625  1.0000
  C   C11       1.0  0.44723  0.41175  0.09663  1.0000
  C   C12       1.0  0.55278  0.58825  0.90337  1.0000
  C   C13       1.0  0.23159  0.39393  0.91088  1.0000
  C   C14       1.0  0.76842  0.60608  0.08913  1.0000
  C   C15       1.0  0.63344  0.02969  0.92600  1.0000
  C   C16       1.0  0.36655  0.97032  0.07400  1.0000
  C   C17       1.0  0.15041  0.37949  0.80068  1.0000
  C   C18       1.0  0.84960  0.62052  0.19932  1.0000
  C   C19       1.0  0.59406  0.93080  0.82381  1.0000
  C   C20       1.0  0.40594  0.06920  0.17618  1.0000
  C   C21       1.0  0.30937  0.06557  0.50646  1.0000
  C   C22       1.0  0.69063  0.93442  0.49354  1.0000
  C   C23       1.0  0.20658  0.97545  0.52022  1.0000
  C   C24       1.0  0.79342  0.02455  0.47978  1.0000
  C   C25       1.0  0.12366  0.88027  0.43877  1.0000
  C   C26       1.0  0.87633  0.11973  0.56123  1.0000
  C   C27       1.0  0.14172  0.87453  0.34299  1.0000
  C   C28       1.0  0.85827  0.12546  0.65701  1.0000
  C   C29       1.0  0.24234  0.96310  0.32946  1.0000
  C   C30       1.0  0.75766  0.03689  0.67054  1.0000
  C   C31       1.0  0.32689  0.05893  0.41082  1.0000
  C   C32       1.0  0.67311  0.94107  0.58917  1.0000
  C   C33       1.0  0.49870  0.24453  0.58524  1.0000
  C   C34       1.0  0.50130  0.75546  0.41475  1.0000
  C   C35       1.0  0.10523  0.88986  0.63385  1.0000
  C   C36       1.0  0.89477  0.11015  0.36615  1.0000
  C   C37       1.0  0.59113  0.31565  0.69069  1.0000
  C   C38       1.0  0.40888  0.68434  0.30930  1.0000
  C   C39       1.0  0.10231  0.91859  0.74262  1.0000
  C   C40       1.0  0.89770  0.08141  0.25738  1.0000
  O   O1        1.0  0.33847  0.29987  0.91964  1.0000
  O   O2        1.0  0.66154  0.70014  0.08036  1.0000
  O   O3        1.0  0.52957  0.12746  0.92648  1.0000
  O   O4        1.0  0.47042  0.87255  0.07352  1.0000
  O   O5        1.0  0.19704  0.30351  0.73400  1.0000
  O   O6        1.0  0.80297  0.69650  0.26601  1.0000
  O   O7        1.0  0.48387  0.94829  0.75606  1.0000
  O   O8        1.0  0.51612  0.05171  0.24394  1.0000
  O   O9        1.0  0.04155  0.44615  0.78238  1.0000
  O   O10       1.0  0.95846  0.55386  0.21762  1.0000
  O   O11       1.0  0.68049  0.84243  0.81620  1.0000
  O   O12       1.0  0.31951  0.15757  0.18380  1.0000
  O   O13       1.0  0.38600  0.15419  0.59235  1.0000
  O   O14       1.0  0.61400  0.84581  0.40765  1.0000
  O   O15       1.0  0.19569  0.98993  0.61691  1.0000
  O   O16       1.0  0.80431  0.01007  0.38309  1.0000
  O   O17       1.0  0.56507  0.28114  0.76586  1.0000
  O   O18       1.0  0.43494  0.71886  0.23414  1.0000
  O   O19       1.0  0.17365  0.02135  0.80339  1.0000
  O   O20       1.0  0.82635  0.97866  0.19662  1.0000
  O   O21       1.0  0.68574  0.40273  0.69201  1.0000
  O   O22       1.0  0.31426  0.59726  0.30798  1.0000
  O   O23       1.0  0.02537  0.83571  0.76597  1.0000
  O   O24       1.0  0.97463  0.16429  0.23403  1.0000
  O   O25       1.0  0.84525  0.66495  0.61793  1.0000
  O   O26       1.0  0.15475  0.33505  0.38207  1.0000
  O   O27       1.0  0.74762  0.38281  0.44462  1.0000
  O   O28       1.0  0.25237  0.61719  0.55538  1.0000
  O   O29       1.0  0.99248  0.90565  0.07289  1.0000
  O   O30       1.0  0.00752  0.09435  0.92711  1.0000
  O   O31       1.0  0.99653  0.62962  0.93287  1.0000
  O   O32       1.0  0.00347  0.37039  0.06713  1.0000
  O   O33       1.0  0.10189  0.40183  0.57068  1.0000
  O   O34       1.0  0.89811  0.59817  0.42932  1.0000
