data_image0
_chemical_formula_structural       Ca2H24C16O14
_chemical_formula_sum              "Ca2 H24 C16 O14"
_cell_length_a       6.05038
_cell_length_b       8.45612
_cell_length_c       10.3722
_cell_angle_alpha    72.5356
_cell_angle_beta     85.0197
_cell_angle_gamma    74.9364

_space_group_name_H-M_alt    "P 1"
_space_group_IT_number       1

loop_
  _space_group_symop_operation_xyz
  'x, y, z'

loop_
  _atom_site_type_symbol
  _atom_site_label
  _atom_site_symmetry_multiplicity
  _atom_site_fract_x
  _atom_site_fract_y
  _atom_site_fract_z
  _atom_site_occupancy
  Ca  Ca1       1.0  0.20522  0.09927  0.07933  1.0000
  Ca  Ca2       1.0  0.79477  0.90074  0.92067  1.0000
  H   H1        1.0  0.21885  0.53572  0.36352  1.0000
  H   H2        1.0  0.78115  0.46428  0.63648  1.0000
  H   H3        1.0  0.56098  0.58412  0.41523  1.0000
  H   H4        1.0  0.43904  0.41586  0.58477  1.0000
  H   H5        1.0  0.49434  0.93675  0.37951  1.0000
  H   H6        1.0  0.50566  0.06325  0.62050  1.0000
  H   H7        1.0  0.25685  0.89265  0.59083  1.0000
  H   H8        1.0  0.74316  0.10734  0.40918  1.0000
  H   H9        1.0  0.41407  0.68056  0.60638  1.0000
  H   H10       1.0  0.58592  0.31944  0.39361  1.0000
  H   H11       1.0  0.07055  0.61249  0.56359  1.0000
  H   H12       1.0  0.92945  0.38751  0.43641  1.0000
  H   H13       1.0  0.92043  0.82334  0.56186  1.0000
  H   H14       1.0  0.07958  0.17665  0.43814  1.0000
  H   H15       1.0  0.89043  0.84482  0.31684  1.0000
  H   H16       1.0  0.10956  0.15519  0.68316  1.0000
  H   H17       1.0  0.80937  0.36509  0.04088  1.0000
  H   H18       1.0  0.19062  0.63491  0.95912  1.0000
  H   H19       1.0  0.85969  0.39855  0.17570  1.0000
  H   H20       1.0  0.14032  0.60144  0.82430  1.0000
  H   H21       1.0  0.59257  0.22268  0.16449  1.0000
  H   H22       1.0  0.40743  0.77732  0.83551  1.0000
  H   H23       1.0  0.36308  0.35752  0.16122  1.0000
  H   H24       1.0  0.63693  0.64248  0.83878  1.0000
  C   C1        1.0  0.22998  0.66648  0.30931  1.0000
  C   C2        1.0  0.77002  0.33353  0.69069  1.0000
  C   C3        1.0  0.19717  0.69368  0.15945  1.0000
  C   C4        1.0  0.80284  0.30633  0.84055  1.0000
  C   C5        1.0  0.46527  0.69630  0.33933  1.0000
  C   C6        1.0  0.53474  0.30369  0.66068  1.0000
  C   C7        1.0  0.61645  0.72740  0.21304  1.0000
  C   C8        1.0  0.38355  0.27260  0.78696  1.0000
  C   C9        1.0  0.38071  0.85044  0.39731  1.0000
  C   C10       1.0  0.61928  0.14957  0.60269  1.0000
  C   C11       1.0  0.29265  0.79001  0.54226  1.0000
  C   C12       1.0  0.70734  0.20999  0.45774  1.0000
  C   C13       1.0  0.06687  0.74829  0.51845  1.0000
  C   C14       1.0  0.93313  0.25171  0.48155  1.0000
  C   C15       1.0  0.05902  0.80131  0.36363  1.0000
  C   C16       1.0  0.94097  0.19868  0.63637  1.0000
  O   O1        1.0  0.27753  0.56878  0.11186  1.0000
  O   O2        1.0  0.72248  0.43121  0.88813  1.0000
  O   O3        1.0  0.09521  0.84265  0.08734  1.0000
  O   O4        1.0  0.90479  0.15735  0.91267  1.0000
  O   O5        1.0  0.78256  0.60852  0.19903  1.0000
  O   O6        1.0  0.21742  0.39149  0.80095  1.0000
  O   O7        1.0  0.56326  0.87594  0.12565  1.0000
  O   O8        1.0  0.43673  0.12406  0.87435  1.0000
  O   O9        1.0  0.16908  0.94387  0.32380  1.0000
  O   O10       1.0  0.83091  0.05613  0.67620  1.0000
  O   O11       1.0  0.87778  0.30483  0.13410  1.0000
  O   O12       1.0  0.12222  0.69517  0.86589  1.0000
  O   O13       1.0  0.42660  0.23255  0.17310  1.0000
  O   O14       1.0  0.57340  0.76744  0.82690  1.0000
