data_image0
_chemical_formula_structural       Cu2P4H20C24N4O20
_chemical_formula_sum              "Cu2 P4 H20 C24 N4 O20"
_cell_length_a       7.2074
_cell_length_b       10.2174
_cell_length_c       12.2456
_cell_angle_alpha    65.4459
_cell_angle_beta     72.8814
_cell_angle_gamma    69.3462

_space_group_name_H-M_alt    "P 1"
_space_group_IT_number       1

loop_
  _space_group_symop_operation_xyz
  'x, y, z'

loop_
  _atom_site_type_symbol
  _atom_site_label
  _atom_site_symmetry_multiplicity
  _atom_site_fract_x
  _atom_site_fract_y
  _atom_site_fract_z
  _atom_site_occupancy
  Cu  Cu1       1.0  0.50000  0.50000  0.00000  1.0000
  Cu  Cu2       1.0  0.00000  1.00000  0.50000  1.0000
  P   P1        1.0  0.78940  0.21096  0.98487  1.0000
  P   P2        1.0  0.98529  0.28917  0.51494  1.0000
  P   P3        1.0  0.21060  0.78904  0.01513  1.0000
  P   P4        1.0  0.01471  0.71083  0.48506  1.0000
  H   H1        1.0  0.20558  0.24872  0.84436  1.0000
  H   H2        1.0  0.29867  0.25144  0.65544  1.0000
  H   H3        1.0  0.79442  0.75128  0.15563  1.0000
  H   H4        1.0  0.70133  0.74856  0.34456  1.0000
  H   H5        1.0  0.10444  0.71128  0.79540  1.0000
  H   H6        1.0  0.61095  0.78883  0.70458  1.0000
  H   H7        1.0  0.89556  0.28872  0.20460  1.0000
  H   H8        1.0  0.38905  0.21117  0.29542  1.0000
  H   H9        1.0  0.74802  0.71509  0.89721  1.0000
  H   H10       1.0  0.36022  0.78499  0.60279  1.0000
  H   H11       1.0  0.25198  0.28490  0.10279  1.0000
  H   H12       1.0  0.63978  0.21501  0.39721  1.0000
  H   H13       1.0  0.00290  0.01776  0.09888  1.0000
  H   H14       1.0  0.11950  0.48242  0.40104  1.0000
  H   H15       1.0  0.99710  0.98224  0.90112  1.0000
  H   H16       1.0  0.88050  0.51758  0.59895  1.0000
  H   H17       1.0  0.61942  0.39796  0.64010  1.0000
  H   H18       1.0  0.65753  0.10228  0.85971  1.0000
  H   H19       1.0  0.38058  0.60204  0.35990  1.0000
  H   H20       1.0  0.34247  0.89772  0.14028  1.0000
  C   C1        1.0  0.90713  0.36543  0.91007  1.0000
  C   C2        1.0  0.18270  0.13474  0.58971  1.0000
  C   C3        1.0  0.09287  0.63457  0.08993  1.0000
  C   C4        1.0  0.81730  0.86526  0.41029  1.0000
  C   C5        1.0  0.10690  0.35455  0.85193  1.0000
  C   C6        1.0  0.31339  0.14561  0.64789  1.0000
  C   C7        1.0  0.89310  0.64545  0.14807  1.0000
  C   C8        1.0  0.68661  0.85439  0.35211  1.0000
  C   C9        1.0  0.18052  0.48016  0.80851  1.0000
  C   C10       1.0  0.46918  0.01998  0.69138  1.0000
  C   C11       1.0  0.81948  0.51984  0.19149  1.0000
  C   C12       1.0  0.53081  0.98002  0.30862  1.0000
  C   C13       1.0  0.05280  0.61178  0.82566  1.0000
  C   C14       1.0  0.49010  0.88834  0.67429  1.0000
  C   C15       1.0  0.94720  0.38822  0.17434  1.0000
  C   C16       1.0  0.50990  0.11166  0.32571  1.0000
  C   C17       1.0  0.85479  0.61541  0.88243  1.0000
  C   C18       1.0  0.35251  0.88471  0.61751  1.0000
  C   C19       1.0  0.14521  0.38459  0.11757  1.0000
  C   C20       1.0  0.64749  0.11529  0.38250  1.0000
  C   C21       1.0  0.39468  0.47797  0.74922  1.0000
  C   C22       1.0  0.62198  0.02220  0.75062  1.0000
  C   C23       1.0  0.60533  0.52203  0.25078  1.0000
  C   C24       1.0  0.37802  0.97780  0.24938  1.0000
  N   N1        1.0  0.78430  0.49490  0.92339  1.0000
  N   N2        1.0  0.20261  0.00524  0.57646  1.0000
  N   N3        1.0  0.21569  0.50510  0.07661  1.0000
  N   N4        1.0  0.79739  0.99476  0.42354  1.0000
  O   O1        1.0  0.56910  0.28558  0.02286  1.0000
  O   O2        1.0  0.87766  0.21449  0.47698  1.0000
  O   O3        1.0  0.43090  0.71442  0.97714  1.0000
  O   O4        1.0  0.12235  0.78551  0.52302  1.0000
  O   O5        1.0  0.88847  0.11195  0.10177  1.0000
  O   O6        1.0  0.10210  0.38830  0.39803  1.0000
  O   O7        1.0  0.11153  0.88805  0.89823  1.0000
  O   O8        1.0  0.89789  0.61170  0.60197  1.0000
  O   O9        1.0  0.82784  0.12272  0.90245  1.0000
  O   O10       1.0  0.85308  0.37727  0.59747  1.0000
  O   O11       1.0  0.17216  0.87728  0.09755  1.0000
  O   O12       1.0  0.14692  0.62273  0.40253  1.0000
  O   O13       1.0  0.48829  0.54007  0.77329  1.0000
  O   O14       1.0  0.80173  0.96007  0.72659  1.0000
  O   O15       1.0  0.51171  0.45993  0.22671  1.0000
  O   O16       1.0  0.19826  0.03993  0.27342  1.0000
  O   O17       1.0  0.46801  0.40653  0.67036  1.0000
  O   O18       1.0  0.54497  0.09379  0.82938  1.0000
  O   O19       1.0  0.53199  0.59348  0.32964  1.0000
  O   O20       1.0  0.45503  0.90621  0.17063  1.0000
