data_image0
_chemical_formula_structural       Cu2H12C12N16O8
_chemical_formula_sum              "Cu2 H12 C12 N16 O8"
_cell_length_a       4.7602
_cell_length_b       9.42608
_cell_length_c       11.883
_cell_angle_alpha    90.0001
_cell_angle_beta     89.9999
_cell_angle_gamma    103.257

_space_group_name_H-M_alt    "P 1"
_space_group_IT_number       1

loop_
  _space_group_symop_operation_xyz
  'x, y, z'

loop_
  _atom_site_type_symbol
  _atom_site_label
  _atom_site_symmetry_multiplicity
  _atom_site_fract_x
  _atom_site_fract_y
  _atom_site_fract_z
  _atom_site_occupancy
  Cu  Cu1       1.0  0.00000  0.50000  0.50000  1.0000
  Cu  Cu2       1.0  1.00000  1.00000  1.00000  1.0000
  H   H1        1.0  0.84297  0.22781  0.67361  1.0000
  H   H2        1.0  0.15703  0.27219  0.17361  1.0000
  H   H3        1.0  0.15704  0.77220  0.32639  1.0000
  H   H4        1.0  0.84297  0.72780  0.82639  1.0000
  H   H5        1.0  0.50083  0.95298  0.69163  1.0000
  H   H6        1.0  0.49916  0.54702  0.19163  1.0000
  H   H7        1.0  0.49918  0.04702  0.30837  1.0000
  H   H8        1.0  0.50083  0.45298  0.80837  1.0000
  H   H9        1.0  0.16094  0.92435  0.62214  1.0000
  H   H10       1.0  0.83906  0.57565  0.12215  1.0000
  H   H11       1.0  0.83907  0.07565  0.37786  1.0000
  H   H12       1.0  0.16094  0.42435  0.87785  1.0000
  C   C1        1.0  0.67599  0.23086  0.61114  1.0000
  C   C2        1.0  0.32401  0.26914  0.11114  1.0000
  C   C3        1.0  0.32401  0.76914  0.38886  1.0000
  C   C4        1.0  0.67598  0.73086  0.88886  1.0000
  C   C5        1.0  0.32190  0.00312  0.67039  1.0000
  C   C6        1.0  0.67810  0.49688  0.17039  1.0000
  C   C7        1.0  0.67811  0.99688  0.32961  1.0000
  C   C8        1.0  0.32189  0.50312  0.82961  1.0000
  C   C9        1.0  0.17994  0.04443  0.77847  1.0000
  C   C10       1.0  0.82006  0.45557  0.27847  1.0000
  C   C11       1.0  0.82006  0.95557  0.22153  1.0000
  C   C12       1.0  0.17994  0.54443  0.72153  1.0000
  N   N1        1.0  0.68071  0.32846  0.53007  1.0000
  N   N2        1.0  0.31929  0.17154  0.03007  1.0000
  N   N3        1.0  0.31929  0.67154  0.46993  1.0000
  N   N4        1.0  0.68071  0.82846  0.96993  1.0000
  N   N5        1.0  0.43396  0.28555  0.46907  1.0000
  N   N6        1.0  0.56604  0.21445  0.96907  1.0000
  N   N7        1.0  0.56604  0.71445  0.53093  1.0000
  N   N8        1.0  0.43395  0.78555  0.03093  1.0000
  N   N9        1.0  0.28036  0.16546  0.51049  1.0000
  N   N10       1.0  0.71964  0.33454  0.01049  1.0000
  N   N11       1.0  0.71964  0.83455  0.48951  1.0000
  N   N12       1.0  0.28035  0.66546  0.98951  1.0000
  N   N13       1.0  0.43042  0.12914  0.59931  1.0000
  N   N14       1.0  0.56958  0.37086  0.09931  1.0000
  N   N15       1.0  0.56959  0.87086  0.40069  1.0000
  N   N16       1.0  0.43041  0.62914  0.90069  1.0000
  O   O1        1.0  0.18418  0.95460  0.85963  1.0000
  O   O2        1.0  0.81582  0.54540  0.35964  1.0000
  O   O3        1.0  0.81582  0.04540  0.14036  1.0000
  O   O4        1.0  0.18418  0.45460  0.64036  1.0000
  O   O5        1.0  0.07157  0.15250  0.78025  1.0000
  O   O6        1.0  0.92844  0.34751  0.28025  1.0000
  O   O7        1.0  0.92843  0.84751  0.21975  1.0000
  O   O8        1.0  0.07157  0.65250  0.71975  1.0000
