data_image0
_chemical_formula_structural       Cu2H12C12N16O8
_chemical_formula_sum              "Cu2 H12 C12 N16 O8"
_cell_length_a       4.95516
_cell_length_b       7.90675
_cell_length_c       13.0559
_cell_angle_alpha    89.9996
_cell_angle_beta     89.9999
_cell_angle_gamma    107.7

_space_group_name_H-M_alt    "P 1"
_space_group_IT_number       1

loop_
  _space_group_symop_operation_xyz
  'x, y, z'

loop_
  _atom_site_type_symbol
  _atom_site_label
  _atom_site_symmetry_multiplicity
  _atom_site_fract_x
  _atom_site_fract_y
  _atom_site_fract_z
  _atom_site_occupancy
  Cu  Cu1       1.0  0.50000  0.50000  0.00000  1.0000
  Cu  Cu2       1.0  0.00000  1.00000  0.50000  1.0000
  H   H1        1.0  0.28676  0.03432  0.94647  1.0000
  H   H2        1.0  0.21323  0.46568  0.44647  1.0000
  H   H3        1.0  0.71324  0.96569  0.05353  1.0000
  H   H4        1.0  0.78677  0.53432  0.55353  1.0000
  H   H5        1.0  0.43015  0.88605  0.87813  1.0000
  H   H6        1.0  0.06983  0.61394  0.37813  1.0000
  H   H7        1.0  0.56985  0.11395  0.12187  1.0000
  H   H8        1.0  0.93017  0.38606  0.62187  1.0000
  H   H9        1.0  0.25236  0.81651  0.68380  1.0000
  H   H10       1.0  0.24764  0.68349  0.18380  1.0000
  H   H11       1.0  0.74764  0.18349  0.31620  1.0000
  H   H12       1.0  0.75236  0.31651  0.81620  1.0000
  C   C1        1.0  0.05236  0.75658  0.96431  1.0000
  C   C2        1.0  0.44762  0.74342  0.46431  1.0000
  C   C3        1.0  0.94764  0.24343  0.03569  1.0000
  C   C4        1.0  0.55238  0.25657  0.53569  1.0000
  C   C5        1.0  0.23382  0.91293  0.89968  1.0000
  C   C6        1.0  0.26616  0.58707  0.39968  1.0000
  C   C7        1.0  0.76618  0.08708  0.10032  1.0000
  C   C8        1.0  0.73384  0.41292  0.60032  1.0000
  C   C9        1.0  0.11692  0.89192  0.71078  1.0000
  C   C10       1.0  0.38308  0.60809  0.21078  1.0000
  C   C11       1.0  0.88308  0.10809  0.28922  1.0000
  C   C12       1.0  0.61692  0.39191  0.78922  1.0000
  N   N1        1.0  0.09543  0.94618  0.80698  1.0000
  N   N2        1.0  0.40457  0.55382  0.30698  1.0000
  N   N3        1.0  0.90457  0.05382  0.19302  1.0000
  N   N4        1.0  0.59543  0.44618  0.69302  1.0000
  N   N5        1.0  0.90990  0.04169  0.80789  1.0000
  N   N6        1.0  0.59010  0.45831  0.30789  1.0000
  N   N7        1.0  0.09010  0.95831  0.19211  1.0000
  N   N8        1.0  0.40990  0.54168  0.69211  1.0000
  N   N9        1.0  0.82310  0.04595  0.71423  1.0000
  N   N10       1.0  0.67689  0.45406  0.21423  1.0000
  N   N11       1.0  0.17690  0.95405  0.28577  1.0000
  N   N12       1.0  0.32310  0.54594  0.78576  1.0000
  N   N13       1.0  0.94847  0.95397  0.65234  1.0000
  N   N14       1.0  0.55153  0.54604  0.15234  1.0000
  N   N15       1.0  0.05153  0.04603  0.34766  1.0000
  N   N16       1.0  0.44847  0.45397  0.84766  1.0000
  O   O1        1.0  0.78340  0.72314  0.95310  1.0000
  O   O2        1.0  0.71658  0.77687  0.45311  1.0000
  O   O3        1.0  0.21660  0.27687  0.04690  1.0000
  O   O4        1.0  0.28342  0.22313  0.54689  1.0000
  O   O5        1.0  0.18114  0.68342  0.02243  1.0000
  O   O6        1.0  0.31883  0.81658  0.52243  1.0000
  O   O7        1.0  0.81886  0.31658  0.97757  1.0000
  O   O8        1.0  0.68117  0.18342  0.47757  1.0000
