data_image0
_chemical_formula_structural       Cd4H48C56N16O16
_chemical_formula_sum              "Cd4 H48 C56 N16 O16"
_cell_length_a       11.1479
_cell_length_b       12.2051
_cell_length_c       13.465
_cell_angle_alpha    91.5148
_cell_angle_beta     89.9692
_cell_angle_gamma    117.189

_space_group_name_H-M_alt    "P 1"
_space_group_IT_number       1

loop_
  _space_group_symop_operation_xyz
  'x, y, z'

loop_
  _atom_site_type_symbol
  _atom_site_label
  _atom_site_symmetry_multiplicity
  _atom_site_fract_x
  _atom_site_fract_y
  _atom_site_fract_z
  _atom_site_occupancy
  Cd  Cd1       1.0  0.09832  0.55772  0.38076  1.0000
  Cd  Cd2       1.0  0.54096  0.44231  0.11923  1.0000
  Cd  Cd3       1.0  0.90168  0.44228  0.61924  1.0000
  Cd  Cd4       1.0  0.45904  0.55769  0.88077  1.0000
  H   H1        1.0  0.01002  0.26986  0.39866  1.0000
  H   H2        1.0  0.74055  0.73018  0.10106  1.0000
  H   H3        1.0  0.98998  0.73014  0.60134  1.0000
  H   H4        1.0  0.25945  0.26982  0.89894  1.0000
  H   H5        1.0  0.79548  0.54605  0.33503  1.0000
  H   H6        1.0  0.24943  0.45389  0.16516  1.0000
  H   H7        1.0  0.20451  0.45395  0.66497  1.0000
  H   H8        1.0  0.75057  0.54611  0.83484  1.0000
  H   H9        1.0  0.69266  0.68941  0.32658  1.0000
  H   H10       1.0  0.00324  0.31048  0.17353  1.0000
  H   H11       1.0  0.30734  0.31059  0.67342  1.0000
  H   H12       1.0  0.99676  0.68952  0.82647  1.0000
  H   H13       1.0  0.17774  0.83593  0.38887  1.0000
  H   H14       1.0  0.34195  0.16417  0.11099  1.0000
  H   H15       1.0  0.82226  0.16406  0.61113  1.0000
  H   H16       1.0  0.65805  0.83584  0.88901  1.0000
  H   H17       1.0  0.37388  0.73283  0.07484  1.0000
  H   H18       1.0  0.64078  0.26703  0.42505  1.0000
  H   H19       1.0  0.62612  0.26717  0.92516  1.0000
  H   H20       1.0  0.35922  0.73297  0.57495  1.0000
  H   H21       1.0  0.54582  0.83455  0.08334  1.0000
  H   H22       1.0  0.71115  0.16544  0.41661  1.0000
  H   H23       1.0  0.45418  0.16545  0.91666  1.0000
  H   H24       1.0  0.28884  0.83456  0.58339  1.0000
  H   H25       1.0  0.50146  0.42668  0.39733  1.0000
  H   H26       1.0  0.07535  0.57362  0.10225  1.0000
  H   H27       1.0  0.49854  0.57332  0.60268  1.0000
  H   H28       1.0  0.92465  0.42638  0.89775  1.0000
  H   H29       1.0  0.39229  0.56734  0.40218  1.0000
  H   H30       1.0  0.82547  0.43285  0.09760  1.0000
  H   H31       1.0  0.60771  0.43266  0.59782  1.0000
  H   H32       1.0  0.17453  0.56715  0.90240  1.0000
  H   H33       1.0  0.53081  0.84917  0.27089  1.0000
  H   H34       1.0  0.68172  0.15068  0.22907  1.0000
  H   H35       1.0  0.46919  0.15083  0.72911  1.0000
  H   H36       1.0  0.31828  0.84932  0.77093  1.0000
  H   H37       1.0  0.42101  0.89422  0.21030  1.0000
  H   H38       1.0  0.52671  0.10547  0.28960  1.0000
  H   H39       1.0  0.57900  0.10578  0.78970  1.0000
  H   H40       1.0  0.47328  0.89453  0.71040  1.0000
  H   H41       1.0  0.84294  0.91823  0.35323  1.0000
  H   H42       1.0  0.92465  0.08165  0.14640  1.0000
  H   H43       1.0  0.15706  0.08177  0.64677  1.0000
  H   H44       1.0  0.07535  0.91835  0.85360  1.0000
  H   H45       1.0  0.35392  0.19806  0.39141  1.0000
  H   H46       1.0  0.15636  0.80235  0.10826  1.0000
  H   H47       1.0  0.64608  0.80194  0.60859  1.0000
  H   H48       1.0  0.84364  0.19765  0.89174  1.0000
  C   C1        1.0  0.17069  0.21804  0.39545  1.0000
  C   C2        1.0  0.95304  0.78209  0.10435  1.0000
  C   C3        1.0  0.82931  0.78196  0.60455  1.0000
  C   C4        1.0  0.04696  0.21791  0.89565  1.0000
  C   C5        1.0  0.11877  0.30291  0.39932  1.0000
  C   C6        1.0  0.81625  0.69712  0.10038  1.0000
  C   C7        1.0  0.88123  0.69709  0.60068  1.0000
  C   C8        1.0  0.18376  0.30288  0.89962  1.0000
  C   C9        1.0  0.85758  0.64512  0.34690  1.0000
  C   C10       1.0  0.21252  0.35485  0.15322  1.0000
  C   C11       1.0  0.14242  0.35488  0.65310  1.0000
  C   C12       1.0  0.78748  0.64515  0.84678  1.0000
  C   C13       1.0  0.80013  0.72580  0.34303  1.0000
  C   C14       1.0  0.07433  0.27408  0.15703  1.0000
  C   C15       1.0  0.19987  0.27420  0.65697  1.0000
  C   C16       1.0  0.92567  0.72592  0.84297  1.0000
  C   C17       1.0  0.02091  0.89296  0.37366  1.0000
  C   C18       1.0  0.12808  0.10712  0.12622  1.0000
  C   C19       1.0  0.97908  0.10704  0.62634  1.0000
  C   C20       1.0  0.87192  0.89288  0.87378  1.0000
  C   C21       1.0  0.32230  0.72203  0.28074  1.0000
  C   C22       1.0  0.60030  0.27770  0.21915  1.0000
  C   C23       1.0  0.67770  0.27797  0.71926  1.0000
  C   C24       1.0  0.39970  0.72229  0.78085  1.0000
  C   C25       1.0  0.07034  0.80634  0.37630  1.0000
  C   C26       1.0  0.26417  0.19378  0.12367  1.0000
  C   C27       1.0  0.92966  0.19365  0.62370  1.0000
  C   C28       1.0  0.73583  0.80622  0.87633  1.0000
  C   C29       1.0  0.46219  0.76338  0.12437  1.0000
  C   C30       1.0  0.69864  0.23653  0.37555  1.0000
  C   C31       1.0  0.53781  0.23662  0.87563  1.0000
  C   C32       1.0  0.30135  0.76347  0.62445  1.0000
  C   C33       1.0  0.39234  0.38904  0.40046  1.0000
  C   C34       1.0  0.00384  0.61122  0.09916  1.0000
  C   C35       1.0  0.60767  0.61095  0.59954  1.0000
  C   C36       1.0  0.99616  0.38878  0.90084  1.0000
  C   C37       1.0  0.33217  0.46746  0.40273  1.0000
  C   C38       1.0  0.86521  0.53270  0.09696  1.0000
  C   C39       1.0  0.66783  0.53253  0.59727  1.0000
  C   C40       1.0  0.13479  0.46731  0.90304  1.0000
  C   C41       1.0  0.44068  0.81492  0.22287  1.0000
  C   C42       1.0  0.62570  0.18486  0.27706  1.0000
  C   C43       1.0  0.55933  0.18508  0.77713  1.0000
  C   C44       1.0  0.37430  0.81514  0.72294  1.0000
  C   C45       1.0  0.88244  0.85156  0.35636  1.0000
  C   C46       1.0  0.03088  0.14838  0.14348  1.0000
  C   C47       1.0  0.11756  0.14844  0.64364  1.0000
  C   C48       1.0  0.96912  0.85162  0.85652  1.0000
  C   C49       1.0  0.31120  0.26240  0.39618  1.0000
  C   C50       1.0  0.04929  0.73786  0.10351  1.0000
  C   C51       1.0  0.68880  0.73760  0.60381  1.0000
  C   C52       1.0  0.95071  0.26214  0.89649  1.0000
  C   C53       1.0  0.49287  0.65538  0.13580  1.0000
  C   C54       1.0  0.83731  0.34462  0.36410  1.0000
  C   C55       1.0  0.50713  0.34462  0.86419  1.0000
  C   C56       1.0  0.16269  0.65538  0.63591  1.0000
  N   N1        1.0  0.19743  0.42476  0.40260  1.0000
  N   N2        1.0  0.77308  0.57527  0.09710  1.0000
  N   N3        1.0  0.80257  0.57524  0.59740  1.0000
  N   N4        1.0  0.22692  0.42473  0.90290  1.0000
  N   N5        1.0  0.11935  0.01676  0.38696  1.0000
  N   N6        1.0  0.10282  0.98343  0.11280  1.0000
  N   N7        1.0  0.88065  0.98324  0.61304  1.0000
  N   N8        1.0  0.89718  0.01657  0.88720  1.0000
  N   N9        1.0  0.99029  0.68501  0.36326  1.0000
  N   N10       1.0  0.30547  0.31509  0.13680  1.0000
  N   N11       1.0  0.00970  0.31498  0.63675  1.0000
  N   N12       1.0  0.69453  0.68491  0.86320  1.0000
  N   N13       1.0  0.07249  0.09369  0.38667  1.0000
  N   N14       1.0  0.97908  0.90632  0.11335  1.0000
  N   N15       1.0  0.92751  0.90631  0.61333  1.0000
  N   N16       1.0  0.02092  0.09368  0.88664  1.0000
  O   O1        1.0  0.49263  0.59437  0.05581  1.0000
  O   O2        1.0  0.89796  0.40561  0.44411  1.0000
  O   O3        1.0  0.50736  0.40563  0.94419  1.0000
  O   O4        1.0  0.10204  0.59439  0.55589  1.0000
  O   O5        1.0  0.23062  0.62846  0.23423  1.0000
  O   O6        1.0  0.60213  0.37130  0.26565  1.0000
  O   O7        1.0  0.76938  0.37154  0.76577  1.0000
  O   O8        1.0  0.39786  0.62870  0.73434  1.0000
  O   O9        1.0  0.31625  0.74213  0.37353  1.0000
  O   O10       1.0  0.57436  0.25770  0.12637  1.0000
  O   O11       1.0  0.68375  0.25787  0.62647  1.0000
  O   O12       1.0  0.42564  0.74230  0.87362  1.0000
  O   O13       1.0  0.51979  0.62696  0.21922  1.0000
  O   O14       1.0  0.89273  0.37309  0.28066  1.0000
  O   O15       1.0  0.48020  0.37304  0.78077  1.0000
  O   O16       1.0  0.10727  0.62691  0.71934  1.0000
