data_image0
_chemical_formula_structural       Ba4H12C24N4O12
_chemical_formula_sum              "Ba4 H12 C24 N4 O12"
_cell_length_a       4.30971
_cell_length_b       10.133
_cell_length_c       15.8325
_cell_angle_alpha    92.8435
_cell_angle_beta     89.9999
_cell_angle_gamma    89.9999

_space_group_name_H-M_alt    "P 1"
_space_group_IT_number       1

loop_
  _space_group_symop_operation_xyz
  'x, y, z'

loop_
  _atom_site_type_symbol
  _atom_site_label
  _atom_site_symmetry_multiplicity
  _atom_site_fract_x
  _atom_site_fract_y
  _atom_site_fract_z
  _atom_site_occupancy
  Ba  Ba1       1.0  0.97069  0.41642  0.36209  1.0000
  Ba  Ba2       1.0  0.47069  0.58358  0.13791  1.0000
  Ba  Ba3       1.0  0.02931  0.58358  0.63791  1.0000
  Ba  Ba4       1.0  0.52931  0.41642  0.86209  1.0000
  H   H1        1.0  0.71396  0.07629  0.50173  1.0000
  H   H2        1.0  0.21395  0.92371  0.99827  1.0000
  H   H3        1.0  0.28605  0.92371  0.49827  1.0000
  H   H4        1.0  0.78605  0.07629  0.00173  1.0000
  H   H5        1.0  0.97778  0.96248  0.62096  1.0000
  H   H6        1.0  0.47778  0.03752  0.87904  1.0000
  H   H7        1.0  0.02222  0.03752  0.37903  1.0000
  H   H8        1.0  0.52222  0.96248  0.12096  1.0000
  H   H9        1.0  0.98100  0.07979  0.76456  1.0000
  H   H10       1.0  0.48100  0.92021  0.73545  1.0000
  H   H11       1.0  0.01900  0.92021  0.23544  1.0000
  H   H12       1.0  0.51900  0.07979  0.26455  1.0000
  C   C1        1.0  0.60948  0.30859  0.66243  1.0000
  C   C2        1.0  0.10948  0.69141  0.83757  1.0000
  C   C3        1.0  0.39052  0.69141  0.33757  1.0000
  C   C4        1.0  0.89052  0.30859  0.16243  1.0000
  C   C5        1.0  0.58438  0.24554  0.57964  1.0000
  C   C6        1.0  0.08437  0.75447  0.92036  1.0000
  C   C7        1.0  0.41563  0.75447  0.42036  1.0000
  C   C8        1.0  0.91563  0.24554  0.07964  1.0000
  C   C9        1.0  0.72419  0.12231  0.56539  1.0000
  C   C10       1.0  0.22418  0.87769  0.93461  1.0000
  C   C11       1.0  0.27582  0.87770  0.43461  1.0000
  C   C12       1.0  0.77582  0.12231  0.06539  1.0000
  C   C13       1.0  0.87039  0.05931  0.63091  1.0000
  C   C14       1.0  0.37038  0.94069  0.86909  1.0000
  C   C15       1.0  0.12961  0.94069  0.36909  1.0000
  C   C16       1.0  0.62961  0.05931  0.13091  1.0000
  C   C17       1.0  0.87404  0.12468  0.71035  1.0000
  C   C18       1.0  0.37403  0.87532  0.78965  1.0000
  C   C19       1.0  0.12597  0.87532  0.28965  1.0000
  C   C20       1.0  0.62597  0.12468  0.21035  1.0000
  C   C21       1.0  0.42314  0.30832  0.50866  1.0000
  C   C22       1.0  0.92314  0.69168  0.99134  1.0000
  C   C23       1.0  0.57686  0.69168  0.49134  1.0000
  C   C24       1.0  0.07686  0.30833  0.00866  1.0000
  N   N1        1.0  0.75066  0.24475  0.72593  1.0000
  N   N2        1.0  0.25066  0.75525  0.77407  1.0000
  N   N3        1.0  0.24933  0.75525  0.27407  1.0000
  N   N4        1.0  0.74934  0.24475  0.22593  1.0000
  O   O1        1.0  0.50243  0.27462  0.43240  1.0000
  O   O2        1.0  0.00243  0.72538  0.06759  1.0000
  O   O3        1.0  0.49757  0.72538  0.56759  1.0000
  O   O4        1.0  0.99757  0.27462  0.93241  1.0000
  O   O5        1.0  0.20819  0.39235  0.52494  1.0000
  O   O6        1.0  0.70818  0.60765  0.97506  1.0000
  O   O7        1.0  0.79181  0.60765  0.47506  1.0000
  O   O8        1.0  0.29181  0.39235  0.02494  1.0000
  O   O9        1.0  0.51693  0.42948  0.68192  1.0000
  O   O10       1.0  0.01693  0.57052  0.81808  1.0000
  O   O11       1.0  0.48306  0.57052  0.31808  1.0000
  O   O12       1.0  0.98307  0.42948  0.18192  1.0000
