data_image0
_chemical_formula_structural       Ca2H6C12N2O6
_chemical_formula_sum              "Ca2 H6 C12 N2 O6"
_cell_length_a       3.87914
_cell_length_b       7.34708
_cell_length_c       10.9825
_cell_angle_alpha    84.5659
_cell_angle_beta     81.8436
_cell_angle_gamma    80.4228

_space_group_name_H-M_alt    "P 1"
_space_group_IT_number       1

loop_
  _space_group_symop_operation_xyz
  'x, y, z'

loop_
  _atom_site_type_symbol
  _atom_site_label
  _atom_site_symmetry_multiplicity
  _atom_site_fract_x
  _atom_site_fract_y
  _atom_site_fract_z
  _atom_site_occupancy
  Ca  Ca1       1.0  0.37506  0.77338  0.93716  1.0000
  Ca  Ca2       1.0  0.62494  0.22662  0.06284  1.0000
  H   H1        1.0  0.29658  0.49364  0.58614  1.0000
  H   H2        1.0  0.70341  0.50636  0.41386  1.0000
  H   H3        1.0  0.67098  0.21827  0.48468  1.0000
  H   H4        1.0  0.32901  0.78173  0.51532  1.0000
  H   H5        1.0  0.77562  0.91896  0.61493  1.0000
  H   H6        1.0  0.22437  0.08104  0.38507  1.0000
  C   C1        1.0  0.29299  0.16982  0.82868  1.0000
  C   C2        1.0  0.70701  0.83018  0.17132  1.0000
  C   C3        1.0  0.21080  0.34290  0.76085  1.0000
  C   C4        1.0  0.78921  0.65711  0.23915  1.0000
  C   C5        1.0  0.35278  0.35998  0.63742  1.0000
  C   C6        1.0  0.64722  0.64002  0.36258  1.0000
  C   C7        1.0  0.55954  0.20870  0.58141  1.0000
  C   C8        1.0  0.44046  0.79130  0.41859  1.0000
  C   C9        1.0  0.61864  0.04279  0.65318  1.0000
  C   C10       1.0  0.38135  0.95721  0.34682  1.0000
  C   C11       1.0  0.99174  0.50205  0.82250  1.0000
  C   C12       1.0  0.00827  0.49795  0.17750  1.0000
  N   N1        1.0  0.49020  0.02363  0.77274  1.0000
  N   N2        1.0  0.50979  0.97637  0.22726  1.0000
  O   O1        1.0  0.20006  0.14149  0.94835  1.0000
  O   O2        1.0  0.79995  0.85851  0.05165  1.0000
  O   O3        1.0  0.73552  0.47034  0.90439  1.0000
  O   O4        1.0  0.26449  0.52966  0.09562  1.0000
  O   O5        1.0  0.06205  0.66547  0.79356  1.0000
  O   O6        1.0  0.93796  0.33453  0.20644  1.0000
