data_image0
_chemical_formula_structural       H64Au8C60S8Cl8
_chemical_formula_sum              "H64 Au8 C60 S8 Cl8"
_cell_length_a       8.37137
_cell_length_b       11.5481
_cell_length_c       18.8092
_cell_angle_alpha    102.425
_cell_angle_beta     90
_cell_angle_gamma    90

_space_group_name_H-M_alt    "P 1"
_space_group_IT_number       1

loop_
  _space_group_symop_operation_xyz
  'x, y, z'

loop_
  _atom_site_type_symbol
  _atom_site_label
  _atom_site_symmetry_multiplicity
  _atom_site_fract_x
  _atom_site_fract_y
  _atom_site_fract_z
  _atom_site_occupancy
  H   H1        1.0  0.50155  0.79172  0.10150  1.0000
  H   H2        1.0  0.00154  0.20829  0.39850  1.0000
  H   H3        1.0  0.49846  0.20829  0.89850  1.0000
  H   H4        1.0  0.99846  0.79172  0.60150  1.0000
  H   H5        1.0  0.48205  0.99936  0.08192  1.0000
  H   H6        1.0  0.98205  0.00064  0.41808  1.0000
  H   H7        1.0  0.51796  0.00064  0.91808  1.0000
  H   H8        1.0  0.01796  0.99936  0.58192  1.0000
  H   H9        1.0  0.25335  0.05811  0.01461  1.0000
  H   H10       1.0  0.75335  0.94189  0.48538  1.0000
  H   H11       1.0  0.74665  0.94189  0.98538  1.0000
  H   H12       1.0  0.24665  0.05811  0.51461  1.0000
  H   H13       1.0  0.03933  0.91069  0.96652  1.0000
  H   H14       1.0  0.53933  0.08931  0.53348  1.0000
  H   H15       1.0  0.96067  0.08931  0.03348  1.0000
  H   H16       1.0  0.46067  0.91069  0.46652  1.0000
  H   H17       1.0  0.05714  0.70563  0.98553  1.0000
  H   H18       1.0  0.55714  0.29437  0.51447  1.0000
  H   H19       1.0  0.94286  0.29437  0.01447  1.0000
  H   H20       1.0  0.44285  0.70563  0.48553  1.0000
  H   H21       1.0  0.12043  0.47352  0.10295  1.0000
  H   H22       1.0  0.62042  0.52647  0.39705  1.0000
  H   H23       1.0  0.87957  0.52647  0.89705  1.0000
  H   H24       1.0  0.37957  0.47353  0.60295  1.0000
  H   H25       1.0  0.02459  0.60013  0.08154  1.0000
  H   H26       1.0  0.52459  0.39987  0.41846  1.0000
  H   H27       1.0  0.97541  0.39987  0.91846  1.0000
  H   H28       1.0  0.47541  0.60013  0.58154  1.0000
  H   H29       1.0  0.03093  0.63224  0.21320  1.0000
  H   H30       1.0  0.53093  0.36776  0.28680  1.0000
  H   H31       1.0  0.96907  0.36776  0.78680  1.0000
  H   H32       1.0  0.46907  0.63224  0.71320  1.0000
  H   H33       1.0  0.17094  0.73074  0.18817  1.0000
  H   H34       1.0  0.67093  0.26926  0.31183  1.0000
  H   H35       1.0  0.82906  0.26926  0.81183  1.0000
  H   H36       1.0  0.32906  0.73074  0.68817  1.0000
  H   H37       1.0  0.25429  0.49228  0.22867  1.0000
  H   H38       1.0  0.75428  0.50772  0.27133  1.0000
  H   H39       1.0  0.74572  0.50772  0.77133  1.0000
  H   H40       1.0  0.24572  0.49228  0.72867  1.0000
  H   H41       1.0  0.39661  0.59058  0.20262  1.0000
  H   H42       1.0  0.89660  0.40942  0.29739  1.0000
  H   H43       1.0  0.60339  0.40942  0.79738  1.0000
  H   H44       1.0  0.10339  0.59058  0.70261  1.0000
  H   H45       1.0  0.60386  0.76130  0.31503  1.0000
  H   H46       1.0  0.10385  0.23870  0.18497  1.0000
  H   H47       1.0  0.39615  0.23870  0.68497  1.0000
  H   H48       1.0  0.89615  0.76130  0.81503  1.0000
  H   H49       1.0  0.69263  0.96667  0.31655  1.0000
  H   H50       1.0  0.19263  0.03333  0.18345  1.0000
  H   H51       1.0  0.30737  0.03334  0.68345  1.0000
  H   H52       1.0  0.80737  0.96666  0.81655  1.0000
  H   H53       1.0  0.49145  0.12851  0.32396  1.0000
  H   H54       1.0  0.99145  0.87149  0.17604  1.0000
  H   H55       1.0  0.50855  0.87149  0.67604  1.0000
  H   H56       1.0  0.00855  0.12850  0.82396  1.0000
  H   H57       1.0  0.20337  0.08333  0.32533  1.0000
  H   H58       1.0  0.70337  0.91667  0.17467  1.0000
  H   H59       1.0  0.79663  0.91667  0.67467  1.0000
  H   H60       1.0  0.29663  0.08333  0.82533  1.0000
  H   H61       1.0  0.11231  0.87513  0.32111  1.0000
  H   H62       1.0  0.61231  0.12488  0.17889  1.0000
  H   H63       1.0  0.88769  0.12487  0.67888  1.0000
  H   H64       1.0  0.38769  0.87512  0.82112  1.0000
  Au  Au1       1.0  0.29011  0.46988  0.94189  1.0000
  Au  Au2       1.0  0.79011  0.53012  0.55811  1.0000
  Au  Au3       1.0  0.70989  0.53012  0.05811  1.0000
  Au  Au4       1.0  0.20989  0.46989  0.44189  1.0000
  Au  Au5       1.0  0.05064  0.67411  0.37314  1.0000
  Au  Au6       1.0  0.55064  0.32589  0.12686  1.0000
  Au  Au7       1.0  0.94937  0.32589  0.62686  1.0000
  Au  Au8       1.0  0.44937  0.67410  0.87314  1.0000
  C   C1        1.0  0.28055  0.73774  0.04499  1.0000
  C   C2        1.0  0.78055  0.26226  0.45501  1.0000
  C   C3        1.0  0.71945  0.26226  0.95501  1.0000
  C   C4        1.0  0.21945  0.73774  0.54499  1.0000
  C   C5        1.0  0.40004  0.81955  0.07290  1.0000
  C   C6        1.0  0.90004  0.18045  0.42711  1.0000
  C   C7        1.0  0.59996  0.18045  0.92711  1.0000
  C   C8        1.0  0.09996  0.81955  0.57290  1.0000
  C   C9        1.0  0.38865  0.93497  0.06162  1.0000
  C   C10       1.0  0.88865  0.06503  0.43838  1.0000
  C   C11       1.0  0.61136  0.06503  0.93838  1.0000
  C   C12       1.0  0.11136  0.93498  0.56162  1.0000
  C   C13       1.0  0.25975  0.96784  0.02331  1.0000
  C   C14       1.0  0.75975  0.03215  0.47669  1.0000
  C   C15       1.0  0.74026  0.03215  0.97669  1.0000
  C   C16       1.0  0.24025  0.96785  0.52331  1.0000
  C   C17       1.0  0.13961  0.88572  0.99684  1.0000
  C   C18       1.0  0.63961  0.11428  0.50316  1.0000
  C   C19       1.0  0.86039  0.11428  0.00315  1.0000
  C   C20       1.0  0.36039  0.88572  0.49684  1.0000
  C   C21       1.0  0.14935  0.77027  0.00742  1.0000
  C   C22       1.0  0.64935  0.22972  0.49258  1.0000
  C   C23       1.0  0.85065  0.22973  0.99258  1.0000
  C   C24       1.0  0.35065  0.77028  0.50742  1.0000
  C   C25       1.0  0.12939  0.56964  0.10746  1.0000
  C   C26       1.0  0.62939  0.43036  0.39254  1.0000
  C   C27       1.0  0.87061  0.43036  0.89254  1.0000
  C   C28       1.0  0.37061  0.56964  0.60746  1.0000
  C   C29       1.0  0.14701  0.63637  0.18623  1.0000
  C   C30       1.0  0.64701  0.36363  0.31377  1.0000
  C   C31       1.0  0.85299  0.36363  0.81377  1.0000
  C   C32       1.0  0.35299  0.63637  0.68623  1.0000
  C   C33       1.0  0.27755  0.58517  0.22652  1.0000
  C   C34       1.0  0.77755  0.41483  0.27348  1.0000
  C   C35       1.0  0.72245  0.41483  0.77348  1.0000
  C   C36       1.0  0.22245  0.58517  0.72652  1.0000
  C   C37       1.0  0.35275  0.80634  0.31670  1.0000
  C   C38       1.0  0.85275  0.19366  0.18330  1.0000
  C   C39       1.0  0.64725  0.19366  0.68330  1.0000
  C   C40       1.0  0.14725  0.80634  0.81670  1.0000
  C   C41       1.0  0.51613  0.83109  0.31531  1.0000
  C   C42       1.0  0.01613  0.16892  0.18469  1.0000
  C   C43       1.0  0.48387  0.16892  0.68469  1.0000
  C   C44       1.0  0.98387  0.83108  0.81531  1.0000
  C   C45       1.0  0.56556  0.94695  0.31685  1.0000
  C   C46       1.0  0.06555  0.05305  0.18315  1.0000
  C   C47       1.0  0.43444  0.05305  0.68315  1.0000
  C   C48       1.0  0.93445  0.94694  0.81685  1.0000
  C   C49       1.0  0.45307  0.03742  0.32084  1.0000
  C   C50       1.0  0.95308  0.96259  0.17916  1.0000
  C   C51       1.0  0.54692  0.96259  0.67915  1.0000
  C   C52       1.0  0.04692  0.03741  0.82085  1.0000
  C   C53       1.0  0.29015  0.01204  0.32212  1.0000
  C   C54       1.0  0.79015  0.98796  0.17789  1.0000
  C   C55       1.0  0.70985  0.98796  0.67788  1.0000
  C   C56       1.0  0.20985  0.01204  0.82212  1.0000
  C   C57       1.0  0.23919  0.89618  0.31953  1.0000
  C   C58       1.0  0.73919  0.10382  0.18047  1.0000
  C   C59       1.0  0.76081  0.10382  0.68047  1.0000
  C   C60       1.0  0.26081  0.89618  0.81953  1.0000
  S   S1        1.0  0.30747  0.58869  0.05485  1.0000
  S   S2        1.0  0.80747  0.41131  0.44516  1.0000
  S   S3        1.0  0.69253  0.41131  0.94515  1.0000
  S   S4        1.0  0.19253  0.58869  0.55485  1.0000
  S   S5        1.0  0.29885  0.65878  0.32209  1.0000
  S   S6        1.0  0.79885  0.34122  0.17791  1.0000
  S   S7        1.0  0.70115  0.34122  0.67791  1.0000
  S   S8        1.0  0.20115  0.65877  0.82209  1.0000
  Cl  Cl1       1.0  0.28523  0.34222  0.82979  1.0000
  Cl  Cl2       1.0  0.78524  0.65779  0.67021  1.0000
  Cl  Cl3       1.0  0.71477  0.65778  0.17021  1.0000
  Cl  Cl4       1.0  0.21476  0.34222  0.32979  1.0000
  Cl  Cl5       1.0  0.80529  0.70819  0.42662  1.0000
  Cl  Cl6       1.0  0.30529  0.29181  0.07338  1.0000
  Cl  Cl7       1.0  0.19471  0.29181  0.57338  1.0000
  Cl  Cl8       1.0  0.69471  0.70819  0.92662  1.0000
