data_image0
_chemical_formula_structural       H24Au4C26S4Cl4
_chemical_formula_sum              "H24 Au4 C26 S4 Cl4"
_cell_length_a       7.40788
_cell_length_b       10.5275
_cell_length_c       11.1674
_cell_angle_alpha    118.111
_cell_angle_beta     97.7573
_cell_angle_gamma    90.0094

_space_group_name_H-M_alt    "P 1"
_space_group_IT_number       1

loop_
  _space_group_symop_operation_xyz
  'x, y, z'

loop_
  _atom_site_type_symbol
  _atom_site_label
  _atom_site_symmetry_multiplicity
  _atom_site_fract_x
  _atom_site_fract_y
  _atom_site_fract_z
  _atom_site_occupancy
  H   H1        1.0  0.84113  0.84438  0.31448  1.0000
  H   H2        1.0  0.65930  0.52991  0.68627  1.0000
  H   H3        1.0  0.15889  0.15562  0.68553  1.0000
  H   H4        1.0  0.34068  0.47010  0.31373  1.0000
  H   H5        1.0  0.75925  0.05471  0.52310  1.0000
  H   H6        1.0  0.74118  0.53098  0.47727  1.0000
  H   H7        1.0  0.24077  0.94529  0.47690  1.0000
  H   H8        1.0  0.25880  0.46902  0.52273  1.0000
  H   H9        1.0  0.76067  0.29756  0.54090  1.0000
  H   H10       1.0  0.73935  0.75557  0.45872  1.0000
  H   H11       1.0  0.23934  0.70244  0.45910  1.0000
  H   H12       1.0  0.26065  0.24444  0.54129  1.0000
  H   H13       1.0  0.84425  0.33326  0.34776  1.0000
  H   H14       1.0  0.65585  0.98461  0.65134  1.0000
  H   H15       1.0  0.15576  0.66673  0.65224  1.0000
  H   H16       1.0  0.34414  0.01540  0.34866  1.0000
  H   H17       1.0  0.91560  0.12398  0.13727  1.0000
  H   H18       1.0  0.58495  0.98662  0.86239  1.0000
  H   H19       1.0  0.08441  0.87602  0.86273  1.0000
  H   H20       1.0  0.41505  0.01338  0.13762  1.0000
  H   H21       1.0  0.71121  0.67872  0.08292  1.0000
  H   H22       1.0  0.78864  0.59596  0.91779  1.0000
  H   H23       1.0  0.28879  0.32128  0.91708  1.0000
  H   H24       1.0  0.21136  0.40403  0.08221  1.0000
  Au  Au1       1.0  0.18539  0.73771  0.13776  1.0000
  Au  Au2       1.0  0.31495  0.60001  0.86248  1.0000
  Au  Au3       1.0  0.81461  0.26228  0.86224  1.0000
  Au  Au4       1.0  0.68506  0.39999  0.13752  1.0000
  C   C1        1.0  0.87864  0.97234  0.21313  1.0000
  C   C2        1.0  0.62184  0.75919  0.78709  1.0000
  C   C3        1.0  0.12136  0.02765  0.78686  1.0000
  C   C4        1.0  0.37816  0.24081  0.21292  1.0000
  C   C5        1.0  0.83724  0.95116  0.32137  1.0000
  C   C6        1.0  0.66315  0.62960  0.67905  1.0000
  C   C7        1.0  0.16276  0.04884  0.67863  1.0000
  C   C8        1.0  0.33683  0.37041  0.32095  1.0000
  C   C9        1.0  0.79316  0.06919  0.43818  1.0000
  C   C10       1.0  0.70719  0.63045  0.56205  1.0000
  C   C11       1.0  0.20685  0.93081  0.56182  1.0000
  C   C12       1.0  0.29280  0.36955  0.43795  1.0000
  C   C13       1.0  0.79436  0.20668  0.44824  1.0000
  C   C14       1.0  0.70582  0.75762  0.55155  1.0000
  C   C15       1.0  0.20564  0.79332  0.55175  1.0000
  C   C16       1.0  0.29417  0.24239  0.44846  1.0000
  C   C17       1.0  0.83943  0.22644  0.34068  1.0000
  C   C18       1.0  0.66085  0.88512  0.65890  1.0000
  C   C19       1.0  0.16057  0.77356  0.65932  1.0000
  C   C20       1.0  0.33915  0.11488  0.34111  1.0000
  C   C21       1.0  0.87980  0.10897  0.22150  1.0000
  C   C22       1.0  0.62071  0.88727  0.77835  1.0000
  C   C23       1.0  0.12020  0.89103  0.77850  1.0000
  C   C24       1.0  0.37928  0.11273  0.22166  1.0000
  C   C25       1.0  0.75001  0.69671  0.00031  1.0000
  C   C26       1.0  0.24999  0.30329  0.99969  1.0000
  S   S1        1.0  0.94461  0.82880  0.06234  1.0000
  S   S2        1.0  0.55563  0.76671  0.93797  1.0000
  S   S3        1.0  0.05539  0.17119  0.93765  1.0000
  S   S4        1.0  0.44437  0.23329  0.06203  1.0000
  Cl  Cl1       1.0  0.44278  0.67892  0.23387  1.0000
  Cl  Cl2       1.0  0.05749  0.44511  0.76645  1.0000
  Cl  Cl3       1.0  0.55722  0.32108  0.76613  1.0000
  Cl  Cl4       1.0  0.94251  0.55489  0.23355  1.0000
