data_image0
_chemical_formula_structural       H16Au2C15S2Cl2
_chemical_formula_sum              "H16 Au2 C15 S2 Cl2"
_cell_length_a       5.51216
_cell_length_b       7.83309
_cell_length_c       11.1653
_cell_angle_alpha    108.03
_cell_angle_beta     104.307
_cell_angle_gamma    90.0106

_space_group_name_H-M_alt    "P 1"
_space_group_IT_number       1

loop_
  _space_group_symop_operation_xyz
  'x, y, z'

loop_
  _atom_site_type_symbol
  _atom_site_label
  _atom_site_symmetry_multiplicity
  _atom_site_fract_x
  _atom_site_fract_y
  _atom_site_fract_z
  _atom_site_occupancy
  H   H1        1.0  0.27693  0.56882  0.75397  1.0000
  H   H2        1.0  0.52403  0.43161  0.24596  1.0000
  H   H3        1.0  0.94449  0.56445  0.55779  1.0000
  H   H4        1.0  0.38730  0.43647  0.44207  1.0000
  H   H5        1.0  0.01831  0.73634  0.41414  1.0000
  H   H6        1.0  0.60363  0.26428  0.58580  1.0000
  H   H7        1.0  0.42618  0.91544  0.46894  1.0000
  H   H8        1.0  0.95622  0.08462  0.53119  1.0000
  H   H9        1.0  0.75220  0.93607  0.67396  1.0000
  H   H10       1.0  0.07785  0.06372  0.32634  1.0000
  H   H11       1.0  0.47198  0.71655  0.98022  1.0000
  H   H12       1.0  0.49199  0.28283  0.01964  1.0000
  H   H13       1.0  0.74923  0.84779  0.08595  1.0000
  H   H14       1.0  0.66361  0.15158  0.91407  1.0000
  H   H15       1.0  0.38210  0.02860  0.08501  1.0000
  H   H16       1.0  0.29717  0.97083  0.91478  1.0000
  Au  Au1       1.0  0.90557  0.49666  0.85503  1.0000
  Au  Au2       1.0  0.05067  0.50299  0.14491  1.0000
  C   C1        1.0  0.53343  0.75447  0.72583  1.0000
  C   C2        1.0  0.80772  0.24555  0.27425  1.0000
  C   C3        1.0  0.30796  0.64855  0.69349  1.0000
  C   C4        1.0  0.61504  0.35189  0.30651  1.0000
  C   C5        1.0  0.12137  0.64523  0.58251  1.0000
  C   C6        1.0  0.53917  0.35538  0.41742  1.0000
  C   C7        1.0  0.16298  0.74215  0.50219  1.0000
  C   C8        1.0  0.66054  0.25829  0.49778  1.0000
  C   C9        1.0  0.39129  0.84353  0.53320  1.0000
  C   C10       1.0  0.85765  0.15668  0.46688  1.0000
  C   C11       1.0  0.57642  0.85248  0.64643  1.0000
  C   C12       1.0  0.92974  0.14750  0.35370  1.0000
  C   C13       1.0  0.60158  0.83203  0.99581  1.0000
  C   C14       1.0  0.60606  0.16742  0.00419  1.0000
  C   C15       1.0  0.46033  0.99973  0.99994  1.0000
  S   S1        1.0  0.77571  0.77601  0.87093  1.0000
  S   S2        1.0  0.90512  0.22361  0.12916  1.0000
  Cl  Cl1       1.0  0.05690  0.21822  0.81328  1.0000
  Cl  Cl2       1.0  0.24337  0.78162  0.18674  1.0000
