data_image0
_chemical_formula_structural       U2H18PtC26N10O10
_chemical_formula_sum              "U2 H18 Pt1 C26 N10 O10"
_cell_length_a       9.70491
_cell_length_b       9.70494
_cell_length_c       9.77251
_cell_angle_alpha    99.8306
_cell_angle_beta     99.8309
_cell_angle_gamma    104.111

_space_group_name_H-M_alt    "P 1"
_space_group_IT_number       1

loop_
  _space_group_symop_operation_xyz
  'x, y, z'

loop_
  _atom_site_type_symbol
  _atom_site_label
  _atom_site_symmetry_multiplicity
  _atom_site_fract_x
  _atom_site_fract_y
  _atom_site_fract_z
  _atom_site_occupancy
  U   U1        1.0  0.12497  0.87503  0.50000  1.0000
  U   U2        1.0  0.87503  0.12497  0.50000  1.0000
  H   H1        1.0  0.71633  0.20589  0.77996  1.0000
  H   H2        1.0  0.79411  0.28367  0.22004  1.0000
  H   H3        1.0  0.28367  0.79411  0.22004  1.0000
  H   H4        1.0  0.20588  0.71633  0.77996  1.0000
  H   H5        1.0  0.49857  0.99775  0.64729  1.0000
  H   H6        1.0  0.00225  0.50143  0.35271  1.0000
  H   H7        1.0  0.50143  0.00225  0.35271  1.0000
  H   H8        1.0  0.99775  0.49857  0.64729  1.0000
  H   H9        1.0  0.27555  0.06508  0.96839  1.0000
  H   H10       1.0  0.93492  0.72445  0.03161  1.0000
  H   H11       1.0  0.72445  0.93492  0.03161  1.0000
  H   H12       1.0  0.06508  0.27555  0.96839  1.0000
  H   H13       1.0  0.48550  0.27072  0.11689  1.0000
  H   H14       1.0  0.72928  0.51451  0.88311  1.0000
  H   H15       1.0  0.51451  0.72928  0.88311  1.0000
  H   H16       1.0  0.27072  0.48549  0.11689  1.0000
  H   H17       1.0  0.16681  0.16681  0.65292  1.0000
  H   H18       1.0  0.83319  0.83319  0.34708  1.0000
  Pt  Pt1       1.0  0.50000  0.50000  0.50000  1.0000
  C   C1        1.0  0.36931  0.63069  0.50000  1.0000
  C   C2        1.0  0.63069  0.36931  0.50000  1.0000
  C   C3        1.0  0.61906  0.25642  0.95952  1.0000
  C   C4        1.0  0.74358  0.38094  0.04048  1.0000
  C   C5        1.0  0.38094  0.74358  0.04048  1.0000
  C   C6        1.0  0.25642  0.61906  0.95952  1.0000
  C   C7        1.0  0.62081  0.17893  0.82537  1.0000
  C   C8        1.0  0.82107  0.37919  0.17463  1.0000
  C   C9        1.0  0.37919  0.82107  0.17463  1.0000
  C   C10       1.0  0.17892  0.62081  0.82537  1.0000
  C   C11       1.0  0.50275  0.06383  0.75038  1.0000
  C   C12       1.0  0.93617  0.49725  0.24962  1.0000
  C   C13       1.0  0.49725  0.93617  0.24962  1.0000
  C   C14       1.0  0.06383  0.50275  0.75038  1.0000
  C   C15       1.0  0.37707  0.10105  0.93496  1.0000
  C   C16       1.0  0.89895  0.62293  0.06504  1.0000
  C   C17       1.0  0.62293  0.89895  0.06504  1.0000
  C   C18       1.0  0.10105  0.37707  0.93496  1.0000
  C   C19       1.0  0.64065  0.64065  0.67281  1.0000
  C   C20       1.0  0.35934  0.35935  0.32719  1.0000
  C   C21       1.0  0.49487  0.21408  0.01426  1.0000
  C   C22       1.0  0.78592  0.50513  0.98574  1.0000
  C   C23       1.0  0.50513  0.78592  0.98574  1.0000
  C   C24       1.0  0.21408  0.49487  0.01427  1.0000
  C   C25       1.0  0.60844  0.60844  0.37401  1.0000
  C   C26       1.0  0.39156  0.39156  0.62599  1.0000
  N   N1        1.0  0.38285  0.02790  0.80535  1.0000
  N   N2        1.0  0.97210  0.61715  0.19465  1.0000
  N   N3        1.0  0.61715  0.97210  0.19465  1.0000
  N   N4        1.0  0.02790  0.38285  0.80536  1.0000
  N   N5        1.0  0.67303  0.67303  0.30356  1.0000
  N   N6        1.0  0.32697  0.32697  0.69644  1.0000
  N   N7        1.0  0.71974  0.71974  0.77511  1.0000
  N   N8        1.0  0.28026  0.28026  0.22489  1.0000
  N   N9        1.0  0.29325  0.70675  0.50000  1.0000
  N   N10       1.0  0.70675  0.29325  0.50000  1.0000
  O   O1        1.0  0.26863  0.91750  0.73457  1.0000
  O   O2        1.0  0.08250  0.73137  0.26543  1.0000
  O   O3        1.0  0.73137  0.08250  0.26543  1.0000
  O   O4        1.0  0.91750  0.26863  0.73457  1.0000
  O   O5        1.0  0.08012  0.08012  0.62490  1.0000
  O   O6        1.0  0.91988  0.91988  0.37510  1.0000
  O   O7        1.0  0.99911  0.73020  0.55008  1.0000
  O   O8        1.0  0.26980  0.00089  0.44992  1.0000
  O   O9        1.0  0.00089  0.26980  0.44992  1.0000
  O   O10       1.0  0.73020  0.99911  0.55008  1.0000
