data_image0
_chemical_formula_structural       Cd4H24C48N40Cl8
_chemical_formula_sum              "Cd4 H24 C48 N40 Cl8"
_cell_length_a       9.43005
_cell_length_b       11.1525
_cell_length_c       15.6302
_cell_angle_alpha    108.223
_cell_angle_beta     90
_cell_angle_gamma    89.9999

_space_group_name_H-M_alt    "P 1"
_space_group_IT_number       1

loop_
  _space_group_symop_operation_xyz
  'x, y, z'

loop_
  _atom_site_type_symbol
  _atom_site_label
  _atom_site_symmetry_multiplicity
  _atom_site_fract_x
  _atom_site_fract_y
  _atom_site_fract_z
  _atom_site_occupancy
  Cd  Cd1       1.0  0.62251  0.57620  0.12514  1.0000
  Cd  Cd2       1.0  0.12251  0.92380  0.37486  1.0000
  Cd  Cd3       1.0  0.37749  0.42380  0.87486  1.0000
  Cd  Cd4       1.0  0.87749  0.07620  0.62514  1.0000
  H   H1        1.0  0.82715  0.18453  0.31345  1.0000
  H   H2        1.0  0.32715  0.31547  0.18655  1.0000
  H   H3        1.0  0.17285  0.81547  0.68655  1.0000
  H   H4        1.0  0.67285  0.68453  0.81344  1.0000
  H   H5        1.0  0.86251  0.41758  0.39221  1.0000
  H   H6        1.0  0.36251  0.08242  0.10779  1.0000
  H   H7        1.0  0.13749  0.58242  0.60779  1.0000
  H   H8        1.0  0.63749  0.91758  0.89221  1.0000
  H   H9        1.0  0.77151  0.56980  0.31514  1.0000
  H   H10       1.0  0.27151  0.93020  0.18486  1.0000
  H   H11       1.0  0.22849  0.43020  0.68486  1.0000
  H   H12       1.0  0.72849  0.06980  0.81514  1.0000
  H   H13       1.0  0.01853  0.64794  0.82125  1.0000
  H   H14       1.0  0.51853  0.85206  0.67875  1.0000
  H   H15       1.0  0.98147  0.35206  0.17875  1.0000
  H   H16       1.0  0.48146  0.14794  0.32125  1.0000
  H   H17       1.0  0.88918  0.44135  0.78717  1.0000
  H   H18       1.0  0.38918  0.05865  0.71283  1.0000
  H   H19       1.0  0.11082  0.55865  0.21283  1.0000
  H   H20       1.0  0.61082  0.94135  0.28717  1.0000
  H   H21       1.0  0.75459  0.39610  0.91122  1.0000
  H   H22       1.0  0.25458  0.10390  0.58878  1.0000
  H   H23       1.0  0.24541  0.60390  0.08878  1.0000
  H   H24       1.0  0.74542  0.89610  0.41122  1.0000
  C   C1        1.0  0.59554  0.27892  0.07549  1.0000
  C   C2        1.0  0.09554  0.22108  0.42451  1.0000
  C   C3        1.0  0.40446  0.72108  0.92451  1.0000
  C   C4        1.0  0.90446  0.77892  0.57549  1.0000
  C   C5        1.0  0.71944  0.21412  0.20040  1.0000
  C   C6        1.0  0.21944  0.28588  0.29960  1.0000
  C   C7        1.0  0.28056  0.78588  0.79960  1.0000
  C   C8        1.0  0.78056  0.71412  0.70040  1.0000
  C   C9        1.0  0.67154  0.30521  0.16147  1.0000
  C   C10       1.0  0.17154  0.19479  0.33853  1.0000
  C   C11       1.0  0.32846  0.69479  0.83853  1.0000
  C   C12       1.0  0.82846  0.80521  0.66147  1.0000
  C   C13       1.0  0.78910  0.25488  0.28377  1.0000
  C   C14       1.0  0.28910  0.24511  0.21623  1.0000
  C   C15       1.0  0.21090  0.74511  0.71623  1.0000
  C   C16       1.0  0.71090  0.75489  0.78377  1.0000
  C   C17       1.0  0.80832  0.38328  0.32741  1.0000
  C   C18       1.0  0.30832  0.11671  0.17259  1.0000
  C   C19       1.0  0.19168  0.61672  0.67259  1.0000
  C   C20       1.0  0.69168  0.88328  0.82741  1.0000
  C   C21       1.0  0.75894  0.46811  0.28482  1.0000
  C   C22       1.0  0.25895  0.03189  0.21518  1.0000
  C   C23       1.0  0.24105  0.53189  0.71518  1.0000
  C   C24       1.0  0.74105  0.96811  0.78482  1.0000
  C   C25       1.0  0.90126  0.73647  0.12654  1.0000
  C   C26       1.0  0.40126  0.76353  0.37346  1.0000
  C   C27       1.0  0.09874  0.26353  0.87346  1.0000
  C   C28       1.0  0.59874  0.23647  0.62653  1.0000
  C   C29       1.0  0.89696  0.66745  0.03019  1.0000
  C   C30       1.0  0.39696  0.83255  0.46981  1.0000
  C   C31       1.0  0.10304  0.33255  0.96981  1.0000
  C   C32       1.0  0.60304  0.16745  0.53019  1.0000
  C   C33       1.0  0.96751  0.70303  0.96264  1.0000
  C   C34       1.0  0.46751  0.79697  0.53737  1.0000
  C   C35       1.0  0.03249  0.29697  0.03737  1.0000
  C   C36       1.0  0.53249  0.20303  0.46264  1.0000
  C   C37       1.0  0.96471  0.62133  0.87419  1.0000
  C   C38       1.0  0.46471  0.87867  0.62580  1.0000
  C   C39       1.0  0.03529  0.37867  0.12580  1.0000
  C   C40       1.0  0.53529  0.12133  0.37419  1.0000
  C   C41       1.0  0.89162  0.50776  0.85507  1.0000
  C   C42       1.0  0.39162  0.99224  0.64494  1.0000
  C   C43       1.0  0.10838  0.49225  0.14494  1.0000
  C   C44       1.0  0.60838  0.00776  0.35507  1.0000
  C   C45       1.0  0.81745  0.48200  0.92455  1.0000
  C   C46       1.0  0.31745  0.01800  0.57545  1.0000
  C   C47       1.0  0.18255  0.51799  0.07545  1.0000
  C   C48       1.0  0.68256  0.98200  0.42455  1.0000
  N   N1        1.0  0.84476  0.77876  0.26643  1.0000
  N   N2        1.0  0.34476  0.72124  0.23357  1.0000
  N   N3        1.0  0.15524  0.22124  0.73357  1.0000
  N   N4        1.0  0.65524  0.27876  0.76643  1.0000
  N   N5        1.0  0.80345  0.71486  0.18343  1.0000
  N   N6        1.0  0.30345  0.78514  0.31657  1.0000
  N   N7        1.0  0.19655  0.28514  0.81657  1.0000
  N   N8        1.0  0.69655  0.21486  0.68342  1.0000
  N   N9        1.0  0.00298  0.81376  0.17280  1.0000
  N   N10       1.0  0.50298  0.68624  0.32720  1.0000
  N   N11       1.0  0.99702  0.18624  0.82720  1.0000
  N   N12       1.0  0.49702  0.31376  0.67280  1.0000
  N   N13       1.0  0.96428  0.83754  0.25908  1.0000
  N   N14       1.0  0.46428  0.66246  0.24092  1.0000
  N   N15       1.0  0.03572  0.16246  0.74092  1.0000
  N   N16       1.0  0.53572  0.33754  0.75908  1.0000
  N   N17       1.0  0.69452  0.42952  0.20462  1.0000
  N   N18       1.0  0.19452  0.07048  0.29538  1.0000
  N   N19       1.0  0.30548  0.57048  0.79538  1.0000
  N   N20       1.0  0.80548  0.92952  0.70462  1.0000
  N   N21       1.0  0.55266  0.16710  0.01807  1.0000
  N   N22       1.0  0.05266  0.33290  0.48193  1.0000
  N   N23       1.0  0.44734  0.83290  0.98193  1.0000
  N   N24       1.0  0.94734  0.66710  0.51807  1.0000
  N   N25       1.0  0.55641  0.37404  0.04413  1.0000
  N   N26       1.0  0.05641  0.12596  0.45587  1.0000
  N   N27       1.0  0.44359  0.62596  0.95587  1.0000
  N   N28       1.0  0.94359  0.87404  0.54413  1.0000
  N   N29       1.0  0.48669  0.19465  0.95077  1.0000
  N   N30       1.0  0.98669  0.30535  0.54923  1.0000
  N   N31       1.0  0.51331  0.80535  0.04923  1.0000
  N   N32       1.0  0.01331  0.69465  0.45077  1.0000
  N   N33       1.0  0.48962  0.31878  0.96653  1.0000
  N   N34       1.0  0.98962  0.18122  0.53347  1.0000
  N   N35       1.0  0.51038  0.68122  0.03347  1.0000
  N   N36       1.0  0.01038  0.81878  0.46653  1.0000
  N   N37       1.0  0.81988  0.55978  0.00914  1.0000
  N   N38       1.0  0.31988  0.94023  0.49086  1.0000
  N   N39       1.0  0.18012  0.44023  0.99086  1.0000
  N   N40       1.0  0.68012  0.05978  0.50914  1.0000
  Cl  Cl1       1.0  0.69417  0.05524  0.14937  1.0000
  Cl  Cl2       1.0  0.19417  0.44475  0.35063  1.0000
  Cl  Cl3       1.0  0.30583  0.94476  0.85063  1.0000
  Cl  Cl4       1.0  0.80582  0.55525  0.64937  1.0000
  Cl  Cl5       1.0  0.05327  0.84548  0.98531  1.0000
  Cl  Cl6       1.0  0.55327  0.65452  0.51469  1.0000
  Cl  Cl7       1.0  0.94673  0.15452  0.01469  1.0000
  Cl  Cl8       1.0  0.44673  0.34548  0.48531  1.0000
