data_image0
_chemical_formula_structural       Cu4H24C28N4O24
_chemical_formula_sum              "Cu4 H24 C28 N4 O24"
_cell_length_a       6.43418
_cell_length_b       7.11261
_cell_length_c       18.0955
_cell_angle_alpha    89.9989
_cell_angle_beta     90.001
_cell_angle_gamma    105.497

_space_group_name_H-M_alt    "P 1"
_space_group_IT_number       1

loop_
  _space_group_symop_operation_xyz
  'x, y, z'

loop_
  _atom_site_type_symbol
  _atom_site_label
  _atom_site_symmetry_multiplicity
  _atom_site_fract_x
  _atom_site_fract_y
  _atom_site_fract_z
  _atom_site_occupancy
  Cu  Cu1       1.0  0.72417  0.10275  0.31126  1.0000
  Cu  Cu2       1.0  0.77598  0.89724  0.81111  1.0000
  Cu  Cu3       1.0  0.27600  0.89724  0.68890  1.0000
  Cu  Cu4       1.0  0.22414  0.10273  0.18874  1.0000
  H   H1        1.0  0.85993  0.28161  0.19856  1.0000
  H   H2        1.0  0.64024  0.71839  0.69841  1.0000
  H   H3        1.0  0.14024  0.71840  0.80160  1.0000
  H   H4        1.0  0.35991  0.28159  0.30143  1.0000
  H   H5        1.0  0.88270  0.44761  0.26278  1.0000
  H   H6        1.0  0.61733  0.55234  0.76262  1.0000
  H   H7        1.0  0.11735  0.55234  0.73739  1.0000
  H   H8        1.0  0.38277  0.44764  0.23721  1.0000
  H   H9        1.0  0.07600  0.38696  0.36645  1.0000
  H   H10       1.0  0.42428  0.61345  0.86632  1.0000
  H   H11       1.0  0.92429  0.61347  0.63369  1.0000
  H   H12       1.0  0.57603  0.38695  0.13354  1.0000
  H   H13       1.0  0.06199  0.19976  0.41550  1.0000
  H   H14       1.0  0.43840  0.80056  0.91541  1.0000
  H   H15       1.0  0.93840  0.80055  0.58459  1.0000
  H   H16       1.0  0.56203  0.19979  0.08449  1.0000
  H   H17       1.0  0.25807  0.70494  0.50112  1.0000
  H   H18       1.0  0.24175  0.29507  0.00106  1.0000
  H   H19       1.0  0.74173  0.29505  0.49894  1.0000
  H   H20       1.0  0.75811  0.70496  0.99888  1.0000
  H   H21       1.0  0.79180  0.48928  0.42082  1.0000
  H   H22       1.0  0.70787  0.51054  0.92077  1.0000
  H   H23       1.0  0.20787  0.51051  0.57924  1.0000
  H   H24       1.0  0.29183  0.48932  0.07920  1.0000
  C   C1        1.0  0.46016  0.86470  0.41617  1.0000
  C   C2        1.0  0.03980  0.13530  0.91608  1.0000
  C   C3        1.0  0.53981  0.13530  0.58392  1.0000
  C   C4        1.0  0.96016  0.86467  0.08383  1.0000
  C   C5        1.0  0.39793  0.71178  0.46619  1.0000
  C   C6        1.0  0.10192  0.28819  0.96610  1.0000
  C   C7        1.0  0.60191  0.28821  0.53390  1.0000
  C   C8        1.0  0.89795  0.71175  0.03382  1.0000
  C   C9        1.0  0.52308  0.57722  0.47157  1.0000
  C   C10       1.0  0.97669  0.42268  0.97150  1.0000
  C   C11       1.0  0.47667  0.42269  0.52850  1.0000
  C   C12       1.0  0.02311  0.57723  0.02842  1.0000
  C   C13       1.0  0.69421  0.59295  0.42137  1.0000
  C   C14       1.0  0.80551  0.40689  0.92131  1.0000
  C   C15       1.0  0.30551  0.40690  0.57870  1.0000
  C   C16       1.0  0.19425  0.59296  0.07863  1.0000
  C   C17       1.0  0.74206  0.74625  0.37126  1.0000
  C   C18       1.0  0.75776  0.25362  0.87119  1.0000
  C   C19       1.0  0.25776  0.25361  0.62881  1.0000
  C   C20       1.0  0.24207  0.74627  0.12873  1.0000
  C   C21       1.0  0.35559  0.02886  0.40617  1.0000
  C   C22       1.0  0.14446  0.97117  0.90613  1.0000
  C   C23       1.0  0.64446  0.97118  0.59387  1.0000
  C   C24       1.0  0.85557  0.02880  0.09382  1.0000
  C   C25       1.0  0.91593  0.78628  0.31281  1.0000
  C   C26       1.0  0.58386  0.21360  0.81274  1.0000
  C   C27       1.0  0.08389  0.21359  0.68726  1.0000
  C   C28       1.0  0.41591  0.78630  0.18718  1.0000
  N   N1        1.0  0.63046  0.87985  0.37214  1.0000
  N   N2        1.0  0.86948  0.12008  0.87204  1.0000
  N   N3        1.0  0.36948  0.12009  0.62795  1.0000
  N   N4        1.0  0.13050  0.87985  0.12785  1.0000
  O   O1        1.0  0.78701  0.32365  0.24232  1.0000
  O   O2        1.0  0.71311  0.67625  0.74218  1.0000
  O   O3        1.0  0.21311  0.67626  0.75783  1.0000
  O   O4        1.0  0.28705  0.32367  0.25766  1.0000
  O   O5        1.0  0.01733  0.66271  0.29819  1.0000
  O   O6        1.0  0.48249  0.33715  0.79814  1.0000
  O   O7        1.0  0.98252  0.33715  0.70188  1.0000
  O   O8        1.0  0.51736  0.66274  0.20182  1.0000
  O   O9        1.0  0.94675  0.95391  0.28093  1.0000
  O   O10       1.0  0.55304  0.04591  0.78084  1.0000
  O   O11       1.0  0.05308  0.04592  0.71917  1.0000
  O   O12       1.0  0.44671  0.95390  0.21906  1.0000
  O   O13       1.0  0.98044  0.29511  0.39973  1.0000
  O   O14       1.0  0.51996  0.70528  0.89958  1.0000
  O   O15       1.0  0.01999  0.70532  0.60044  1.0000
  O   O16       1.0  0.48046  0.29512  0.10025  1.0000
  O   O17       1.0  0.18276  0.02426  0.43803  1.0000
  O   O18       1.0  0.31730  0.97590  0.93802  1.0000
  O   O19       1.0  0.81735  0.97591  0.56199  1.0000
  O   O20       1.0  0.68278  0.02424  0.06197  1.0000
  O   O21       1.0  0.46278  0.16862  0.36347  1.0000
  O   O22       1.0  0.03735  0.83129  0.86347  1.0000
  O   O23       1.0  0.53737  0.83132  0.63653  1.0000
  O   O24       1.0  0.96280  0.16858  0.13652  1.0000
