data_image0
_chemical_formula_structural       Ag8H48C56N24
_chemical_formula_sum              "Ag8 H48 C56 N24"
_cell_length_a       9.13935
_cell_length_b       12.4061
_cell_length_c       12.5621
_cell_angle_alpha    90
_cell_angle_beta     90.0001
_cell_angle_gamma    90

_space_group_name_H-M_alt    "P 1"
_space_group_IT_number       1

loop_
  _space_group_symop_operation_xyz
  'x, y, z'

loop_
  _atom_site_type_symbol
  _atom_site_label
  _atom_site_symmetry_multiplicity
  _atom_site_fract_x
  _atom_site_fract_y
  _atom_site_fract_z
  _atom_site_occupancy
  Ag  Ag1       1.0  0.76361  0.16654  0.49325  1.0000
  Ag  Ag2       1.0  0.26361  0.83346  0.00675  1.0000
  Ag  Ag3       1.0  0.23639  0.33346  0.99325  1.0000
  Ag  Ag4       1.0  0.73639  0.66654  0.50675  1.0000
  Ag  Ag5       1.0  0.23639  0.83346  0.50675  1.0000
  Ag  Ag6       1.0  0.73639  0.16654  0.99326  1.0000
  Ag  Ag7       1.0  0.76361  0.66654  0.00675  1.0000
  Ag  Ag8       1.0  0.26361  0.33346  0.49325  1.0000
  H   H1        1.0  0.98757  0.63392  0.33799  1.0000
  H   H2        1.0  0.48757  0.36608  0.16201  1.0000
  H   H3        1.0  0.01243  0.86608  0.83799  1.0000
  H   H4        1.0  0.51243  0.13392  0.66201  1.0000
  H   H5        1.0  0.01243  0.36608  0.66201  1.0000
  H   H6        1.0  0.51243  0.63392  0.83799  1.0000
  H   H7        1.0  0.98757  0.13392  0.16201  1.0000
  H   H8        1.0  0.48757  0.86608  0.33799  1.0000
  H   H9        1.0  0.17661  0.54157  0.22665  1.0000
  H   H10       1.0  0.67662  0.45843  0.27335  1.0000
  H   H11       1.0  0.82339  0.95843  0.72665  1.0000
  H   H12       1.0  0.32338  0.04158  0.77335  1.0000
  H   H13       1.0  0.82339  0.45842  0.77335  1.0000
  H   H14       1.0  0.32339  0.54157  0.72665  1.0000
  H   H15       1.0  0.17661  0.04157  0.27335  1.0000
  H   H16       1.0  0.67662  0.95843  0.22665  1.0000
  H   H17       1.0  0.19314  0.34307  0.22104  1.0000
  H   H18       1.0  0.69314  0.65693  0.27896  1.0000
  H   H19       1.0  0.80686  0.15693  0.72104  1.0000
  H   H20       1.0  0.30686  0.84307  0.77896  1.0000
  H   H21       1.0  0.80686  0.65693  0.77896  1.0000
  H   H22       1.0  0.30686  0.34307  0.72104  1.0000
  H   H23       1.0  0.19314  0.84307  0.27896  1.0000
  H   H24       1.0  0.69314  0.15693  0.22104  1.0000
  H   H25       1.0  0.02127  0.22841  0.32837  1.0000
  H   H26       1.0  0.52127  0.77159  0.17163  1.0000
  H   H27       1.0  0.97873  0.27159  0.82837  1.0000
  H   H28       1.0  0.47873  0.72841  0.67163  1.0000
  H   H29       1.0  0.97873  0.77159  0.67163  1.0000
  H   H30       1.0  0.47873  0.22841  0.82837  1.0000
  H   H31       1.0  0.02127  0.72841  0.17163  1.0000
  H   H32       1.0  0.52127  0.27159  0.32837  1.0000
  H   H33       1.0  0.59383  0.33843  0.60087  1.0000
  H   H34       1.0  0.09383  0.66157  0.89913  1.0000
  H   H35       1.0  0.40617  0.16157  0.10087  1.0000
  H   H36       1.0  0.90617  0.83843  0.39913  1.0000
  H   H37       1.0  0.40617  0.66157  0.39913  1.0000
  H   H38       1.0  0.90617  0.33843  0.10087  1.0000
  H   H39       1.0  0.59383  0.83843  0.89913  1.0000
  H   H40       1.0  0.09383  0.16157  0.60087  1.0000
  H   H41       1.0  0.57703  0.47461  0.60022  1.0000
  H   H42       1.0  0.07703  0.52539  0.89978  1.0000
  H   H43       1.0  0.42297  0.02539  0.10022  1.0000
  H   H44       1.0  0.92297  0.97461  0.39978  1.0000
  H   H45       1.0  0.42297  0.52539  0.39978  1.0000
  H   H46       1.0  0.92297  0.47461  0.10022  1.0000
  H   H47       1.0  0.57703  0.97461  0.89978  1.0000
  H   H48       1.0  0.07703  0.02539  0.60022  1.0000
  C   C1        1.0  0.72808  0.41506  0.49603  1.0000
  C   C2        1.0  0.22808  0.58494  0.00397  1.0000
  C   C3        1.0  0.27192  0.08494  0.99603  1.0000
  C   C4        1.0  0.77192  0.91506  0.50397  1.0000
  C   C5        1.0  0.27192  0.58494  0.50397  1.0000
  C   C6        1.0  0.77192  0.41506  0.99603  1.0000
  C   C7        1.0  0.72808  0.91506  0.00397  1.0000
  C   C8        1.0  0.22808  0.08494  0.49603  1.0000
  C   C9        1.0  0.89704  0.48238  0.39314  1.0000
  C   C10       1.0  0.39704  0.51762  0.10686  1.0000
  C   C11       1.0  0.10296  0.01762  0.89314  1.0000
  C   C12       1.0  0.60296  0.98238  0.60686  1.0000
  C   C13       1.0  0.10296  0.51762  0.60686  1.0000
  C   C14       1.0  0.60296  0.48238  0.89314  1.0000
  C   C15       1.0  0.89704  0.98238  0.10686  1.0000
  C   C16       1.0  0.39704  0.01762  0.39314  1.0000
  C   C17       1.0  0.99307  0.54612  0.33419  1.0000
  C   C18       1.0  0.49307  0.45388  0.16581  1.0000
  C   C19       1.0  0.00693  0.95388  0.83419  1.0000
  C   C20       1.0  0.50693  0.04612  0.66581  1.0000
  C   C21       1.0  0.00693  0.45388  0.66581  1.0000
  C   C22       1.0  0.50693  0.54612  0.83419  1.0000
  C   C23       1.0  0.99307  0.04612  0.16581  1.0000
  C   C24       1.0  0.49307  0.95388  0.33419  1.0000
  C   C25       1.0  0.09874  0.49403  0.27237  1.0000
  C   C26       1.0  0.59874  0.50597  0.22763  1.0000
  C   C27       1.0  0.90126  0.00597  0.77237  1.0000
  C   C28       1.0  0.40126  0.99403  0.72763  1.0000
  C   C29       1.0  0.90126  0.50597  0.72763  1.0000
  C   C30       1.0  0.40126  0.49403  0.77237  1.0000
  C   C31       1.0  0.09874  0.99403  0.22763  1.0000
  C   C32       1.0  0.59874  0.00597  0.27237  1.0000
  C   C33       1.0  0.10870  0.38088  0.26985  1.0000
  C   C34       1.0  0.60870  0.61912  0.23015  1.0000
  C   C35       1.0  0.89130  0.11912  0.76985  1.0000
  C   C36       1.0  0.39130  0.88088  0.73015  1.0000
  C   C37       1.0  0.89130  0.61912  0.73015  1.0000
  C   C38       1.0  0.39130  0.38088  0.76985  1.0000
  C   C39       1.0  0.10870  0.88088  0.23015  1.0000
  C   C40       1.0  0.60870  0.11912  0.26985  1.0000
  C   C41       1.0  0.01263  0.31611  0.32884  1.0000
  C   C42       1.0  0.51263  0.68389  0.17116  1.0000
  C   C43       1.0  0.98736  0.18389  0.82885  1.0000
  C   C44       1.0  0.48737  0.81611  0.67116  1.0000
  C   C45       1.0  0.98737  0.68389  0.67116  1.0000
  C   C46       1.0  0.48737  0.31611  0.82884  1.0000
  C   C47       1.0  0.01263  0.81611  0.17116  1.0000
  C   C48       1.0  0.51263  0.18389  0.32884  1.0000
  C   C49       1.0  0.90676  0.36795  0.39053  1.0000
  C   C50       1.0  0.40677  0.63205  0.10947  1.0000
  C   C51       1.0  0.09324  0.13205  0.89053  1.0000
  C   C52       1.0  0.59324  0.86795  0.60947  1.0000
  C   C53       1.0  0.09324  0.63205  0.60947  1.0000
  C   C54       1.0  0.59324  0.36795  0.89053  1.0000
  C   C55       1.0  0.90676  0.86795  0.10947  1.0000
  C   C56       1.0  0.40676  0.13205  0.39053  1.0000
  N   N1        1.0  0.79906  0.32727  0.45716  1.0000
  N   N2        1.0  0.29906  0.67273  0.04284  1.0000
  N   N3        1.0  0.20094  0.17273  0.95716  1.0000
  N   N4        1.0  0.70094  0.82727  0.54284  1.0000
  N   N5        1.0  0.20094  0.67273  0.54284  1.0000
  N   N6        1.0  0.70094  0.32727  0.95716  1.0000
  N   N7        1.0  0.79906  0.82727  0.04284  1.0000
  N   N8        1.0  0.29906  0.17273  0.45716  1.0000
  N   N9        1.0  0.78275  0.50997  0.46043  1.0000
  N   N10       1.0  0.28276  0.49003  0.03957  1.0000
  N   N11       1.0  0.21725  0.99003  0.96043  1.0000
  N   N12       1.0  0.71724  0.00997  0.53957  1.0000
  N   N13       1.0  0.21725  0.49003  0.53957  1.0000
  N   N14       1.0  0.71725  0.50997  0.96043  1.0000
  N   N15       1.0  0.78275  0.00997  0.03957  1.0000
  N   N16       1.0  0.28275  0.99003  0.46043  1.0000
  N   N17       1.0  0.60706  0.40770  0.55904  1.0000
  N   N18       1.0  0.10705  0.59230  0.94096  1.0000
  N   N19       1.0  0.39294  0.09230  0.05904  1.0000
  N   N20       1.0  0.89295  0.90770  0.44096  1.0000
  N   N21       1.0  0.39295  0.59230  0.44096  1.0000
  N   N22       1.0  0.89295  0.40770  0.05904  1.0000
  N   N23       1.0  0.60705  0.90770  0.94096  1.0000
  N   N24       1.0  0.10706  0.09230  0.55904  1.0000
