data_image0
_chemical_formula_structural       H48Au8C56N24
_chemical_formula_sum              "H48 Au8 C56 N24"
_cell_length_a       7.68894
_cell_length_b       12.045
_cell_length_c       15.7523
_cell_angle_alpha    90.0005
_cell_angle_beta     89.9986
_cell_angle_gamma    89.9987

_space_group_name_H-M_alt    "P 1"
_space_group_IT_number       1

loop_
  _space_group_symop_operation_xyz
  'x, y, z'

loop_
  _atom_site_type_symbol
  _atom_site_label
  _atom_site_symmetry_multiplicity
  _atom_site_fract_x
  _atom_site_fract_y
  _atom_site_fract_z
  _atom_site_occupancy
  H   H1        1.0  0.06433  0.28088  0.17976  1.0000
  H   H2        1.0  0.56432  0.71912  0.32024  1.0000
  H   H3        1.0  0.93568  0.21912  0.67975  1.0000
  H   H4        1.0  0.43569  0.78087  0.82024  1.0000
  H   H5        1.0  0.93567  0.71910  0.82024  1.0000
  H   H6        1.0  0.43567  0.28088  0.67976  1.0000
  H   H7        1.0  0.06434  0.78088  0.32024  1.0000
  H   H8        1.0  0.56432  0.21911  0.17977  1.0000
  H   H9        1.0  0.90163  0.17683  0.29305  1.0000
  H   H10       1.0  0.40163  0.82318  0.20695  1.0000
  H   H11       1.0  0.09838  0.32317  0.79304  1.0000
  H   H12       1.0  0.59837  0.67682  0.70695  1.0000
  H   H13       1.0  0.09836  0.82316  0.70695  1.0000
  H   H14       1.0  0.59837  0.17683  0.79304  1.0000
  H   H15       1.0  0.90165  0.67682  0.20695  1.0000
  H   H16       1.0  0.40163  0.32317  0.29306  1.0000
  H   H17       1.0  0.88170  0.97231  0.28914  1.0000
  H   H18       1.0  0.38169  0.02769  0.21087  1.0000
  H   H19       1.0  0.11831  0.52769  0.78913  1.0000
  H   H20       1.0  0.61832  0.47230  0.71085  1.0000
  H   H21       1.0  0.11830  0.02768  0.71086  1.0000
  H   H22       1.0  0.61831  0.97231  0.78913  1.0000
  H   H23       1.0  0.88170  0.47231  0.21087  1.0000
  H   H24       1.0  0.38169  0.52769  0.28915  1.0000
  H   H25       1.0  0.02084  0.86336  0.17205  1.0000
  H   H26       1.0  0.52083  0.13664  0.32794  1.0000
  H   H27       1.0  0.97918  0.63664  0.67205  1.0000
  H   H28       1.0  0.47919  0.36336  0.82794  1.0000
  H   H29       1.0  0.97916  0.13663  0.82794  1.0000
  H   H30       1.0  0.47918  0.86336  0.67205  1.0000
  H   H31       1.0  0.02082  0.36336  0.32795  1.0000
  H   H32       1.0  0.52082  0.63663  0.17207  1.0000
  H   H33       1.0  0.36720  0.14086  0.89480  1.0000
  H   H34       1.0  0.86720  0.85915  0.60520  1.0000
  H   H35       1.0  0.63279  0.35915  0.39480  1.0000
  H   H36       1.0  0.13280  0.64086  0.10520  1.0000
  H   H37       1.0  0.63279  0.85916  0.10521  1.0000
  H   H38       1.0  0.13280  0.14085  0.39480  1.0000
  H   H39       1.0  0.36721  0.64085  0.60521  1.0000
  H   H40       1.0  0.86720  0.35915  0.89480  1.0000
  H   H41       1.0  0.33411  0.00131  0.88529  1.0000
  H   H42       1.0  0.83410  0.99870  0.61470  1.0000
  H   H43       1.0  0.66589  0.49870  0.38530  1.0000
  H   H44       1.0  0.16590  0.50131  0.11470  1.0000
  H   H45       1.0  0.66590  0.99870  0.11471  1.0000
  H   H46       1.0  0.16590  0.00130  0.38530  1.0000
  H   H47       1.0  0.33411  0.50131  0.61471  1.0000
  H   H48       1.0  0.83410  0.49870  0.88530  1.0000
  Au  Au1       1.0  0.24068  0.81865  0.99932  1.0000
  Au  Au2       1.0  0.74068  0.18135  0.50067  1.0000
  Au  Au3       1.0  0.75933  0.68135  0.49932  1.0000
  Au  Au4       1.0  0.25932  0.31865  0.00067  1.0000
  Au  Au5       1.0  0.75932  0.18135  0.00068  1.0000
  Au  Au6       1.0  0.25932  0.81865  0.49932  1.0000
  Au  Au7       1.0  0.24068  0.31865  0.50068  1.0000
  Au  Au8       1.0  0.74068  0.68135  0.99934  1.0000
  C   C1        1.0  0.26008  0.06823  0.99801  1.0000
  C   C2        1.0  0.76008  0.93177  0.50198  1.0000
  C   C3        1.0  0.73992  0.43177  0.49801  1.0000
  C   C4        1.0  0.23992  0.56823  0.00198  1.0000
  C   C5        1.0  0.73989  0.93177  0.00199  1.0000
  C   C6        1.0  0.23990  0.06823  0.49802  1.0000
  C   C7        1.0  0.26009  0.56824  0.50199  1.0000
  C   C8        1.0  0.76010  0.43177  0.99802  1.0000
  C   C9        1.0  0.13092  0.12937  0.11333  1.0000
  C   C10       1.0  0.63090  0.87063  0.38667  1.0000
  C   C11       1.0  0.86909  0.37063  0.61332  1.0000
  C   C12       1.0  0.36910  0.62937  0.88667  1.0000
  C   C13       1.0  0.86908  0.87062  0.88667  1.0000
  C   C14       1.0  0.36909  0.12937  0.61332  1.0000
  C   C15       1.0  0.13092  0.62937  0.38667  1.0000
  C   C16       1.0  0.63091  0.37062  0.11333  1.0000
  C   C17       1.0  0.05570  0.19056  0.17892  1.0000
  C   C18       1.0  0.55570  0.80945  0.32108  1.0000
  C   C19       1.0  0.94430  0.30944  0.67891  1.0000
  C   C20       1.0  0.44431  0.69055  0.82108  1.0000
  C   C21       1.0  0.94430  0.80943  0.82109  1.0000
  C   C22       1.0  0.44430  0.19056  0.67891  1.0000
  C   C23       1.0  0.05571  0.69056  0.32109  1.0000
  C   C24       1.0  0.55569  0.30944  0.17892  1.0000
  C   C25       1.0  0.96660  0.13171  0.24196  1.0000
  C   C26       1.0  0.46660  0.86830  0.25804  1.0000
  C   C27       1.0  0.03341  0.36829  0.74195  1.0000
  C   C28       1.0  0.53341  0.63170  0.75804  1.0000
  C   C29       1.0  0.03339  0.86828  0.75805  1.0000
  C   C30       1.0  0.53342  0.13171  0.74195  1.0000
  C   C31       1.0  0.96661  0.63171  0.25805  1.0000
  C   C32       1.0  0.46659  0.36829  0.24196  1.0000
  C   C33       1.0  0.95467  0.01518  0.23974  1.0000
  C   C34       1.0  0.45467  0.98483  0.26026  1.0000
  C   C35       1.0  0.04533  0.48482  0.73973  1.0000
  C   C36       1.0  0.54533  0.51517  0.76026  1.0000
  C   C37       1.0  0.04532  0.98481  0.76026  1.0000
  C   C38       1.0  0.54533  0.01518  0.73973  1.0000
  C   C39       1.0  0.95468  0.51517  0.26027  1.0000
  C   C40       1.0  0.45466  0.48482  0.23974  1.0000
  C   C41       1.0  0.03109  0.95363  0.17440  1.0000
  C   C42       1.0  0.53109  0.04638  0.32560  1.0000
  C   C43       1.0  0.96892  0.54637  0.67440  1.0000
  C   C44       1.0  0.46892  0.45363  0.82559  1.0000
  C   C45       1.0  0.96890  0.04636  0.82560  1.0000
  C   C46       1.0  0.46892  0.95363  0.67440  1.0000
  C   C47       1.0  0.03109  0.45363  0.32560  1.0000
  C   C48       1.0  0.53108  0.54637  0.17441  1.0000
  C   C49       1.0  0.11892  0.01168  0.11108  1.0000
  C   C50       1.0  0.61892  0.98832  0.38892  1.0000
  C   C51       1.0  0.88108  0.48832  0.61108  1.0000
  C   C52       1.0  0.38108  0.51168  0.88891  1.0000
  C   C53       1.0  0.88107  0.98830  0.88892  1.0000
  C   C54       1.0  0.38108  0.01168  0.61108  1.0000
  C   C55       1.0  0.11893  0.51168  0.38892  1.0000
  C   C56       1.0  0.61892  0.48831  0.11109  1.0000
  N   N1        1.0  0.20341  0.97546  0.03827  1.0000
  N   N2        1.0  0.70341  0.02454  0.46172  1.0000
  N   N3        1.0  0.79659  0.52454  0.53827  1.0000
  N   N4        1.0  0.29658  0.47546  0.96172  1.0000
  N   N5        1.0  0.79657  0.02454  0.96173  1.0000
  N   N6        1.0  0.29658  0.97546  0.53827  1.0000
  N   N7        1.0  0.20342  0.47546  0.46173  1.0000
  N   N8        1.0  0.70343  0.52454  0.03829  1.0000
  N   N9        1.0  0.22007  0.16262  0.04090  1.0000
  N   N10       1.0  0.72006  0.83738  0.45910  1.0000
  N   N11       1.0  0.77993  0.33738  0.54090  1.0000
  N   N12       1.0  0.27994  0.66262  0.95910  1.0000
  N   N13       1.0  0.77991  0.83738  0.95911  1.0000
  N   N14       1.0  0.27992  0.16262  0.54090  1.0000
  N   N15       1.0  0.22008  0.66262  0.45910  1.0000
  N   N16       1.0  0.72007  0.33738  0.04090  1.0000
  N   N17       1.0  0.35158  0.06697  0.92472  1.0000
  N   N18       1.0  0.85158  0.93304  0.57527  1.0000
  N   N19       1.0  0.64842  0.43304  0.42472  1.0000
  N   N20       1.0  0.14843  0.56697  0.07528  1.0000
  N   N21       1.0  0.64840  0.93304  0.07528  1.0000
  N   N22       1.0  0.14841  0.06696  0.42473  1.0000
  N   N23       1.0  0.35157  0.56697  0.57528  1.0000
  N   N24       1.0  0.85158  0.43304  0.92473  1.0000
