data_image0
_chemical_formula_structural       Cu8H48C56N24
_chemical_formula_sum              "Cu8 H48 C56 N24"
_cell_length_a       9.16667
_cell_length_b       11.59
_cell_length_c       12.584
_cell_angle_alpha    89.9999
_cell_angle_beta     90
_cell_angle_gamma    89.9997

_space_group_name_H-M_alt    "P 1"
_space_group_IT_number       1

loop_
  _space_group_symop_operation_xyz
  'x, y, z'

loop_
  _atom_site_type_symbol
  _atom_site_label
  _atom_site_symmetry_multiplicity
  _atom_site_fract_x
  _atom_site_fract_y
  _atom_site_fract_z
  _atom_site_occupancy
  Cu  Cu1       1.0  0.75975  0.16269  0.50259  1.0000
  Cu  Cu2       1.0  0.25974  0.83731  0.99741  1.0000
  Cu  Cu3       1.0  0.24025  0.33731  0.00259  1.0000
  Cu  Cu4       1.0  0.74026  0.66269  0.49741  1.0000
  Cu  Cu5       1.0  0.24026  0.83731  0.49741  1.0000
  Cu  Cu6       1.0  0.74026  0.16269  0.00259  1.0000
  Cu  Cu7       1.0  0.75974  0.66269  0.99741  1.0000
  Cu  Cu8       1.0  0.25974  0.33731  0.50259  1.0000
  H   H1        1.0  0.98818  0.63445  0.33041  1.0000
  H   H2        1.0  0.48818  0.36555  0.16959  1.0000
  H   H3        1.0  0.01182  0.86554  0.83041  1.0000
  H   H4        1.0  0.51182  0.13445  0.66959  1.0000
  H   H5        1.0  0.01181  0.36556  0.66959  1.0000
  H   H6        1.0  0.51181  0.63445  0.83041  1.0000
  H   H7        1.0  0.98819  0.13445  0.16959  1.0000
  H   H8        1.0  0.48819  0.86555  0.33040  1.0000
  H   H9        1.0  0.17364  0.52747  0.22273  1.0000
  H   H10       1.0  0.67364  0.47253  0.27727  1.0000
  H   H11       1.0  0.82636  0.97252  0.72273  1.0000
  H   H12       1.0  0.32636  0.02747  0.77728  1.0000
  H   H13       1.0  0.82635  0.47255  0.77727  1.0000
  H   H14       1.0  0.32634  0.52746  0.72272  1.0000
  H   H15       1.0  0.17365  0.02746  0.27728  1.0000
  H   H16       1.0  0.67365  0.97254  0.22272  1.0000
  H   H17       1.0  0.18858  0.31502  0.22895  1.0000
  H   H18       1.0  0.68858  0.68498  0.27105  1.0000
  H   H19       1.0  0.81141  0.18498  0.72895  1.0000
  H   H20       1.0  0.31141  0.81503  0.77105  1.0000
  H   H21       1.0  0.81141  0.68500  0.77105  1.0000
  H   H22       1.0  0.31141  0.31501  0.72894  1.0000
  H   H23       1.0  0.18859  0.81501  0.27105  1.0000
  H   H24       1.0  0.68859  0.18499  0.22895  1.0000
  H   H25       1.0  0.01906  0.20089  0.34518  1.0000
  H   H26       1.0  0.51905  0.79910  0.15483  1.0000
  H   H27       1.0  0.98094  0.29910  0.84517  1.0000
  H   H28       1.0  0.48094  0.70090  0.65483  1.0000
  H   H29       1.0  0.98094  0.79911  0.65482  1.0000
  H   H30       1.0  0.48094  0.20089  0.84517  1.0000
  H   H31       1.0  0.01906  0.70089  0.15482  1.0000
  H   H32       1.0  0.51906  0.29911  0.34518  1.0000
  H   H33       1.0  0.59562  0.33662  0.61221  1.0000
  H   H34       1.0  0.09561  0.66338  0.88780  1.0000
  H   H35       1.0  0.40438  0.16338  0.11220  1.0000
  H   H36       1.0  0.90438  0.83662  0.38780  1.0000
  H   H37       1.0  0.40438  0.66338  0.38780  1.0000
  H   H38       1.0  0.90437  0.33662  0.11220  1.0000
  H   H39       1.0  0.59562  0.83662  0.88780  1.0000
  H   H40       1.0  0.09563  0.16338  0.61220  1.0000
  H   H41       1.0  0.58379  0.48277  0.60664  1.0000
  H   H42       1.0  0.08378  0.51723  0.89336  1.0000
  H   H43       1.0  0.41621  0.01724  0.10663  1.0000
  H   H44       1.0  0.91622  0.98276  0.39337  1.0000
  H   H45       1.0  0.41621  0.51724  0.39337  1.0000
  H   H46       1.0  0.91621  0.48276  0.10663  1.0000
  H   H47       1.0  0.58379  0.98276  0.89337  1.0000
  H   H48       1.0  0.08379  0.01723  0.60663  1.0000
  C   C1        1.0  0.73135  0.41211  0.50439  1.0000
  C   C2        1.0  0.23135  0.58789  0.99561  1.0000
  C   C3        1.0  0.26865  0.08789  0.00439  1.0000
  C   C4        1.0  0.76865  0.91211  0.49562  1.0000
  C   C5        1.0  0.26864  0.58789  0.49561  1.0000
  C   C6        1.0  0.76864  0.41211  0.00439  1.0000
  C   C7        1.0  0.73136  0.91211  0.99561  1.0000
  C   C8        1.0  0.23136  0.08789  0.50439  1.0000
  C   C9        1.0  0.89866  0.47677  0.39601  1.0000
  C   C10       1.0  0.39866  0.52323  0.10399  1.0000
  C   C11       1.0  0.10134  0.02323  0.89601  1.0000
  C   C12       1.0  0.60134  0.97677  0.60399  1.0000
  C   C13       1.0  0.10133  0.52324  0.60399  1.0000
  C   C14       1.0  0.60133  0.47676  0.89601  1.0000
  C   C15       1.0  0.89867  0.97675  0.10399  1.0000
  C   C16       1.0  0.39868  0.02324  0.39601  1.0000
  C   C17       1.0  0.99342  0.54049  0.33232  1.0000
  C   C18       1.0  0.49342  0.45950  0.16768  1.0000
  C   C19       1.0  0.00658  0.95951  0.83232  1.0000
  C   C20       1.0  0.50658  0.04049  0.66768  1.0000
  C   C21       1.0  0.00657  0.45952  0.66768  1.0000
  C   C22       1.0  0.50657  0.54049  0.83232  1.0000
  C   C23       1.0  0.99343  0.04048  0.16768  1.0000
  C   C24       1.0  0.49343  0.95951  0.33232  1.0000
  C   C25       1.0  0.09711  0.48027  0.27257  1.0000
  C   C26       1.0  0.59711  0.51973  0.22743  1.0000
  C   C27       1.0  0.90289  0.01973  0.77257  1.0000
  C   C28       1.0  0.40289  0.98027  0.72743  1.0000
  C   C29       1.0  0.90288  0.51974  0.72743  1.0000
  C   C30       1.0  0.40288  0.48026  0.77257  1.0000
  C   C31       1.0  0.09712  0.98026  0.22743  1.0000
  C   C32       1.0  0.59713  0.01974  0.27257  1.0000
  C   C33       1.0  0.10604  0.35922  0.27647  1.0000
  C   C34       1.0  0.60604  0.64078  0.22354  1.0000
  C   C35       1.0  0.89396  0.14078  0.77646  1.0000
  C   C36       1.0  0.39395  0.85922  0.72354  1.0000
  C   C37       1.0  0.89395  0.64079  0.72353  1.0000
  C   C38       1.0  0.39395  0.35921  0.77646  1.0000
  C   C39       1.0  0.10605  0.85921  0.22354  1.0000
  C   C40       1.0  0.60605  0.14079  0.27646  1.0000
  C   C41       1.0  0.01143  0.29460  0.34062  1.0000
  C   C42       1.0  0.51143  0.70540  0.15939  1.0000
  C   C43       1.0  0.98856  0.20540  0.84061  1.0000
  C   C44       1.0  0.48856  0.79460  0.65939  1.0000
  C   C45       1.0  0.98856  0.70541  0.65938  1.0000
  C   C46       1.0  0.48856  0.29459  0.84061  1.0000
  C   C47       1.0  0.01144  0.79459  0.15939  1.0000
  C   C48       1.0  0.51144  0.20541  0.34061  1.0000
  C   C49       1.0  0.90770  0.35439  0.40022  1.0000
  C   C50       1.0  0.40769  0.64560  0.09978  1.0000
  C   C51       1.0  0.09230  0.14561  0.90022  1.0000
  C   C52       1.0  0.59230  0.85440  0.59978  1.0000
  C   C53       1.0  0.09229  0.64561  0.59977  1.0000
  C   C54       1.0  0.59229  0.35439  0.90022  1.0000
  C   C55       1.0  0.90771  0.85439  0.09978  1.0000
  C   C56       1.0  0.40771  0.14561  0.40022  1.0000
  N   N1        1.0  0.80117  0.31549  0.47028  1.0000
  N   N2        1.0  0.30117  0.68451  0.02972  1.0000
  N   N3        1.0  0.19883  0.18451  0.97028  1.0000
  N   N4        1.0  0.69883  0.81549  0.52972  1.0000
  N   N5        1.0  0.19882  0.68452  0.52971  1.0000
  N   N6        1.0  0.69882  0.31548  0.97028  1.0000
  N   N7        1.0  0.80118  0.81548  0.02972  1.0000
  N   N8        1.0  0.30118  0.18452  0.47028  1.0000
  N   N9        1.0  0.78594  0.51130  0.46275  1.0000
  N   N10       1.0  0.28593  0.48870  0.03725  1.0000
  N   N11       1.0  0.21407  0.98870  0.96274  1.0000
  N   N12       1.0  0.71407  0.01130  0.53726  1.0000
  N   N13       1.0  0.21406  0.48870  0.53725  1.0000
  N   N14       1.0  0.71405  0.51130  0.96275  1.0000
  N   N15       1.0  0.78595  0.01130  0.03725  1.0000
  N   N16       1.0  0.28595  0.98870  0.46274  1.0000
  N   N17       1.0  0.61178  0.40895  0.56829  1.0000
  N   N18       1.0  0.11177  0.59105  0.93171  1.0000
  N   N19       1.0  0.38823  0.09105  0.06829  1.0000
  N   N20       1.0  0.88823  0.90895  0.43171  1.0000
  N   N21       1.0  0.38823  0.59105  0.43171  1.0000
  N   N22       1.0  0.88822  0.40895  0.06829  1.0000
  N   N23       1.0  0.61178  0.90895  0.93171  1.0000
  N   N24       1.0  0.11178  0.09105  0.56829  1.0000
