data_image0
_chemical_formula_structural       Cd2H20C26S2N6Cl4
_chemical_formula_sum              "Cd2 H20 C26 S2 N6 Cl4"
_cell_length_a       8.95485
_cell_length_b       10.4711
_cell_length_c       10.6846
_cell_angle_alpha    66.7369
_cell_angle_beta     87.718
_cell_angle_gamma    85.3728

_space_group_name_H-M_alt    "P 1"
_space_group_IT_number       1

loop_
  _space_group_symop_operation_xyz
  'x, y, z'

loop_
  _atom_site_type_symbol
  _atom_site_label
  _atom_site_symmetry_multiplicity
  _atom_site_fract_x
  _atom_site_fract_y
  _atom_site_fract_z
  _atom_site_occupancy
  Cd  Cd1       1.0  0.94761  0.83102  0.49212  1.0000
  Cd  Cd2       1.0  0.05237  0.16897  0.50788  1.0000
  H   H1        1.0  0.25680  0.11064  0.87228  1.0000
  H   H2        1.0  0.74319  0.88936  0.12772  1.0000
  H   H3        1.0  0.10882  0.33386  0.84820  1.0000
  H   H4        1.0  0.89122  0.66616  0.15181  1.0000
  H   H5        1.0  0.92046  0.33871  0.01966  1.0000
  H   H6        1.0  0.07966  0.66134  0.98042  1.0000
  H   H7        1.0  0.88101  0.13150  0.23401  1.0000
  H   H8        1.0  0.11911  0.86851  0.76607  1.0000
  H   H9        1.0  0.10991  0.57697  0.30748  1.0000
  H   H10       1.0  0.89007  0.42301  0.69248  1.0000
  H   H11       1.0  0.18553  0.62840  0.42908  1.0000
  H   H12       1.0  0.81443  0.37158  0.57091  1.0000
  H   H13       1.0  0.36136  0.80533  0.38739  1.0000
  H   H14       1.0  0.63861  0.19469  0.61259  1.0000
  H   H15       1.0  0.57461  0.89059  0.46202  1.0000
  H   H16       1.0  0.42539  0.10943  0.53795  1.0000
  H   H17       1.0  0.87526  0.60108  0.39436  1.0000
  H   H18       1.0  0.12471  0.39891  0.60563  1.0000
  H   H19       1.0  0.67844  0.50395  0.31304  1.0000
  H   H20       1.0  0.32152  0.49605  0.68693  1.0000
  C   C1        1.0  0.14811  0.99378  0.06705  1.0000
  C   C2        1.0  0.85189  0.00621  0.93296  1.0000
  C   C3        1.0  0.17354  0.11523  0.94785  1.0000
  C   C4        1.0  0.82647  0.88475  0.05217  1.0000
  C   C5        1.0  0.09230  0.23716  0.93563  1.0000
  C   C6        1.0  0.90775  0.76285  0.06440  1.0000
  C   C7        1.0  0.98361  0.24027  0.03495  1.0000
  C   C8        1.0  0.01648  0.75975  0.96512  1.0000
  C   C9        1.0  0.96020  0.12360  0.15678  1.0000
  C   C10       1.0  0.03989  0.87640  0.84328  1.0000
  C   C11       1.0  0.04165  0.00131  0.17082  1.0000
  C   C12       1.0  0.95838  0.99869  0.82919  1.0000
  C   C13       1.0  0.15002  0.79381  0.23514  1.0000
  C   C14       1.0  0.84995  0.20618  0.76484  1.0000
  C   C15       1.0  0.19148  0.64509  0.32061  1.0000
  C   C16       1.0  0.80847  0.35490  0.67938  1.0000
  C   C17       1.0  0.50009  0.64678  0.34035  1.0000
  C   C18       1.0  0.49988  0.35324  0.65963  1.0000
  C   C19       1.0  0.47272  0.75617  0.38496  1.0000
  C   C20       1.0  0.52726  0.24384  0.61501  1.0000
  C   C21       1.0  0.59252  0.80472  0.42829  1.0000
  C   C22       1.0  0.40747  0.19529  0.57168  1.0000
  C   C23       1.0  0.76008  0.64530  0.38945  1.0000
  C   C24       1.0  0.23989  0.35469  0.61052  1.0000
  C   C25       1.0  0.64891  0.59065  0.34365  1.0000
  C   C26       1.0  0.35107  0.40936  0.65632  1.0000
  S   S1        1.0  0.36692  0.57163  0.28233  1.0000
  S   S2        1.0  0.63307  0.42835  0.71766  1.0000
  N   N1        1.0  0.05064  0.86932  0.27799  1.0000
  N   N2        1.0  0.94936  0.13068  0.72201  1.0000
  N   N3        1.0  0.21369  0.86493  0.10599  1.0000
  N   N4        1.0  0.78628  0.13505  0.89399  1.0000
  N   N5        1.0  0.73472  0.75149  0.43038  1.0000
  N   N6        1.0  0.26527  0.24851  0.56959  1.0000
  Cl  Cl1       1.0  0.02514  0.61368  0.68821  1.0000
  Cl  Cl2       1.0  0.97479  0.38630  0.31180  1.0000
  Cl  Cl3       1.0  0.20329  0.95618  0.50441  1.0000
  Cl  Cl4       1.0  0.79668  0.04380  0.49562  1.0000
