data_image0
_chemical_formula_structural       Mn3H30C48N12O12
_chemical_formula_sum              "Mn3 H30 C48 N12 O12"
_cell_length_a       10.1632
_cell_length_b       10.9253
_cell_length_c       11.3777
_cell_angle_alpha    107.11
_cell_angle_beta     93.9605
_cell_angle_gamma    95.0239

_space_group_name_H-M_alt    "P 1"
_space_group_IT_number       1

loop_
  _space_group_symop_operation_xyz
  'x, y, z'

loop_
  _atom_site_type_symbol
  _atom_site_label
  _atom_site_symmetry_multiplicity
  _atom_site_fract_x
  _atom_site_fract_y
  _atom_site_fract_z
  _atom_site_occupancy
  Mn  Mn1       1.0  0.50000  0.50000  0.50000  1.0000
  Mn  Mn2       1.0  0.37376  0.30714  0.18896  1.0000
  Mn  Mn3       1.0  0.62624  0.69285  0.81103  1.0000
  H   H1        1.0  0.48317  0.95557  0.63613  1.0000
  H   H2        1.0  0.51684  0.04443  0.36386  1.0000
  H   H3        1.0  0.54329  0.16076  0.58449  1.0000
  H   H4        1.0  0.45672  0.83923  0.41550  1.0000
  H   H5        1.0  0.46169  0.39204  0.94450  1.0000
  H   H6        1.0  0.53831  0.60796  0.05550  1.0000
  H   H7        1.0  0.99655  0.89735  0.73996  1.0000
  H   H8        1.0  0.00345  0.10264  0.26005  1.0000
  H   H9        1.0  0.12254  0.84671  0.55111  1.0000
  H   H10       1.0  0.87747  0.15329  0.44890  1.0000
  H   H11       1.0  0.10128  0.35685  0.74745  1.0000
  H   H12       1.0  0.89870  0.64315  0.25255  1.0000
  H   H13       1.0  0.23098  0.40453  0.58467  1.0000
  H   H14       1.0  0.76901  0.59547  0.41533  1.0000
  H   H15       1.0  0.25206  0.00088  0.40634  1.0000
  H   H16       1.0  0.74795  0.99912  0.59367  1.0000
  H   H17       1.0  0.31465  0.99180  0.05142  1.0000
  H   H18       1.0  0.68537  0.00820  0.94858  1.0000
  H   H19       1.0  0.12893  0.41619  0.38572  1.0000
  H   H20       1.0  0.87108  0.58382  0.61428  1.0000
  H   H21       1.0  0.89856  0.41574  0.45354  1.0000
  H   H22       1.0  0.10144  0.58425  0.54645  1.0000
  H   H23       1.0  0.72370  0.27118  0.07527  1.0000
  H   H24       1.0  0.27630  0.72884  0.92473  1.0000
  H   H25       1.0  0.38763  0.87279  0.83554  1.0000
  H   H26       1.0  0.61238  0.12721  0.16447  1.0000
  H   H27       1.0  0.18596  0.26221  0.93535  1.0000
  H   H28       1.0  0.81404  0.73779  0.06465  1.0000
  H   H29       1.0  0.94497  0.21433  0.90441  1.0000
  H   H30       1.0  0.05502  0.78568  0.09559  1.0000
  C   C1        1.0  0.42915  0.18402  0.90599  1.0000
  C   C2        1.0  0.57085  0.81598  0.09401  1.0000
  C   C3        1.0  0.43250  0.06204  0.81779  1.0000
  C   C4        1.0  0.56750  0.93796  0.18220  1.0000
  C   C5        1.0  0.47739  0.04972  0.70187  1.0000
  C   C6        1.0  0.52261  0.95027  0.29812  1.0000
  C   C7        1.0  0.51199  0.16347  0.67474  1.0000
  C   C8        1.0  0.48801  0.83652  0.32526  1.0000
  C   C9        1.0  0.50499  0.28607  0.76048  1.0000
  C   C10       1.0  0.49501  0.71393  0.23952  1.0000
  C   C11       1.0  0.46632  0.29767  0.87854  1.0000
  C   C12       1.0  0.53367  0.70233  0.12145  1.0000
  C   C13       1.0  0.52963  0.40531  0.72314  1.0000
  C   C14       1.0  0.47038  0.59469  0.27686  1.0000
  C   C15       1.0  0.15462  0.05103  0.57685  1.0000
  C   C16       1.0  0.84538  0.94897  0.42316  1.0000
  C   C17       1.0  0.10774  0.14980  0.67142  1.0000
  C   C18       1.0  0.89225  0.85020  0.32858  1.0000
  C   C19       1.0  0.04309  0.97010  0.70374  1.0000
  C   C20       1.0  0.95691  0.02990  0.29627  1.0000
  C   C21       1.0  0.13514  0.27918  0.67553  1.0000
  C   C22       1.0  0.86484  0.72082  0.32447  1.0000
  C   C23       1.0  0.20642  0.30556  0.58447  1.0000
  C   C24       1.0  0.79357  0.69443  0.41553  1.0000
  C   C25       1.0  0.24759  0.20635  0.48781  1.0000
  C   C26       1.0  0.75241  0.79365  0.51220  1.0000
  C   C27       1.0  0.22187  0.07636  0.48258  1.0000
  C   C28       1.0  0.77813  0.92364  0.51743  1.0000
  C   C29       1.0  0.35336  0.03806  0.98658  1.0000
  C   C30       1.0  0.64665  0.96194  0.01342  1.0000
  C   C31       1.0  0.30658  0.23944  0.38412  1.0000
  C   C32       1.0  0.69342  0.76056  0.61588  1.0000
  C   C33       1.0  0.04116  0.38455  0.31920  1.0000
  C   C34       1.0  0.95884  0.61546  0.68080  1.0000
  C   C35       1.0  0.91355  0.38363  0.35574  1.0000
  C   C36       1.0  0.08645  0.61638  0.64426  1.0000
  C   C37       1.0  0.79982  0.34179  0.26880  1.0000
  C   C38       1.0  0.20018  0.65822  0.73120  1.0000
  C   C39       1.0  0.81207  0.29920  0.14128  1.0000
  C   C40       1.0  0.18793  0.70082  0.85872  1.0000
  C   C41       1.0  0.66442  0.34476  0.31061  1.0000
  C   C42       1.0  0.33559  0.65523  0.68939  1.0000
  C   C43       1.0  0.05431  0.34231  0.19226  1.0000
  C   C44       1.0  0.94570  0.65770  0.80774  1.0000
  C   C45       1.0  0.94002  0.29991  0.10493  1.0000
  C   C46       1.0  0.05998  0.70011  0.89507  1.0000
  C   C47       1.0  0.12400  0.28542  0.01076  1.0000
  C   C48       1.0  0.87600  0.71458  0.98924  1.0000
  N   N1        1.0  0.03734  0.09586  0.74809  1.0000
  N   N2        1.0  0.96265  0.90414  0.25191  1.0000
  N   N3        1.0  0.11306  0.93805  0.60254  1.0000
  N   N4        1.0  0.88694  0.06195  0.39747  1.0000
  N   N5        1.0  0.38005  0.16514  0.01149  1.0000
  N   N6        1.0  0.61995  0.83486  0.98851  1.0000
  N   N7        1.0  0.38282  0.97255  0.87219  1.0000
  N   N8        1.0  0.61719  0.02744  0.12781  1.0000
  N   N9        1.0  0.16765  0.33145  0.12985  1.0000
  N   N10       1.0  0.83236  0.66855  0.87015  1.0000
  N   N11       1.0  0.98950  0.26573  0.99052  1.0000
  N   N12       1.0  0.01050  0.73429  0.00948  1.0000
  O   O1        1.0  0.52813  0.38983  0.60722  1.0000
  O   O2        1.0  0.47187  0.61017  0.39278  1.0000
  O   O3        1.0  0.54604  0.51331  0.80868  1.0000
  O   O4        1.0  0.45397  0.48669  0.19132  1.0000
  O   O5        1.0  0.36109  0.35593  0.39608  1.0000
  O   O6        1.0  0.63890  0.64406  0.60392  1.0000
  O   O7        1.0  0.29411  0.15681  0.27746  1.0000
  O   O8        1.0  0.70589  0.84319  0.72255  1.0000
  O   O9        1.0  0.57061  0.26694  0.23788  1.0000
  O   O10       1.0  0.42939  0.73306  0.76212  1.0000
  O   O11       1.0  0.64992  0.42627  0.41383  1.0000
  O   O12       1.0  0.35009  0.57372  0.58617  1.0000
