data_image0
_chemical_formula_structural       K4H12C12N16O20
_chemical_formula_sum              "K4 H12 C12 N16 O20"
_cell_length_a       3.8231
_cell_length_b       13.2396
_cell_length_c       15.2669
_cell_angle_alpha    90
_cell_angle_beta     89.9999
_cell_angle_gamma    89.9998

_space_group_name_H-M_alt    "P 1"
_space_group_IT_number       1

loop_
  _space_group_symop_operation_xyz
  'x, y, z'

loop_
  _atom_site_type_symbol
  _atom_site_label
  _atom_site_symmetry_multiplicity
  _atom_site_fract_x
  _atom_site_fract_y
  _atom_site_fract_z
  _atom_site_occupancy
  K   K1        1.0  0.82980  0.93026  0.59189  1.0000
  K   K2        1.0  0.17020  0.06974  0.09189  1.0000
  K   K3        1.0  0.82981  0.56974  0.09189  1.0000
  K   K4        1.0  0.17019  0.43026  0.59189  1.0000
  H   H1        1.0  0.26236  0.12216  0.60236  1.0000
  H   H2        1.0  0.73763  0.87784  0.10236  1.0000
  H   H3        1.0  0.26237  0.37784  0.10236  1.0000
  H   H4        1.0  0.73763  0.62216  0.60236  1.0000
  H   H5        1.0  0.41296  0.09095  0.69423  1.0000
  H   H6        1.0  0.58704  0.90905  0.19423  1.0000
  H   H7        1.0  0.41297  0.40905  0.19423  1.0000
  H   H8        1.0  0.58703  0.59095  0.69423  1.0000
  H   H9        1.0  0.49376  0.50049  0.87535  1.0000
  H   H10       1.0  0.50623  0.49951  0.37535  1.0000
  H   H11       1.0  0.49376  0.99951  0.37535  1.0000
  H   H12       1.0  0.50624  0.00049  0.87535  1.0000
  C   C1        1.0  0.40691  0.57843  0.87193  1.0000
  C   C2        1.0  0.59310  0.42157  0.37193  1.0000
  C   C3        1.0  0.40690  0.92157  0.37193  1.0000
  C   C4        1.0  0.59310  0.07843  0.87193  1.0000
  C   C5        1.0  0.29901  0.72464  0.82093  1.0000
  C   C6        1.0  0.70099  0.27535  0.32093  1.0000
  C   C7        1.0  0.29902  0.77535  0.32093  1.0000
  C   C8        1.0  0.70099  0.22464  0.82093  1.0000
  C   C9        1.0  0.20724  0.72112  0.91065  1.0000
  C   C10       1.0  0.79276  0.27888  0.41065  1.0000
  C   C11       1.0  0.20725  0.77888  0.41065  1.0000
  C   C12       1.0  0.79275  0.22112  0.91065  1.0000
  N   N1        1.0  0.27492  0.62782  0.94231  1.0000
  N   N2        1.0  0.72508  0.37218  0.44231  1.0000
  N   N3        1.0  0.27492  0.87218  0.44231  1.0000
  N   N4        1.0  0.72507  0.12782  0.94231  1.0000
  N   N5        1.0  0.42531  0.63312  0.79757  1.0000
  N   N6        1.0  0.57470  0.36688  0.29757  1.0000
  N   N7        1.0  0.42530  0.86688  0.29757  1.0000
  N   N8        1.0  0.57470  0.13312  0.79757  1.0000
  N   N9        1.0  0.23481  0.80031  0.75667  1.0000
  N   N10       1.0  0.76519  0.19969  0.25667  1.0000
  N   N11       1.0  0.23481  0.69969  0.25667  1.0000
  N   N12       1.0  0.76520  0.30031  0.75667  1.0000
  N   N13       1.0  0.08214  0.79834  0.96787  1.0000
  N   N14       1.0  0.91786  0.20166  0.46787  1.0000
  N   N15       1.0  0.08215  0.70166  0.46787  1.0000
  N   N16       1.0  0.91785  0.29834  0.96787  1.0000
  O   O1        1.0  0.37879  0.79087  0.68353  1.0000
  O   O2        1.0  0.62121  0.20913  0.18353  1.0000
  O   O3        1.0  0.37878  0.70912  0.18353  1.0000
  O   O4        1.0  0.62122  0.29088  0.68353  1.0000
  O   O5        1.0  0.03233  0.87116  0.77515  1.0000
  O   O6        1.0  0.96766  0.12884  0.27515  1.0000
  O   O7        1.0  0.03233  0.62884  0.27515  1.0000
  O   O8        1.0  0.96767  0.37116  0.77515  1.0000
  O   O9        1.0  0.16473  0.88759  0.95388  1.0000
  O   O10       1.0  0.83527  0.11240  0.45388  1.0000
  O   O11       1.0  0.16474  0.61240  0.45388  1.0000
  O   O12       1.0  0.83526  0.38760  0.95388  1.0000
  O   O13       1.0  0.89524  0.77108  0.03121  1.0000
  O   O14       1.0  0.10476  0.22893  0.53121  1.0000
  O   O15       1.0  0.89524  0.72892  0.53122  1.0000
  O   O16       1.0  0.10476  0.27107  0.03121  1.0000
  O   O17       1.0  0.33086  0.06304  0.63704  1.0000
  O   O18       1.0  0.66914  0.93696  0.13704  1.0000
  O   O19       1.0  0.33087  0.43696  0.13704  1.0000
  O   O20       1.0  0.66913  0.56304  0.63704  1.0000
