data_image0
_chemical_formula_structural       Ba2H20C12N16O24
_chemical_formula_sum              "Ba2 H20 C12 N16 O24"
_cell_length_a       6.49813
_cell_length_b       10.0117
_cell_length_c       13.4685
_cell_angle_alpha    74.8798
_cell_angle_beta     76.0012
_cell_angle_gamma    71.0742

_space_group_name_H-M_alt    "P 1"
_space_group_IT_number       1

loop_
  _space_group_symop_operation_xyz
  'x, y, z'

loop_
  _atom_site_type_symbol
  _atom_site_label
  _atom_site_symmetry_multiplicity
  _atom_site_fract_x
  _atom_site_fract_y
  _atom_site_fract_z
  _atom_site_occupancy
  Ba  Ba1       1.0  0.77459  0.25001  0.75001  1.0000
  Ba  Ba2       1.0  0.22541  0.74999  0.24999  1.0000
  H   H1        1.0  0.23973  0.46513  0.77008  1.0000
  H   H2        1.0  0.47475  0.03504  0.73004  1.0000
  H   H3        1.0  0.76026  0.53487  0.22992  1.0000
  H   H4        1.0  0.52525  0.96496  0.26996  1.0000
  H   H5        1.0  0.30857  0.40131  0.88248  1.0000
  H   H6        1.0  0.59241  0.09869  0.61760  1.0000
  H   H7        1.0  0.69143  0.59869  0.11752  1.0000
  H   H8        1.0  0.40759  0.90131  0.38240  1.0000
  H   H9        1.0  0.24452  0.14354  0.49985  1.0000
  H   H10       1.0  0.88794  0.35681  0.00002  1.0000
  H   H11       1.0  0.75548  0.85646  0.50015  1.0000
  H   H12       1.0  0.11207  0.64319  0.99998  1.0000
  H   H13       1.0  0.17316  0.24104  0.85432  1.0000
  H   H14       1.0  0.26864  0.25905  0.64566  1.0000
  H   H15       1.0  0.82684  0.75896  0.14568  1.0000
  H   H16       1.0  0.73136  0.74095  0.35434  1.0000
  H   H17       1.0  0.17796  0.07669  0.89281  1.0000
  H   H18       1.0  0.14772  0.42339  0.60721  1.0000
  H   H19       1.0  0.82204  0.92331  0.10719  1.0000
  H   H20       1.0  0.85228  0.57661  0.39279  1.0000
  C   C1        1.0  0.20921  0.04334  0.54329  1.0000
  C   C2        1.0  0.79569  0.45692  0.95663  1.0000
  C   C3        1.0  0.79079  0.95666  0.45671  1.0000
  C   C4        1.0  0.20431  0.54308  0.04337  1.0000
  C   C5        1.0  0.10058  0.88900  0.66959  1.0000
  C   C6        1.0  0.65874  0.61108  0.83046  1.0000
  C   C7        1.0  0.89942  0.11100  0.33041  1.0000
  C   C8        1.0  0.34126  0.38892  0.16954  1.0000
  C   C9        1.0  0.20230  0.82372  0.58155  1.0000
  C   C10       1.0  0.60708  0.67641  0.91847  1.0000
  C   C11       1.0  0.79770  0.17628  0.41845  1.0000
  C   C12       1.0  0.39292  0.32359  0.08153  1.0000
  N   N1        1.0  0.10323  0.02768  0.64371  1.0000
  N   N2        1.0  0.77437  0.47247  0.85628  1.0000
  N   N3        1.0  0.89678  0.97231  0.35629  1.0000
  N   N4        1.0  0.22563  0.52753  0.14372  1.0000
  N   N5        1.0  0.26906  0.92449  0.50254  1.0000
  N   N6        1.0  0.69581  0.57574  0.99739  1.0000
  N   N7        1.0  0.73094  0.07551  0.49746  1.0000
  N   N8        1.0  0.30419  0.42426  0.00261  1.0000
  N   N9        1.0  0.01559  0.83346  0.77551  1.0000
  N   N10       1.0  0.62436  0.66654  0.72455  1.0000
  N   N11       1.0  0.98441  0.16654  0.22449  1.0000
  N   N12       1.0  0.37564  0.33346  0.27545  1.0000
  N   N13       1.0  0.21631  0.68832  0.56182  1.0000
  N   N14       1.0  0.46612  0.81178  0.93826  1.0000
  N   N15       1.0  0.78369  0.31168  0.43818  1.0000
  N   N16       1.0  0.53388  0.18821  0.06175  1.0000
  O   O1        1.0  0.87466  0.92014  0.82681  1.0000
  O   O2        1.0  0.62167  0.57979  0.67327  1.0000
  O   O3        1.0  0.12534  0.07986  0.17319  1.0000
  O   O4        1.0  0.37833  0.42021  0.32673  1.0000
  O   O5        1.0  0.07841  0.17436  0.87862  1.0000
  O   O6        1.0  0.13166  0.32571  0.62132  1.0000
  O   O7        1.0  0.92159  0.82564  0.12138  1.0000
  O   O8        1.0  0.86834  0.67429  0.37868  1.0000
  O   O9        1.0  0.09027  0.70338  0.81226  1.0000
  O   O10       1.0  0.60571  0.79663  0.68778  1.0000
  O   O11       1.0  0.90973  0.29661  0.18774  1.0000
  O   O12       1.0  0.39429  0.20337  0.31222  1.0000
  O   O13       1.0  0.31962  0.37721  0.81244  1.0000
  O   O14       1.0  0.50932  0.12292  0.68764  1.0000
  O   O15       1.0  0.68038  0.62279  0.18756  1.0000
  O   O16       1.0  0.49068  0.87708  0.31236  1.0000
  O   O17       1.0  0.12935  0.60353  0.63257  1.0000
  O   O18       1.0  0.36523  0.89665  0.86757  1.0000
  O   O19       1.0  0.87065  0.39647  0.36743  1.0000
  O   O20       1.0  0.63477  0.10335  0.13243  1.0000
  O   O21       1.0  0.30902  0.66004  0.47434  1.0000
  O   O22       1.0  0.44314  0.84003  0.02572  1.0000
  O   O23       1.0  0.69099  0.33996  0.52566  1.0000
  O   O24       1.0  0.55686  0.15997  0.97428  1.0000
