data_image0
_chemical_formula_structural       Gd4H36C52N8O28
_chemical_formula_sum              "Gd4 H36 C52 N8 O28"
_cell_length_a       9.23912
_cell_length_b       10.5414
_cell_length_c       14.1275
_cell_angle_alpha    90.0001
_cell_angle_beta     90
_cell_angle_gamma    95.862

_space_group_name_H-M_alt    "P 1"
_space_group_IT_number       1

loop_
  _space_group_symop_operation_xyz
  'x, y, z'

loop_
  _atom_site_type_symbol
  _atom_site_label
  _atom_site_symmetry_multiplicity
  _atom_site_fract_x
  _atom_site_fract_y
  _atom_site_fract_z
  _atom_site_occupancy
  Gd  Gd1       1.0  0.12432  0.97058  0.63512  1.0000
  Gd  Gd2       1.0  0.87568  0.52942  0.13513  1.0000
  Gd  Gd3       1.0  0.87568  0.02942  0.36488  1.0000
  Gd  Gd4       1.0  0.12432  0.47058  0.86488  1.0000
  H   H1        1.0  0.94330  0.87564  0.81579  1.0000
  H   H2        1.0  0.05670  0.62436  0.31579  1.0000
  H   H3        1.0  0.05670  0.12436  0.18421  1.0000
  H   H4        1.0  0.94330  0.37564  0.68421  1.0000
  H   H5        1.0  0.03371  0.76333  0.77164  1.0000
  H   H6        1.0  0.96629  0.73667  0.27164  1.0000
  H   H7        1.0  0.96629  0.23667  0.22836  1.0000
  H   H8        1.0  0.03371  0.26333  0.72835  1.0000
  H   H9        1.0  0.77251  0.20696  0.75862  1.0000
  H   H10       1.0  0.22749  0.29304  0.25862  1.0000
  H   H11       1.0  0.22749  0.79304  0.24138  1.0000
  H   H12       1.0  0.77251  0.70696  0.74138  1.0000
  H   H13       1.0  0.54643  0.27744  0.83497  1.0000
  H   H14       1.0  0.45357  0.22256  0.33497  1.0000
  H   H15       1.0  0.45357  0.72256  0.16504  1.0000
  H   H16       1.0  0.54643  0.77744  0.66504  1.0000
  H   H17       1.0  0.48848  0.96528  0.57630  1.0000
  H   H18       1.0  0.51152  0.53472  0.07630  1.0000
  H   H19       1.0  0.51152  0.03472  0.42370  1.0000
  H   H20       1.0  0.48848  0.46528  0.92370  1.0000
  H   H21       1.0  0.97965  0.60162  0.62724  1.0000
  H   H22       1.0  0.02035  0.89838  0.12724  1.0000
  H   H23       1.0  0.02035  0.39838  0.37276  1.0000
  H   H24       1.0  0.97965  0.10162  0.87276  1.0000
  H   H25       1.0  0.70024  0.28031  0.56200  1.0000
  H   H26       1.0  0.29976  0.21969  0.06200  1.0000
  H   H27       1.0  0.29976  0.71969  0.43800  1.0000
  H   H28       1.0  0.70024  0.78031  0.93800  1.0000
  H   H29       1.0  0.57365  0.39642  0.43957  1.0000
  H   H30       1.0  0.42635  0.10358  0.93957  1.0000
  H   H31       1.0  0.42635  0.60358  0.56043  1.0000
  H   H32       1.0  0.57365  0.89642  0.06043  1.0000
  H   H33       1.0  0.66605  0.62618  0.40438  1.0000
  H   H34       1.0  0.33395  0.87382  0.90438  1.0000
  H   H35       1.0  0.33395  0.37382  0.59562  1.0000
  H   H36       1.0  0.66605  0.12618  0.09562  1.0000
  C   C1        1.0  0.77576  0.05328  0.60092  1.0000
  C   C2        1.0  0.22424  0.44672  0.10091  1.0000
  C   C3        1.0  0.22424  0.94672  0.39909  1.0000
  C   C4        1.0  0.77576  0.55328  0.89908  1.0000
  C   C5        1.0  0.64752  0.08366  0.65942  1.0000
  C   C6        1.0  0.35248  0.41633  0.15942  1.0000
  C   C7        1.0  0.35248  0.91634  0.34058  1.0000
  C   C8        1.0  0.64752  0.58367  0.84058  1.0000
  C   C9        1.0  0.66412  0.16814  0.73602  1.0000
  C   C10       1.0  0.33589  0.33186  0.23602  1.0000
  C   C11       1.0  0.33588  0.83186  0.26398  1.0000
  C   C12       1.0  0.66412  0.66814  0.76398  1.0000
  C   C13       1.0  0.53989  0.20644  0.77875  1.0000
  C   C14       1.0  0.46012  0.29356  0.27875  1.0000
  C   C15       1.0  0.46011  0.79356  0.22125  1.0000
  C   C16       1.0  0.53989  0.70644  0.72125  1.0000
  C   C17       1.0  0.40338  0.15352  0.74765  1.0000
  C   C18       1.0  0.59662  0.34648  0.24765  1.0000
  C   C19       1.0  0.59662  0.84648  0.25235  1.0000
  C   C20       1.0  0.40338  0.65352  0.75235  1.0000
  C   C21       1.0  0.26316  0.19502  0.78609  1.0000
  C   C22       1.0  0.73684  0.30497  0.28609  1.0000
  C   C23       1.0  0.73684  0.80498  0.21391  1.0000
  C   C24       1.0  0.26316  0.69502  0.71391  1.0000
  C   C25       1.0  0.50669  0.03306  0.63440  1.0000
  C   C26       1.0  0.49331  0.46694  0.13440  1.0000
  C   C27       1.0  0.49331  0.96694  0.36560  1.0000
  C   C28       1.0  0.50669  0.53306  0.86560  1.0000
  C   C29       1.0  0.88680  0.76576  0.49512  1.0000
  C   C30       1.0  0.11321  0.73424  0.99512  1.0000
  C   C31       1.0  0.11321  0.23424  0.50488  1.0000
  C   C32       1.0  0.88680  0.26576  0.00488  1.0000
  C   C33       1.0  0.82914  0.63001  0.51333  1.0000
  C   C34       1.0  0.17086  0.86999  0.01333  1.0000
  C   C35       1.0  0.17086  0.36999  0.48667  1.0000
  C   C36       1.0  0.82915  0.13001  0.98667  1.0000
  C   C37       1.0  0.89013  0.55883  0.58358  1.0000
  C   C38       1.0  0.10987  0.94117  0.08358  1.0000
  C   C39       1.0  0.10987  0.44117  0.41642  1.0000
  C   C40       1.0  0.89013  0.05883  0.91642  1.0000
  C   C41       1.0  0.73388  0.38050  0.54817  1.0000
  C   C42       1.0  0.26612  0.11950  0.04817  1.0000
  C   C43       1.0  0.26612  0.61950  0.45183  1.0000
  C   C44       1.0  0.73388  0.88050  0.95183  1.0000
  C   C45       1.0  0.66429  0.44531  0.47854  1.0000
  C   C46       1.0  0.33571  0.05469  0.97854  1.0000
  C   C47       1.0  0.33571  0.55469  0.52146  1.0000
  C   C48       1.0  0.66429  0.94531  0.02146  1.0000
  C   C49       1.0  0.71386  0.57169  0.45970  1.0000
  C   C50       1.0  0.28614  0.92831  0.95970  1.0000
  C   C51       1.0  0.28614  0.42832  0.54030  1.0000
  C   C52       1.0  0.71386  0.07169  0.04030  1.0000
  N   N1        1.0  0.38771  0.06425  0.67906  1.0000
  N   N2        1.0  0.61229  0.43575  0.17906  1.0000
  N   N3        1.0  0.61229  0.93575  0.32094  1.0000
  N   N4        1.0  0.38771  0.56425  0.82094  1.0000
  N   N5        1.0  0.84446  0.43586  0.60031  1.0000
  N   N6        1.0  0.15554  0.06414  0.10031  1.0000
  N   N7        1.0  0.15554  0.56414  0.39969  1.0000
  N   N8        1.0  0.84446  0.93586  0.89969  1.0000
  O   O1        1.0  0.89561  0.04990  0.64373  1.0000
  O   O2        1.0  0.10439  0.45010  0.14373  1.0000
  O   O3        1.0  0.10439  0.95011  0.35627  1.0000
  O   O4        1.0  0.89561  0.54990  0.85627  1.0000
  O   O5        1.0  0.75168  0.03712  0.51300  1.0000
  O   O6        1.0  0.24832  0.46288  0.01300  1.0000
  O   O7        1.0  0.24833  0.96288  0.48700  1.0000
  O   O8        1.0  0.75168  0.53712  0.98700  1.0000
  O   O9        1.0  0.14694  0.12518  0.76477  1.0000
  O   O10       1.0  0.85306  0.37482  0.26476  1.0000
  O   O11       1.0  0.85306  0.87481  0.23524  1.0000
  O   O12       1.0  0.14694  0.62518  0.73524  1.0000
  O   O13       1.0  0.27069  0.29707  0.83388  1.0000
  O   O14       1.0  0.72932  0.20293  0.33388  1.0000
  O   O15       1.0  0.72932  0.70293  0.16612  1.0000
  O   O16       1.0  0.27069  0.79707  0.66612  1.0000
  O   O17       1.0  0.98265  0.81778  0.55099  1.0000
  O   O18       1.0  0.01735  0.68222  0.05099  1.0000
  O   O19       1.0  0.01735  0.18222  0.44901  1.0000
  O   O20       1.0  0.98265  0.31778  0.94901  1.0000
  O   O21       1.0  0.83457  0.81890  0.42431  1.0000
  O   O22       1.0  0.16544  0.68110  0.92431  1.0000
  O   O23       1.0  0.16543  0.18111  0.57569  1.0000
  O   O24       1.0  0.83457  0.31890  0.07569  1.0000
  O   O25       1.0  0.00884  0.85083  0.76215  1.0000
  O   O26       1.0  0.99116  0.64917  0.26215  1.0000
  O   O27       1.0  0.99116  0.14917  0.23785  1.0000
  O   O28       1.0  0.00884  0.35083  0.73785  1.0000
