data_image0
_chemical_formula_structural       Na4H12C12N16O20
_chemical_formula_sum              "Na4 H12 C12 N16 O20"
_cell_length_a       3.70258
_cell_length_b       12.6969
_cell_length_c       14.7755
_cell_angle_alpha    90.002
_cell_angle_beta     89.9778
_cell_angle_gamma    90.0031

_space_group_name_H-M_alt    "P 1"
_space_group_IT_number       1

loop_
  _space_group_symop_operation_xyz
  'x, y, z'

loop_
  _atom_site_type_symbol
  _atom_site_label
  _atom_site_symmetry_multiplicity
  _atom_site_fract_x
  _atom_site_fract_y
  _atom_site_fract_z
  _atom_site_occupancy
  Na  Na1       1.0  0.42936  0.06270  0.27968  1.0000
  Na  Na2       1.0  0.57037  0.93721  0.77958  1.0000
  Na  Na3       1.0  0.42960  0.43724  0.77966  1.0000
  Na  Na4       1.0  0.57064  0.56275  0.27959  1.0000
  H   H1        1.0  0.95058  0.98539  0.49164  1.0000
  H   H2        1.0  0.04881  0.01453  0.99165  1.0000
  H   H3        1.0  0.95095  0.51456  0.99162  1.0000
  H   H4        1.0  0.04848  0.48548  0.49166  1.0000
  H   H5        1.0  0.98464  0.92785  0.17932  1.0000
  H   H6        1.0  0.01526  0.07216  0.67929  1.0000
  H   H7        1.0  0.98473  0.57222  0.67929  1.0000
  H   H8        1.0  0.01539  0.42784  0.17931  1.0000
  H   H9        1.0  0.87005  0.89229  0.27612  1.0000
  H   H10       1.0  0.12992  0.10762  0.77610  1.0000
  H   H11       1.0  0.87016  0.60770  0.77612  1.0000
  H   H12       1.0  0.12996  0.39232  0.27610  1.0000
  C   C1        1.0  0.75216  0.21852  0.55169  1.0000
  C   C2        1.0  0.24774  0.78145  0.05168  1.0000
  C   C3        1.0  0.75210  0.28148  0.05167  1.0000
  C   C4        1.0  0.24766  0.71856  0.55167  1.0000
  C   C5        1.0  0.64675  0.21571  0.45966  1.0000
  C   C6        1.0  0.35308  0.78425  0.95961  1.0000
  C   C7        1.0  0.64682  0.28429  0.95963  1.0000
  C   C8        1.0  0.35308  0.71572  0.45962  1.0000
  C   C9        1.0  0.85916  0.06629  0.49671  1.0000
  C   C10       1.0  0.14046  0.93366  0.99669  1.0000
  C   C11       1.0  0.85912  0.43371  0.99670  1.0000
  C   C12       1.0  0.14043  0.56632  0.49671  1.0000
  N   N1        1.0  0.88511  0.12252  0.57391  1.0000
  N   N2        1.0  0.11468  0.87744  0.07390  1.0000
  N   N3        1.0  0.88492  0.37751  0.07391  1.0000
  N   N4        1.0  0.11459  0.62257  0.57390  1.0000
  N   N5        1.0  0.71281  0.11875  0.42577  1.0000
  N   N6        1.0  0.28685  0.88119  0.92573  1.0000
  N   N7        1.0  0.71286  0.38125  0.92576  1.0000
  N   N8        1.0  0.28694  0.61878  0.42576  1.0000
  N   N9        1.0  0.51499  0.29638  0.40146  1.0000
  N   N10       1.0  0.48499  0.70354  0.90140  1.0000
  N   N11       1.0  0.51511  0.20360  0.90145  1.0000
  N   N12       1.0  0.48508  0.79644  0.40140  1.0000
  N   N13       1.0  0.69075  0.29619  0.61943  1.0000
  N   N14       1.0  0.30967  0.70384  0.11945  1.0000
  N   N15       1.0  0.69058  0.20384  0.11942  1.0000
  N   N16       1.0  0.30962  0.79620  0.61944  1.0000
  O   O1        1.0  0.31614  0.26919  0.33681  1.0000
  O   O2        1.0  0.68412  0.73073  0.83677  1.0000
  O   O3        1.0  0.31618  0.23077  0.83682  1.0000
  O   O4        1.0  0.68437  0.76928  0.33679  1.0000
  O   O5        1.0  0.92836  0.95603  0.24135  1.0000
  O   O6        1.0  0.07162  0.04393  0.74129  1.0000
  O   O7        1.0  0.92857  0.54399  0.74130  1.0000
  O   O8        1.0  0.07183  0.45604  0.24131  1.0000
  O   O9        1.0  0.48231  0.37096  0.60187  1.0000
  O   O10       1.0  0.51843  0.62915  0.10183  1.0000
  O   O11       1.0  0.48209  0.12907  0.10189  1.0000
  O   O12       1.0  0.51847  0.87087  0.60180  1.0000
  O   O13       1.0  0.60572  0.38919  0.41572  1.0000
  O   O14       1.0  0.39425  0.61074  0.91567  1.0000
  O   O15       1.0  0.60575  0.11079  0.91574  1.0000
  O   O16       1.0  0.39403  0.88923  0.41564  1.0000
  O   O17       1.0  0.84054  0.28494  0.69449  1.0000
  O   O18       1.0  0.15992  0.71505  0.19455  1.0000
  O   O19       1.0  0.84038  0.21514  0.19448  1.0000
  O   O20       1.0  0.15995  0.78503  0.69457  1.0000
