data_image0
_chemical_formula_structural       Cu4H36C44S4N12O16
_chemical_formula_sum              "Cu4 H36 C44 S4 N12 O16"
_cell_length_a       6.73402
_cell_length_b       11.9918
_cell_length_c       15.2182
_cell_angle_alpha    90.7241
_cell_angle_beta     90.0018
_cell_angle_gamma    89.9982

_space_group_name_H-M_alt    "P 1"
_space_group_IT_number       1

loop_
  _space_group_symop_operation_xyz
  'x, y, z'

loop_
  _atom_site_type_symbol
  _atom_site_label
  _atom_site_symmetry_multiplicity
  _atom_site_fract_x
  _atom_site_fract_y
  _atom_site_fract_z
  _atom_site_occupancy
  Cu  Cu1       1.0  0.80861  0.49152  0.75168  1.0000
  Cu  Cu2       1.0  0.30860  0.50849  0.74830  1.0000
  Cu  Cu3       1.0  0.19139  0.50848  0.24832  1.0000
  Cu  Cu4       1.0  0.69139  0.49152  0.25170  1.0000
  H   H1        1.0  0.31135  0.01460  0.78357  1.0000
  H   H2        1.0  0.81134  0.98541  0.71644  1.0000
  H   H3        1.0  0.68864  0.98539  0.21643  1.0000
  H   H4        1.0  0.18865  0.01459  0.28357  1.0000
  H   H5        1.0  0.42614  0.86383  0.88259  1.0000
  H   H6        1.0  0.92612  0.13618  0.61741  1.0000
  H   H7        1.0  0.57386  0.13616  0.11741  1.0000
  H   H8        1.0  0.07388  0.86382  0.38259  1.0000
  H   H9        1.0  0.74635  0.88236  0.96353  1.0000
  H   H10       1.0  0.24632  0.11764  0.53647  1.0000
  H   H11       1.0  0.25366  0.11763  0.03647  1.0000
  H   H12       1.0  0.75369  0.88236  0.46353  1.0000
  H   H13       1.0  0.94945  0.05713  0.95103  1.0000
  H   H14       1.0  0.44945  0.94288  0.54898  1.0000
  H   H15       1.0  0.05054  0.94288  0.04897  1.0000
  H   H16       1.0  0.55056  0.05712  0.45102  1.0000
  H   H17       1.0  0.70532  0.38943  0.58602  1.0000
  H   H18       1.0  0.20532  0.61054  0.91397  1.0000
  H   H19       1.0  0.29470  0.61056  0.41397  1.0000
  H   H20       1.0  0.79467  0.38946  0.08602  1.0000
  H   H21       1.0  0.42075  0.40995  0.58027  1.0000
  H   H22       1.0  0.92077  0.59007  0.91971  1.0000
  H   H23       1.0  0.57926  0.59006  0.41974  1.0000
  H   H24       1.0  0.07922  0.40992  0.08030  1.0000
  H   H25       1.0  0.87700  0.29730  0.45626  1.0000
  H   H26       1.0  0.37702  0.70268  0.04373  1.0000
  H   H27       1.0  0.12304  0.70272  0.54372  1.0000
  H   H28       1.0  0.62297  0.29733  0.95626  1.0000
  H   H29       1.0  0.25593  0.30793  0.45198  1.0000
  H   H30       1.0  0.75596  0.69206  0.04801  1.0000
  H   H31       1.0  0.74409  0.69208  0.54802  1.0000
  H   H32       1.0  0.24402  0.30794  0.95198  1.0000
  H   H33       1.0  0.06265  0.40892  0.83891  1.0000
  H   H34       1.0  0.56263  0.59108  0.66107  1.0000
  H   H35       1.0  0.93735  0.59108  0.16109  1.0000
  H   H36       1.0  0.43738  0.40893  0.33893  1.0000
  C   C1        1.0  0.84064  0.24122  0.84191  1.0000
  C   C2        1.0  0.34064  0.75878  0.65810  1.0000
  C   C3        1.0  0.15936  0.75878  0.15810  1.0000
  C   C4        1.0  0.65936  0.24122  0.34191  1.0000
  C   C5        1.0  0.74703  0.12979  0.85893  1.0000
  C   C6        1.0  0.24705  0.87022  0.64108  1.0000
  C   C7        1.0  0.25295  0.87021  0.14108  1.0000
  C   C8        1.0  0.75296  0.12978  0.35893  1.0000
  C   C9        1.0  0.57077  0.11605  0.81164  1.0000
  C   C10       1.0  0.07077  0.88396  0.68837  1.0000
  C   C11       1.0  0.42923  0.88395  0.18837  1.0000
  C   C12       1.0  0.92923  0.11604  0.31163  1.0000
  C   C13       1.0  0.45092  0.02250  0.81928  1.0000
  C   C14       1.0  0.95092  0.97751  0.68073  1.0000
  C   C15       1.0  0.54907  0.97750  0.18072  1.0000
  C   C16       1.0  0.04908  0.02249  0.31927  1.0000
  C   C17       1.0  0.51723  0.93832  0.87528  1.0000
  C   C18       1.0  0.01722  0.06169  0.62474  1.0000
  C   C19       1.0  0.48277  0.06167  0.12473  1.0000
  C   C20       1.0  0.98278  0.93831  0.37527  1.0000
  C   C21       1.0  0.69605  0.94966  0.92157  1.0000
  C   C22       1.0  0.19604  0.05035  0.57844  1.0000
  C   C23       1.0  0.30395  0.05034  0.07843  1.0000
  C   C24       1.0  0.80396  0.94965  0.42157  1.0000
  C   C25       1.0  0.81147  0.04618  0.91467  1.0000
  C   C26       1.0  0.31146  0.95383  0.58534  1.0000
  C   C27       1.0  0.18852  0.95382  0.08533  1.0000
  C   C28       1.0  0.68854  0.04618  0.41466  1.0000
  C   C29       1.0  0.86533  0.39001  0.57797  1.0000
  C   C30       1.0  0.36534  0.60998  0.92202  1.0000
  C   C31       1.0  0.13469  0.61000  0.42202  1.0000
  C   C32       1.0  0.63465  0.39002  0.07798  1.0000
  C   C33       1.0  0.96252  0.33932  0.50720  1.0000
  C   C34       1.0  0.46253  0.66067  0.99278  1.0000
  C   C35       1.0  0.03750  0.66069  0.49279  1.0000
  C   C36       1.0  0.53745  0.33934  0.00721  1.0000
  C   C37       1.0  0.26094  0.40055  0.57456  1.0000
  C   C38       1.0  0.76096  0.59945  0.92542  1.0000
  C   C39       1.0  0.73907  0.59946  0.42544  1.0000
  C   C40       1.0  0.23903  0.40055  0.07458  1.0000
  C   C41       1.0  0.16765  0.34492  0.50482  1.0000
  C   C42       1.0  0.66766  0.65507  0.99517  1.0000
  C   C43       1.0  0.83237  0.65509  0.49518  1.0000
  C   C44       1.0  0.33233  0.34493  0.00483  1.0000
  S   S1        1.0  0.54067  0.23713  0.74667  1.0000
  S   S2        1.0  0.04069  0.76288  0.75332  1.0000
  S   S3        1.0  0.45932  0.76287  0.25333  1.0000
  S   S4        1.0  0.95930  0.23712  0.24667  1.0000
  N   N1        1.0  0.73919  0.30169  0.78196  1.0000
  N   N2        1.0  0.23918  0.69831  0.71803  1.0000
  N   N3        1.0  0.26082  0.69831  0.21804  1.0000
  N   N4        1.0  0.76079  0.30169  0.28196  1.0000
  N   N5        1.0  0.96373  0.44206  0.64277  1.0000
  N   N6        1.0  0.46374  0.55793  0.85722  1.0000
  N   N7        1.0  0.03627  0.55794  0.35723  1.0000
  N   N8        1.0  0.53626  0.44206  0.14278  1.0000
  N   N9        1.0  0.15988  0.44667  0.64129  1.0000
  N   N10       1.0  0.65989  0.55333  0.85869  1.0000
  N   N11       1.0  0.84012  0.55333  0.35871  1.0000
  N   N12       1.0  0.34011  0.44666  0.14131  1.0000
  O   O1        1.0  0.99107  0.27570  0.88246  1.0000
  O   O2        1.0  0.49107  0.72429  0.61754  1.0000
  O   O3        1.0  0.00894  0.72428  0.11754  1.0000
  O   O4        1.0  0.50894  0.27571  0.38246  1.0000
  O   O5        1.0  0.36231  0.29691  0.77397  1.0000
  O   O6        1.0  0.86233  0.70309  0.72602  1.0000
  O   O7        1.0  0.63767  0.70307  0.22604  1.0000
  O   O8        1.0  0.13765  0.29691  0.27397  1.0000
  O   O9        1.0  0.06288  0.48582  0.81478  1.0000
  O   O10       1.0  0.56286  0.51418  0.68521  1.0000
  O   O11       1.0  0.93713  0.51418  0.18522  1.0000
  O   O12       1.0  0.43713  0.48582  0.31479  1.0000
  O   O13       1.0  0.55626  0.21101  0.65323  1.0000
  O   O14       1.0  0.05628  0.78900  0.84676  1.0000
  O   O15       1.0  0.44374  0.78899  0.34677  1.0000
  O   O16       1.0  0.94370  0.21101  0.15323  1.0000
