data_image0
_chemical_formula_structural       Zn4H40C48N12O16
_chemical_formula_sum              "Zn4 H40 C48 N12 O16"
_cell_length_a       6.92833
_cell_length_b       13.2766
_cell_length_c       15.3014
_cell_angle_alpha    112.931
_cell_angle_beta     90.027
_cell_angle_gamma    105.128

_space_group_name_H-M_alt    "P 1"
_space_group_IT_number       1

loop_
  _space_group_symop_operation_xyz
  'x, y, z'

loop_
  _atom_site_type_symbol
  _atom_site_label
  _atom_site_symmetry_multiplicity
  _atom_site_fract_x
  _atom_site_fract_y
  _atom_site_fract_z
  _atom_site_occupancy
  Zn  Zn1       1.0  0.99254  0.65207  0.76985  1.0000
  Zn  Zn2       1.0  0.34002  0.34782  0.73007  1.0000
  Zn  Zn3       1.0  0.00747  0.34793  0.23015  1.0000
  Zn  Zn4       1.0  0.65998  0.65218  0.26994  1.0000
  H   H1        1.0  0.69039  0.79166  0.87114  1.0000
  H   H2        1.0  0.89794  0.20819  0.62892  1.0000
  H   H3        1.0  0.30961  0.20833  0.12886  1.0000
  H   H4        1.0  0.10205  0.79181  0.37108  1.0000
  H   H5        1.0  0.68933  0.54411  0.03490  1.0000
  H   H6        1.0  0.14550  0.45628  0.46510  1.0000
  H   H7        1.0  0.31066  0.45590  0.96510  1.0000
  H   H8        1.0  0.85451  0.54372  0.53491  1.0000
  H   H9        1.0  0.01304  0.63202  0.14411  1.0000
  H   H10       1.0  0.38117  0.36833  0.35593  1.0000
  H   H11       1.0  0.98696  0.36798  0.85589  1.0000
  H   H12       1.0  0.61882  0.63167  0.64408  1.0000
  H   H13       1.0  0.32796  0.71538  0.08645  1.0000
  H   H14       1.0  0.61227  0.28469  0.41361  1.0000
  H   H15       1.0  0.67205  0.28462  0.91354  1.0000
  H   H16       1.0  0.38772  0.71530  0.58639  1.0000
  H   H17       1.0  0.11090  0.74713  0.62023  1.0000
  H   H18       1.0  0.36352  0.25309  0.88001  1.0000
  H   H19       1.0  0.88911  0.25288  0.37978  1.0000
  H   H20       1.0  0.63648  0.74692  0.11999  1.0000
  H   H21       1.0  0.29507  0.86799  0.70271  1.0000
  H   H22       1.0  0.42658  0.13211  0.79762  1.0000
  H   H23       1.0  0.70495  0.13201  0.29729  1.0000
  H   H24       1.0  0.57341  0.86788  0.20238  1.0000
  H   H25       1.0  0.14178  0.88196  0.61726  1.0000
  H   H26       1.0  0.25937  0.11829  0.88307  1.0000
  H   H27       1.0  0.85823  0.11804  0.38274  1.0000
  H   H28       1.0  0.74063  0.88171  0.11694  1.0000
  H   H29       1.0  0.62827  0.99165  0.95435  1.0000
  H   H30       1.0  0.63640  0.00782  0.54553  1.0000
  H   H31       1.0  0.37172  0.00834  0.04564  1.0000
  H   H32       1.0  0.36360  0.99218  0.45447  1.0000
  H   H33       1.0  0.48293  0.96588  0.84879  1.0000
  H   H34       1.0  0.51658  0.03393  0.65095  1.0000
  H   H35       1.0  0.51707  0.03412  0.15120  1.0000
  H   H36       1.0  0.48341  0.96607  0.34905  1.0000
  H   H37       1.0  0.69741  0.08705  0.89643  1.0000
  H   H38       1.0  0.60988  0.91278  0.60379  1.0000
  H   H39       1.0  0.30259  0.91294  0.10357  1.0000
  H   H40       1.0  0.39011  0.08721  0.39621  1.0000
  C   C1        1.0  0.82832  0.58772  0.92306  1.0000
  C   C2        1.0  0.24034  0.41226  0.57681  1.0000
  C   C3        1.0  0.17170  0.41229  0.07694  1.0000
  C   C4        1.0  0.75966  0.58774  0.42319  1.0000
  C   C5        1.0  0.82697  0.58501  0.01321  1.0000
  C   C6        1.0  0.24195  0.41518  0.48673  1.0000
  C   C7        1.0  0.17304  0.41500  0.98679  1.0000
  C   C8        1.0  0.75804  0.58482  0.51328  1.0000
  C   C9        1.0  0.00779  0.63451  0.07378  1.0000
  C   C10       1.0  0.37324  0.36571  0.42620  1.0000
  C   C11       1.0  0.99222  0.36549  0.92621  1.0000
  C   C12       1.0  0.62676  0.63430  0.57380  1.0000
  C   C13       1.0  0.18406  0.68190  0.04242  1.0000
  C   C14       1.0  0.50181  0.31812  0.45755  1.0000
  C   C15       1.0  0.81595  0.31810  0.95758  1.0000
  C   C16       1.0  0.49818  0.68187  0.54245  1.0000
  C   C17       1.0  0.17339  0.68321  0.95177  1.0000
  C   C18       1.0  0.48963  0.31666  0.54815  1.0000
  C   C19       1.0  0.82662  0.31679  0.04822  1.0000
  C   C20       1.0  0.51036  0.68334  0.45185  1.0000
  C   C21       1.0  0.34963  0.72779  0.90424  1.0000
  C   C22       1.0  0.62105  0.27191  0.59569  1.0000
  C   C23       1.0  0.65039  0.27222  0.09577  1.0000
  C   C24       1.0  0.37895  0.72810  0.40431  1.0000
  C   C25       1.0  0.65644  0.52858  0.84328  1.0000
  C   C26       1.0  0.12765  0.47128  0.65651  1.0000
  C   C27       1.0  0.34356  0.47143  0.15671  1.0000
  C   C28       1.0  0.87235  0.52872  0.34349  1.0000
  C   C29       1.0  0.14264  0.83845  0.66499  1.0000
  C   C30       1.0  0.30370  0.16175  0.83528  1.0000
  C   C31       1.0  0.85737  0.16156  0.33501  1.0000
  C   C32       1.0  0.69630  0.83825  0.16472  1.0000
  C   C33       1.0  0.99038  0.86015  0.73293  1.0000
  C   C34       1.0  0.12974  0.14004  0.76732  1.0000
  C   C35       1.0  0.00962  0.13985  0.26707  1.0000
  C   C36       1.0  0.87025  0.85996  0.23268  1.0000
  C   C37       1.0  0.90319  0.95148  0.76370  1.0000
  C   C38       1.0  0.95143  0.04856  0.73648  1.0000
  C   C39       1.0  0.09683  0.04852  0.23630  1.0000
  C   C40       1.0  0.04856  0.95144  0.26353  1.0000
  C   C41       1.0  0.76913  0.93037  0.82752  1.0000
  C   C42       1.0  0.83829  0.06956  0.67259  1.0000
  C   C43       1.0  0.23086  0.06962  0.17248  1.0000
  C   C44       1.0  0.16171  0.93044  0.32742  1.0000
  C   C45       1.0  0.63732  0.99730  0.88477  1.0000
  C   C46       1.0  0.63962  0.00244  0.61522  1.0000
  C   C47       1.0  0.36268  0.00269  0.11523  1.0000
  C   C48       1.0  0.36037  0.99756  0.38479  1.0000
  N   N1        1.0  0.99688  0.63906  0.89673  1.0000
  N   N2        1.0  0.35734  0.36077  0.60313  1.0000
  N   N3        1.0  0.00312  0.36094  0.10326  1.0000
  N   N4        1.0  0.64266  0.63923  0.39688  1.0000
  N   N5        1.0  0.91262  0.78825  0.77462  1.0000
  N   N6        1.0  0.12378  0.21183  0.72553  1.0000
  N   N7        1.0  0.08739  0.21175  0.22537  1.0000
  N   N8        1.0  0.87620  0.78817  0.27447  1.0000
  N   N9        1.0  0.77993  0.83252  0.83209  1.0000
  N   N10       1.0  0.94677  0.16743  0.66803  1.0000
  N   N11       1.0  0.22007  0.16747  0.16791  1.0000
  N   N12       1.0  0.05322  0.83257  0.33198  1.0000
  O   O1        1.0  0.30412  0.73223  0.82518  1.0000
  O   O2        1.0  0.57103  0.26745  0.67471  1.0000
  O   O3        1.0  0.69590  0.26778  0.17482  1.0000
  O   O4        1.0  0.42896  0.73254  0.32529  1.0000
  O   O5        1.0  0.52538  0.75544  0.94489  1.0000
  O   O6        1.0  0.76903  0.24415  0.55505  1.0000
  O   O7        1.0  0.47464  0.24456  0.05511  1.0000
  O   O8        1.0  0.23094  0.75583  0.44494  1.0000
  O   O9        1.0  0.67699  0.54884  0.76943  1.0000
  O   O10       1.0  0.12781  0.45089  0.73031  1.0000
  O   O11       1.0  0.32301  0.45117  0.23057  1.0000
  O   O12       1.0  0.87217  0.54910  0.26969  1.0000
  O   O13       1.0  0.50530  0.45584  0.85405  1.0000
  O   O14       1.0  0.04922  0.54402  0.64574  1.0000
  O   O15       1.0  0.49470  0.54417  0.14594  1.0000
  O   O16       1.0  0.95078  0.45599  0.35426  1.0000
