data_image0
_chemical_formula_structural       Cd4H16C16O20
_chemical_formula_sum              "Cd4 H16 C16 O20"
_cell_length_a       6.84596
_cell_length_b       8.52904
_cell_length_c       10.0371
_cell_angle_alpha    89.9997
_cell_angle_beta     89.9999
_cell_angle_gamma    90.0001

_space_group_name_H-M_alt    "P 1"
_space_group_IT_number       1

loop_
  _space_group_symop_operation_xyz
  'x, y, z'

loop_
  _atom_site_type_symbol
  _atom_site_label
  _atom_site_symmetry_multiplicity
  _atom_site_fract_x
  _atom_site_fract_y
  _atom_site_fract_z
  _atom_site_occupancy
  Cd  Cd1       1.0  0.65257  0.35671  0.04588  1.0000
  Cd  Cd2       1.0  0.84743  0.64329  0.54588  1.0000
  Cd  Cd3       1.0  0.15257  0.14329  0.95412  1.0000
  Cd  Cd4       1.0  0.34743  0.85671  0.45412  1.0000
  H   H1        1.0  0.98573  0.90552  0.71051  1.0000
  H   H2        1.0  0.51427  0.09448  0.21052  1.0000
  H   H3        1.0  0.48573  0.59448  0.28949  1.0000
  H   H4        1.0  0.01428  0.40552  0.78949  1.0000
  H   H5        1.0  0.89633  0.84307  0.90748  1.0000
  H   H6        1.0  0.60368  0.15694  0.40748  1.0000
  H   H7        1.0  0.39632  0.65693  0.09252  1.0000
  H   H8        1.0  0.10368  0.34307  0.59252  1.0000
  H   H9        1.0  0.50231  0.89897  0.77178  1.0000
  H   H10       1.0  0.99769  0.10103  0.27178  1.0000
  H   H11       1.0  0.00231  0.60103  0.22822  1.0000
  H   H12       1.0  0.49770  0.39897  0.72822  1.0000
  H   H13       1.0  0.51901  0.85290  0.94147  1.0000
  H   H14       1.0  0.98099  0.14710  0.44147  1.0000
  H   H15       1.0  0.01901  0.64710  0.05853  1.0000
  H   H16       1.0  0.48099  0.35289  0.55854  1.0000
  C   C1        1.0  0.75640  0.63375  0.85338  1.0000
  C   C2        1.0  0.74360  0.36625  0.35338  1.0000
  C   C3        1.0  0.25639  0.86625  0.14661  1.0000
  C   C4        1.0  0.24359  0.13375  0.64662  1.0000
  C   C5        1.0  0.78590  0.81086  0.83233  1.0000
  C   C6        1.0  0.71410  0.18914  0.33233  1.0000
  C   C7        1.0  0.28590  0.68914  0.16767  1.0000
  C   C8        1.0  0.21410  0.31085  0.66767  1.0000
  C   C9        1.0  0.60055  0.90464  0.85822  1.0000
  C   C10       1.0  0.89945  0.09537  0.35822  1.0000
  C   C11       1.0  0.10054  0.59536  0.14178  1.0000
  C   C12       1.0  0.39946  0.40463  0.64178  1.0000
  C   C13       1.0  0.63975  0.07372  0.89379  1.0000
  C   C14       1.0  0.86025  0.92628  0.39379  1.0000
  C   C15       1.0  0.13974  0.42628  0.10621  1.0000
  C   C16       1.0  0.36025  0.57372  0.60621  1.0000
  O   O1        1.0  0.67052  0.59816  0.96199  1.0000
  O   O2        1.0  0.82948  0.40185  0.46199  1.0000
  O   O3        1.0  0.17052  0.90184  0.03800  1.0000
  O   O4        1.0  0.32947  0.09815  0.53801  1.0000
  O   O5        1.0  0.82379  0.53616  0.76989  1.0000
  O   O6        1.0  0.67621  0.46384  0.26988  1.0000
  O   O7        1.0  0.32377  0.96384  0.23011  1.0000
  O   O8        1.0  0.17622  0.03616  0.73012  1.0000
  O   O9        1.0  0.86135  0.84595  0.70296  1.0000
  O   O10       1.0  0.63865  0.15405  0.20297  1.0000
  O   O11       1.0  0.36135  0.65405  0.29703  1.0000
  O   O12       1.0  0.13866  0.34595  0.79704  1.0000
  O   O13       1.0  0.81084  0.12599  0.90617  1.0000
  O   O14       1.0  0.68915  0.87401  0.40616  1.0000
  O   O15       1.0  0.31084  0.37401  0.09383  1.0000
  O   O16       1.0  0.18917  0.62598  0.59383  1.0000
  O   O17       1.0  0.49263  0.16455  0.91702  1.0000
  O   O18       1.0  0.00736  0.83545  0.41702  1.0000
  O   O19       1.0  0.99263  0.33544  0.08298  1.0000
  O   O20       1.0  0.50738  0.66455  0.58298  1.0000
