data_image0
_chemical_formula_structural       Cu4H20C38N14O16
_chemical_formula_sum              "Cu4 H20 C38 N14 O16"
_cell_length_a       8.81942
_cell_length_b       11.0139
_cell_length_c       11.2402
_cell_angle_alpha    80.774
_cell_angle_beta     71.8655
_cell_angle_gamma    67.7903

_space_group_name_H-M_alt    "P 1"
_space_group_IT_number       1

loop_
  _space_group_symop_operation_xyz
  'x, y, z'

loop_
  _atom_site_type_symbol
  _atom_site_label
  _atom_site_symmetry_multiplicity
  _atom_site_fract_x
  _atom_site_fract_y
  _atom_site_fract_z
  _atom_site_occupancy
  Cu  Cu1       1.0  0.12474  0.29322  0.17090  1.0000
  Cu  Cu2       1.0  0.87526  0.70678  0.82910  1.0000
  Cu  Cu3       1.0  0.51968  0.38763  0.12227  1.0000
  Cu  Cu4       1.0  0.48032  0.61237  0.87773  1.0000
  H   H1        1.0  0.07635  0.64263  0.40098  1.0000
  H   H2        1.0  0.92366  0.35737  0.59901  1.0000
  H   H3        1.0  0.14300  0.92743  0.01518  1.0000
  H   H4        1.0  0.85700  0.07257  0.98482  1.0000
  H   H5        1.0  0.17681  0.13359  0.42235  1.0000
  H   H6        1.0  0.82318  0.86642  0.57765  1.0000
  H   H7        1.0  0.52562  0.31570  0.41246  1.0000
  H   H8        1.0  0.47438  0.68430  0.58754  1.0000
  H   H9        1.0  0.27842  0.99419  0.57415  1.0000
  H   H10       1.0  0.72157  0.00582  0.42585  1.0000
  H   H11       1.0  0.26816  0.92319  0.79889  1.0000
  H   H12       1.0  0.73183  0.07681  0.20111  1.0000
  H   H13       1.0  0.32792  0.05852  0.92831  1.0000
  H   H14       1.0  0.67207  0.94148  0.07169  1.0000
  H   H15       1.0  0.46030  0.15609  0.00356  1.0000
  H   H16       1.0  0.53969  0.84391  0.99645  1.0000
  H   H17       1.0  0.38298  0.44599  0.71030  1.0000
  H   H18       1.0  0.61703  0.55400  0.28970  1.0000
  H   H19       1.0  0.09222  0.81291  0.61184  1.0000
  H   H20       1.0  0.90777  0.18709  0.38816  1.0000
  C   C1        1.0  0.14186  0.90234  0.20884  1.0000
  C   C2        1.0  0.85815  0.09766  0.79117  1.0000
  C   C3        1.0  0.12789  0.81883  0.31784  1.0000
  C   C4        1.0  0.87211  0.18117  0.68216  1.0000
  C   C5        1.0  0.09004  0.70621  0.31633  1.0000
  C   C6        1.0  0.90996  0.29379  0.68367  1.0000
  C   C7        1.0  0.07342  0.67104  0.20822  1.0000
  C   C8        1.0  0.92659  0.32895  0.79178  1.0000
  C   C9        1.0  0.09625  0.75066  0.09760  1.0000
  C   C10       1.0  0.90376  0.24934  0.90239  1.0000
  C   C11       1.0  0.12683  0.86566  0.10082  1.0000
  C   C12       1.0  0.87316  0.13435  0.89919  1.0000
  C   C13       1.0  0.18063  0.02734  0.19431  1.0000
  C   C14       1.0  0.81937  0.97266  0.80570  1.0000
  C   C15       1.0  0.15365  0.84921  0.43225  1.0000
  C   C16       1.0  0.84634  0.15079  0.56775  1.0000
  C   C17       1.0  0.04234  0.54397  0.21598  1.0000
  C   C18       1.0  0.95766  0.45603  0.78402  1.0000
  C   C19       1.0  0.08670  0.72135  0.97367  1.0000
  C   C20       1.0  0.91330  0.27865  0.02633  1.0000
  C   C21       1.0  0.25650  0.19290  0.39188  1.0000
  C   C22       1.0  0.74350  0.80710  0.60813  1.0000
  C   C23       1.0  0.43680  0.28673  0.38565  1.0000
  C   C24       1.0  0.56321  0.71327  0.61435  1.0000
  C   C25       1.0  0.35024  0.15925  0.58509  1.0000
  C   C26       1.0  0.64976  0.84075  0.41491  1.0000
  C   C27       1.0  0.30749  0.04799  0.63227  1.0000
  C   C28       1.0  0.69250  0.95201  0.36773  1.0000
  C   C29       1.0  0.30165  0.00956  0.75765  1.0000
  C   C30       1.0  0.69834  0.99045  0.24235  1.0000
  C   C31       1.0  0.33596  0.08275  0.82935  1.0000
  C   C32       1.0  0.66404  0.91724  0.17065  1.0000
  C   C33       1.0  0.37923  0.19097  0.76933  1.0000
  C   C34       1.0  0.62076  0.80903  0.23067  1.0000
  C   C35       1.0  0.45485  0.24593  0.94647  1.0000
  C   C36       1.0  0.54515  0.75407  0.05354  1.0000
  C   C37       1.0  0.41795  0.39561  0.79397  1.0000
  C   C38       1.0  0.58205  0.60439  0.20603  1.0000
  N   N1        1.0  0.28054  0.25840  0.28318  1.0000
  N   N2        1.0  0.71945  0.74160  0.71683  1.0000
  N   N3        1.0  0.39755  0.31631  0.27762  1.0000
  N   N4        1.0  0.60245  0.68369  0.72238  1.0000
  N   N5        1.0  0.35104  0.20848  0.45966  1.0000
  N   N6        1.0  0.64896  0.79152  0.54034  1.0000
  N   N7        1.0  0.38926  0.22881  0.64943  1.0000
  N   N8        1.0  0.61074  0.77119  0.35057  1.0000
  N   N9        1.0  0.41388  0.27254  0.83484  1.0000
  N   N10       1.0  0.58612  0.72746  0.16516  1.0000
  N   N11       1.0  0.48527  0.34601  0.97145  1.0000
  N   N12       1.0  0.51473  0.65400  0.02855  1.0000
  N   N13       1.0  0.46163  0.44108  0.87467  1.0000
  N   N14       1.0  0.53838  0.55891  0.12532  1.0000
  O   O1        1.0  0.06218  0.13128  0.24663  1.0000
  O   O2        1.0  0.93781  0.86872  0.75337  1.0000
  O   O3        1.0  0.32060  0.02715  0.12157  1.0000
  O   O4        1.0  0.67940  0.97285  0.87843  1.0000
  O   O5        1.0  0.20167  0.93969  0.43650  1.0000
  O   O6        1.0  0.79833  0.06031  0.56351  1.0000
  O   O7        1.0  0.11939  0.76929  0.53230  1.0000
  O   O8        1.0  0.88060  0.23070  0.46770  1.0000
  O   O9        1.0  0.94099  0.51391  0.31069  1.0000
  O   O10       1.0  0.05901  0.48608  0.68931  1.0000
  O   O11       1.0  0.13604  0.46962  0.12250  1.0000
  O   O12       1.0  0.86397  0.53038  0.87750  1.0000
  O   O13       1.0  0.94537  0.71058  0.97727  1.0000
  O   O14       1.0  0.05464  0.28942  0.02273  1.0000
  O   O15       1.0  0.20905  0.71732  0.87766  1.0000
  O   O16       1.0  0.79096  0.28268  0.12234  1.0000
