data_image0
_chemical_formula_structural       Cu4B4H52C48N32
_chemical_formula_sum              "Cu4 B4 H52 C48 N32"
_cell_length_a       7.58411
_cell_length_b       13.3208
_cell_length_c       14.6967
_cell_angle_alpha    104.671
_cell_angle_beta     90.0003
_cell_angle_gamma    89.9997

_space_group_name_H-M_alt    "P 1"
_space_group_IT_number       1

loop_
  _space_group_symop_operation_xyz
  'x, y, z'

loop_
  _atom_site_type_symbol
  _atom_site_label
  _atom_site_symmetry_multiplicity
  _atom_site_fract_x
  _atom_site_fract_y
  _atom_site_fract_z
  _atom_site_occupancy
  Cu  Cu1       1.0  0.46937  0.79145  0.40904  1.0000
  Cu  Cu2       1.0  0.96936  0.70853  0.09098  1.0000
  Cu  Cu3       1.0  0.53044  0.20849  0.59094  1.0000
  Cu  Cu4       1.0  0.03044  0.29152  0.90905  1.0000
  B   B1        1.0  0.47285  0.77172  0.61851  1.0000
  B   B2        1.0  0.97284  0.72827  0.88150  1.0000
  B   B3        1.0  0.52708  0.22832  0.38173  1.0000
  B   B4        1.0  0.02710  0.27170  0.11826  1.0000
  H   H1        1.0  0.15135  0.68024  0.28246  1.0000
  H   H2        1.0  0.65133  0.81973  0.21755  1.0000
  H   H3        1.0  0.84940  0.32053  0.71730  1.0000
  H   H4        1.0  0.34938  0.17947  0.78270  1.0000
  H   H5        1.0  0.36932  0.97830  0.31298  1.0000
  H   H6        1.0  0.86935  0.52168  0.18705  1.0000
  H   H7        1.0  0.63031  0.02279  0.68718  1.0000
  H   H8        1.0  0.13027  0.47721  0.81280  1.0000
  H   H9        1.0  0.13699  0.93337  0.16014  1.0000
  H   H10       1.0  0.63705  0.56662  0.33989  1.0000
  H   H11       1.0  0.86340  0.06769  0.84010  1.0000
  H   H12       1.0  0.36343  0.43233  0.65991  1.0000
  H   H13       1.0  0.90524  0.77724  0.40231  1.0000
  H   H14       1.0  0.40522  0.72276  0.09770  1.0000
  H   H15       1.0  0.09424  0.22303  0.59774  1.0000
  H   H16       1.0  0.59424  0.27696  0.90225  1.0000
  H   H17       1.0  0.08791  0.75340  0.55699  1.0000
  H   H18       1.0  0.58789  0.74659  0.94303  1.0000
  H   H19       1.0  0.91181  0.24643  0.44285  1.0000
  H   H20       1.0  0.41186  0.25358  0.05716  1.0000
  H   H21       1.0  0.82677  0.75540  0.68874  1.0000
  H   H22       1.0  0.32676  0.74459  0.81127  1.0000
  H   H23       1.0  0.17321  0.24450  0.31125  1.0000
  H   H24       1.0  0.67328  0.25555  0.18876  1.0000
  H   H25       1.0  0.21236  0.00059  0.47261  1.0000
  H   H26       1.0  0.71236  0.49941  0.02740  1.0000
  H   H27       1.0  0.78802  0.99929  0.52745  1.0000
  H   H28       1.0  0.28806  0.50072  0.97253  1.0000
  H   H29       1.0  0.09322  0.06331  0.65605  1.0000
  H   H30       1.0  0.59321  0.43669  0.84395  1.0000
  H   H31       1.0  0.90669  0.93676  0.34392  1.0000
  H   H32       1.0  0.40671  0.56324  0.15606  1.0000
  H   H33       1.0  0.25621  0.92630  0.74230  1.0000
  H   H34       1.0  0.75622  0.57370  0.75771  1.0000
  H   H35       1.0  0.74330  0.07385  0.25792  1.0000
  H   H36       1.0  0.24330  0.42615  0.24205  1.0000
  H   H37       1.0  0.22534  0.53830  0.36716  1.0000
  H   H38       1.0  0.72532  0.96170  0.13283  1.0000
  H   H39       1.0  0.77476  0.46188  0.63287  1.0000
  H   H40       1.0  0.27478  0.03813  0.86713  1.0000
  H   H41       1.0  0.16266  0.45262  0.51650  1.0000
  H   H42       1.0  0.66266  0.04737  0.98349  1.0000
  H   H43       1.0  0.83743  0.54741  0.48343  1.0000
  H   H44       1.0  0.33739  0.95258  0.01656  1.0000
  H   H45       1.0  0.31286  0.59583  0.66706  1.0000
  H   H46       1.0  0.81288  0.90416  0.83293  1.0000
  H   H47       1.0  0.68723  0.40406  0.33295  1.0000
  H   H48       1.0  0.18720  0.09593  0.16705  1.0000
  H   H49       1.0  0.48107  0.77119  0.70042  1.0000
  H   H50       1.0  0.98108  0.72880  0.79958  1.0000
  H   H51       1.0  0.51897  0.22868  0.29976  1.0000
  H   H52       1.0  0.01898  0.27137  0.20023  1.0000
  C   C1        1.0  0.17803  0.75596  0.27072  1.0000
  C   C2        1.0  0.67800  0.74401  0.22929  1.0000
  C   C3        1.0  0.82238  0.24494  0.72920  1.0000
  C   C4        1.0  0.32236  0.25507  0.77079  1.0000
  C   C5        1.0  0.28958  0.90993  0.28426  1.0000
  C   C6        1.0  0.78960  0.59004  0.21576  1.0000
  C   C7        1.0  0.71048  0.09091  0.71596  1.0000
  C   C8        1.0  0.21047  0.40910  0.78403  1.0000
  C   C9        1.0  0.17405  0.88847  0.20908  1.0000
  C   C10       1.0  0.67408  0.61151  0.29094  1.0000
  C   C11       1.0  0.82601  0.11228  0.79097  1.0000
  C   C12       1.0  0.32602  0.38773  0.70902  1.0000
  C   C13       1.0  0.85570  0.77445  0.47083  1.0000
  C   C14       1.0  0.35569  0.72555  0.02918  1.0000
  C   C15       1.0  0.14393  0.22580  0.52925  1.0000
  C   C16       1.0  0.64393  0.27421  0.97074  1.0000
  C   C17       1.0  0.94735  0.76203  0.55008  1.0000
  C   C18       1.0  0.44733  0.73796  0.94994  1.0000
  C   C19       1.0  0.05239  0.23800  0.44989  1.0000
  C   C20       1.0  0.55243  0.26202  0.05011  1.0000
  C   C21       1.0  0.81784  0.76338  0.61729  1.0000
  C   C22       1.0  0.31784  0.73660  0.88272  1.0000
  C   C23       1.0  0.18204  0.23668  0.38276  1.0000
  C   C24       1.0  0.68207  0.26336  0.11724  1.0000
  C   C25       1.0  0.24425  0.97000  0.53228  1.0000
  C   C26       1.0  0.74423  0.53000  0.96772  1.0000
  C   C27       1.0  0.75590  0.02997  0.46787  1.0000
  C   C28       1.0  0.25593  0.47004  0.03212  1.0000
  C   C29       1.0  0.18491  0.00158  0.62569  1.0000
  C   C30       1.0  0.68491  0.49842  0.87431  1.0000
  C   C31       1.0  0.81502  0.99846  0.37441  1.0000
  C   C32       1.0  0.31505  0.50154  0.12557  1.0000
  C   C33       1.0  0.26633  0.93404  0.67084  1.0000
  C   C34       1.0  0.76632  0.56596  0.82917  1.0000
  C   C35       1.0  0.73340  0.06602  0.32937  1.0000
  C   C36       1.0  0.23342  0.43400  0.17061  1.0000
  C   C37       1.0  0.26397  0.56696  0.44023  1.0000
  C   C38       1.0  0.76396  0.93303  0.05976  1.0000
  C   C39       1.0  0.73612  0.43318  0.55981  1.0000
  C   C40       1.0  0.23612  0.06683  0.94019  1.0000
  C   C41       1.0  0.23143  0.52406  0.51684  1.0000
  C   C42       1.0  0.73145  0.97593  0.98315  1.0000
  C   C43       1.0  0.76867  0.47598  0.48315  1.0000
  C   C44       1.0  0.26865  0.02401  0.01685  1.0000
  C   C45       1.0  0.30639  0.59469  0.59309  1.0000
  C   C46       1.0  0.80641  0.90530  0.90690  1.0000
  C   C47       1.0  0.69371  0.40529  0.40694  1.0000
  C   C48       1.0  0.19368  0.09471  0.09306  1.0000
  N   N1        1.0  0.29095  0.82548  0.32268  1.0000
  N   N2        1.0  0.79094  0.67449  0.17733  1.0000
  N   N3        1.0  0.70945  0.17543  0.67743  1.0000
  N   N4        1.0  0.20944  0.32457  0.82255  1.0000
  N   N5        1.0  0.10420  0.79129  0.20134  1.0000
  N   N6        1.0  0.60421  0.70869  0.29868  1.0000
  N   N7        1.0  0.89607  0.20952  0.79849  1.0000
  N   N8        1.0  0.39607  0.29049  0.70150  1.0000
  N   N9        1.0  0.68211  0.78314  0.48936  1.0000
  N   N10       1.0  0.18210  0.71685  0.01065  1.0000
  N   N11       1.0  0.31759  0.21726  0.51087  1.0000
  N   N12       1.0  0.81758  0.28275  0.98912  1.0000
  N   N13       1.0  0.65948  0.77631  0.57917  1.0000
  N   N14       1.0  0.15947  0.72368  0.92084  1.0000
  N   N15       1.0  0.34036  0.22398  0.42104  1.0000
  N   N16       1.0  0.84038  0.27605  0.07895  1.0000
  N   N17       1.0  0.35512  0.88926  0.52220  1.0000
  N   N18       1.0  0.85511  0.61073  0.97781  1.0000
  N   N19       1.0  0.64491  0.11069  0.47809  1.0000
  N   N20       1.0  0.14495  0.38933  0.02190  1.0000
  N   N21       1.0  0.36910  0.86775  0.60756  1.0000
  N   N22       1.0  0.86910  0.63225  0.89244  1.0000
  N   N23       1.0  0.63069  0.13226  0.39273  1.0000
  N   N24       1.0  0.13072  0.36776  0.10725  1.0000
  N   N25       1.0  0.35297  0.65671  0.46740  1.0000
  N   N26       1.0  0.85296  0.84328  0.03260  1.0000
  N   N27       1.0  0.64707  0.34343  0.53272  1.0000
  N   N28       1.0  0.14710  0.15659  0.96728  1.0000
  N   N29       1.0  0.37851  0.67299  0.56171  1.0000
  N   N30       1.0  0.87852  0.82700  0.93830  1.0000
  N   N31       1.0  0.62156  0.32705  0.43841  1.0000
  N   N32       1.0  0.12156  0.17296  0.06159  1.0000
