data_image0
_chemical_formula_structural       Ag4H32C32S8N8Cl12O24
_chemical_formula_sum              "Ag4 H32 C32 S8 N8 Cl12 O24"
_cell_length_a       9.69765
_cell_length_b       13.2866
_cell_length_c       13.7403
_cell_angle_alpha    103.526
_cell_angle_beta     109.455
_cell_angle_gamma    95.8878

_space_group_name_H-M_alt    "P 1"
_space_group_IT_number       1

loop_
  _space_group_symop_operation_xyz
  'x, y, z'

loop_
  _atom_site_type_symbol
  _atom_site_label
  _atom_site_symmetry_multiplicity
  _atom_site_fract_x
  _atom_site_fract_y
  _atom_site_fract_z
  _atom_site_occupancy
  Ag  Ag1       1.0  0.98559  0.42482  0.23010  1.0000
  Ag  Ag2       1.0  0.01442  0.57518  0.76990  1.0000
  Ag  Ag3       1.0  0.00000  0.50000  0.00000  1.0000
  Ag  Ag4       1.0  0.00000  0.50000  0.50000  1.0000
  H   H1        1.0  0.03640  0.18786  0.11957  1.0000
  H   H2        1.0  0.96360  0.81214  0.88043  1.0000
  H   H3        1.0  0.30233  0.45080  0.99361  1.0000
  H   H4        1.0  0.69767  0.54920  0.00639  1.0000
  H   H5        1.0  0.47660  0.41148  0.05171  1.0000
  H   H6        1.0  0.52340  0.58852  0.94829  1.0000
  H   H7        1.0  0.39124  0.48364  0.13570  1.0000
  H   H8        1.0  0.60877  0.51636  0.86430  1.0000
  H   H9        1.0  0.08914  0.77253  0.14865  1.0000
  H   H10       1.0  0.91086  0.22747  0.85134  1.0000
  H   H11       1.0  0.72638  0.53301  0.19306  1.0000
  H   H12       1.0  0.27362  0.46699  0.80694  1.0000
  H   H13       1.0  0.60558  0.62401  0.20938  1.0000
  H   H14       1.0  0.39442  0.37599  0.79062  1.0000
  H   H15       1.0  0.74910  0.60862  0.32556  1.0000
  H   H16       1.0  0.25090  0.39138  0.67444  1.0000
  H   H17       1.0  0.05483  0.77971  0.50755  1.0000
  H   H18       1.0  0.94517  0.22029  0.49245  1.0000
  H   H19       1.0  0.30743  0.54455  0.34104  1.0000
  H   H20       1.0  0.69257  0.45545  0.65896  1.0000
  H   H21       1.0  0.46913  0.64000  0.36607  1.0000
  H   H22       1.0  0.53087  0.36000  0.63393  1.0000
  H   H23       1.0  0.30829  0.61241  0.24283  1.0000
  H   H24       1.0  0.69171  0.38759  0.75717  1.0000
  H   H25       1.0  0.82135  0.18070  0.20486  1.0000
  H   H26       1.0  0.17865  0.81930  0.79514  1.0000
  H   H27       1.0  0.67345  0.44481  0.45968  1.0000
  H   H28       1.0  0.32656  0.55519  0.54032  1.0000
  H   H29       1.0  0.47825  0.38717  0.39101  1.0000
  H   H30       1.0  0.52175  0.61283  0.60899  1.0000
  H   H31       1.0  0.57469  0.45893  0.33018  1.0000
  H   H32       1.0  0.42531  0.54107  0.66982  1.0000
  C   C1        1.0  0.17440  0.31803  0.09664  1.0000
  C   C2        1.0  0.82560  0.68196  0.90336  1.0000
  C   C3        1.0  0.12664  0.21110  0.09448  1.0000
  C   C4        1.0  0.87336  0.78890  0.90552  1.0000
  C   C5        1.0  0.21008  0.14552  0.05909  1.0000
  C   C6        1.0  0.78992  0.85448  0.94091  1.0000
  C   C7        1.0  0.37060  0.42345  0.05999  1.0000
  C   C8        1.0  0.62940  0.57655  0.94001  1.0000
  C   C9        1.0  0.92673  0.67090  0.18465  1.0000
  C   C10       1.0  0.07326  0.32910  0.81535  1.0000
  C   C11       1.0  0.00338  0.76914  0.18299  1.0000
  C   C12       1.0  0.99662  0.23086  0.81701  1.0000
  C   C13       1.0  0.95528  0.85369  0.22958  1.0000
  C   C14       1.0  0.04471  0.14631  0.77042  1.0000
  C   C15       1.0  0.71888  0.60900  0.24136  1.0000
  C   C16       1.0  0.28112  0.39101  0.75864  1.0000
  C   C17       1.0  0.16966  0.67923  0.41891  1.0000
  C   C18       1.0  0.83034  0.32077  0.58109  1.0000
  C   C19       1.0  0.13942  0.77723  0.47188  1.0000
  C   C20       1.0  0.86057  0.22277  0.52812  1.0000
  C   C21       1.0  0.22898  0.86252  0.47054  1.0000
  C   C22       1.0  0.77102  0.13748  0.52946  1.0000
  C   C23       1.0  0.34698  0.61931  0.32919  1.0000
  C   C24       1.0  0.65302  0.38069  0.67082  1.0000
  C   C25       1.0  0.73837  0.30675  0.29446  1.0000
  C   C26       1.0  0.26163  0.69325  0.70554  1.0000
  C   C27       1.0  0.73861  0.20051  0.23922  1.0000
  C   C28       1.0  0.26140  0.79949  0.76078  1.0000
  C   C29       1.0  0.62471  0.13001  0.23754  1.0000
  C   C30       1.0  0.37529  0.86999  0.76246  1.0000
  C   C31       1.0  0.58444  0.40558  0.38116  1.0000
  C   C32       1.0  0.41556  0.59442  0.61884  1.0000
  S   S1        1.0  0.34527  0.20835  0.02626  1.0000
  S   S2        1.0  0.65473  0.79165  0.97374  1.0000
  S   S3        1.0  0.81805  0.81900  0.27601  1.0000
  S   S4        1.0  0.18195  0.18100  0.72398  1.0000
  S   S5        1.0  0.35125  0.82956  0.40731  1.0000
  S   S6        1.0  0.64875  0.17044  0.59269  1.0000
  S   S7        1.0  0.51426  0.18798  0.30093  1.0000
  S   S8        1.0  0.48575  0.81202  0.69907  1.0000
  N   N1        1.0  0.29293  0.32478  0.06254  1.0000
  N   N2        1.0  0.70708  0.67522  0.93746  1.0000
  N   N3        1.0  0.82260  0.69009  0.23183  1.0000
  N   N4        1.0  0.17740  0.30991  0.76817  1.0000
  N   N5        1.0  0.28511  0.69992  0.38379  1.0000
  N   N6        1.0  0.71490  0.30008  0.61622  1.0000
  N   N7        1.0  0.61998  0.30835  0.32885  1.0000
  N   N8        1.0  0.38002  0.69165  0.67114  1.0000
  Cl  Cl1       1.0  0.20096  0.01478  0.04682  1.0000
  Cl  Cl2       1.0  0.79904  0.98522  0.95318  1.0000
  Cl  Cl3       1.0  0.01525  0.98380  0.24896  1.0000
  Cl  Cl4       1.0  0.98475  0.01620  0.75104  1.0000
  Cl  Cl5       1.0  0.23263  0.99269  0.52185  1.0000
  Cl  Cl6       1.0  0.76737  0.00732  0.47814  1.0000
  Cl  Cl7       1.0  0.58276  0.99674  0.18335  1.0000
  Cl  Cl8       1.0  0.41724  0.00327  0.81664  1.0000
  Cl  Cl9       1.0  0.31301  0.70982  0.03608  1.0000
  Cl  Cl10      1.0  0.68700  0.29018  0.96392  1.0000
  Cl  Cl11      1.0  0.20331  0.29402  0.41272  1.0000
  Cl  Cl12      1.0  0.79669  0.70598  0.58728  1.0000
  O   O1        1.0  0.12417  0.39992  0.12466  1.0000
  O   O2        1.0  0.87583  0.60008  0.87534  1.0000
  O   O3        1.0  0.94341  0.57814  0.14924  1.0000
  O   O4        1.0  0.05659  0.42186  0.85076  1.0000
  O   O5        1.0  0.10734  0.58580  0.40384  1.0000
  O   O6        1.0  0.89266  0.41420  0.59616  1.0000
  O   O7        1.0  0.82758  0.39213  0.31401  1.0000
  O   O8        1.0  0.17242  0.60787  0.68599  1.0000
  O   O9        1.0  0.22883  0.65681  0.08769  1.0000
  O   O10       1.0  0.77117  0.34319  0.91231  1.0000
  O   O11       1.0  0.30347  0.63532  0.93546  1.0000
  O   O12       1.0  0.69653  0.36468  0.06454  1.0000
  O   O13       1.0  0.46932  0.74379  0.10899  1.0000
  O   O14       1.0  0.53068  0.25621  0.89101  1.0000
  O   O15       1.0  0.24996  0.80006  0.01250  1.0000
  O   O16       1.0  0.75004  0.19994  0.98750  1.0000
  O   O17       1.0  0.15275  0.34504  0.49845  1.0000
  O   O18       1.0  0.84724  0.65496  0.50154  1.0000
  O   O19       1.0  0.23638  0.37173  0.35901  1.0000
  O   O20       1.0  0.76363  0.62827  0.64099  1.0000
  O   O21       1.0  0.33831  0.25520  0.46028  1.0000
  O   O22       1.0  0.66168  0.74480  0.53972  1.0000
  O   O23       1.0  0.08556  0.20720  0.33471  1.0000
  O   O24       1.0  0.91444  0.79280  0.66529  1.0000
