data_image0
_chemical_formula_structural       Ag8H20C16S4N12O28
_chemical_formula_sum              "Ag8 H20 C16 S4 N12 O28"
_cell_length_a       9.34434
_cell_length_b       10.1182
_cell_length_c       10.6481
_cell_angle_alpha    89.9998
_cell_angle_beta     90.0001
_cell_angle_gamma    97.2862

_space_group_name_H-M_alt    "P 1"
_space_group_IT_number       1

loop_
  _space_group_symop_operation_xyz
  'x, y, z'

loop_
  _atom_site_type_symbol
  _atom_site_label
  _atom_site_symmetry_multiplicity
  _atom_site_fract_x
  _atom_site_fract_y
  _atom_site_fract_z
  _atom_site_occupancy
  Ag  Ag1       1.0  0.64351  0.56255  0.09626  1.0000
  Ag  Ag2       1.0  0.85649  0.93745  0.59626  1.0000
  Ag  Ag3       1.0  0.35649  0.43745  0.90374  1.0000
  Ag  Ag4       1.0  0.14351  0.06255  0.40373  1.0000
  Ag  Ag5       1.0  0.76027  0.42423  0.78058  1.0000
  Ag  Ag6       1.0  0.73973  0.07576  0.28058  1.0000
  Ag  Ag7       1.0  0.23973  0.57576  0.21942  1.0000
  Ag  Ag8       1.0  0.26027  0.92423  0.71942  1.0000
  H   H1        1.0  0.64434  0.84191  0.99212  1.0000
  H   H2        1.0  0.85566  0.65809  0.49212  1.0000
  H   H3        1.0  0.35566  0.15809  0.00788  1.0000
  H   H4        1.0  0.14435  0.34191  0.50788  1.0000
  H   H5        1.0  0.63714  0.04427  0.83456  1.0000
  H   H6        1.0  0.86286  0.45572  0.33456  1.0000
  H   H7        1.0  0.36286  0.95572  0.16544  1.0000
  H   H8        1.0  0.13714  0.54427  0.66543  1.0000
  H   H9        1.0  0.62127  0.55301  0.61043  1.0000
  H   H10       1.0  0.87873  0.94699  0.11043  1.0000
  H   H11       1.0  0.37873  0.44699  0.38957  1.0000
  H   H12       1.0  0.12127  0.05301  0.88957  1.0000
  H   H13       1.0  0.52462  0.66246  0.51973  1.0000
  H   H14       1.0  0.97538  0.83754  0.01973  1.0000
  H   H15       1.0  0.47538  0.33754  0.48027  1.0000
  H   H16       1.0  0.02462  0.16246  0.98027  1.0000
  H   H17       1.0  0.43451  0.56273  0.64156  1.0000
  H   H18       1.0  0.06549  0.93727  0.14156  1.0000
  H   H19       1.0  0.56549  0.43727  0.35844  1.0000
  H   H20       1.0  0.93451  0.06273  0.85844  1.0000
  C   C1        1.0  0.60055  0.70737  0.82788  1.0000
  C   C2        1.0  0.89945  0.79263  0.32788  1.0000
  C   C3        1.0  0.39945  0.29263  0.17212  1.0000
  C   C4        1.0  0.10056  0.20737  0.67212  1.0000
  C   C5        1.0  0.62614  0.83366  0.89139  1.0000
  C   C6        1.0  0.87386  0.66634  0.39139  1.0000
  C   C7        1.0  0.37386  0.16634  0.10861  1.0000
  C   C8        1.0  0.12614  0.33366  0.60861  1.0000
  C   C9        1.0  0.62049  0.93856  0.81251  1.0000
  C   C10       1.0  0.87951  0.56144  0.31251  1.0000
  C   C11       1.0  0.37951  0.06143  0.18749  1.0000
  C   C12       1.0  0.12049  0.43856  0.68749  1.0000
  C   C13       1.0  0.53711  0.61954  0.61290  1.0000
  C   C14       1.0  0.96289  0.88047  0.11290  1.0000
  C   C15       1.0  0.46289  0.38046  0.38710  1.0000
  C   C16       1.0  0.03710  0.11954  0.88710  1.0000
  S   S1        1.0  0.58431  0.88812  0.66012  1.0000
  S   S2        1.0  0.91568  0.61189  0.16012  1.0000
  S   S3        1.0  0.41568  0.11188  0.33988  1.0000
  S   S4        1.0  0.08432  0.38811  0.83988  1.0000
  N   N1        1.0  0.57686  0.72642  0.70229  1.0000
  N   N2        1.0  0.92314  0.77359  0.20229  1.0000
  N   N3        1.0  0.42314  0.27358  0.29771  1.0000
  N   N4        1.0  0.07686  0.22641  0.79771  1.0000
  N   N5        1.0  0.56382  0.79377  0.27863  1.0000
  N   N6        1.0  0.93618  0.70623  0.77863  1.0000
  N   N7        1.0  0.43618  0.20624  0.72137  1.0000
  N   N8        1.0  0.06382  0.29377  0.22137  1.0000
  N   N9        1.0  0.71750  0.26206  0.06291  1.0000
  N   N10       1.0  0.78250  0.23794  0.56291  1.0000
  N   N11       1.0  0.28251  0.73794  0.93710  1.0000
  N   N12       1.0  0.21750  0.76206  0.43709  1.0000
  O   O1        1.0  0.59865  0.59089  0.87420  1.0000
  O   O2        1.0  0.90135  0.90912  0.37420  1.0000
  O   O3        1.0  0.40135  0.40911  0.12580  1.0000
  O   O4        1.0  0.09865  0.09088  0.62581  1.0000
  O   O5        1.0  0.52982  0.66874  0.26034  1.0000
  O   O6        1.0  0.97018  0.83126  0.76034  1.0000
  O   O7        1.0  0.47017  0.33127  0.73966  1.0000
  O   O8        1.0  0.02982  0.16874  0.23966  1.0000
  O   O9        1.0  0.53222  0.84554  0.38046  1.0000
  O   O10       1.0  0.96778  0.65446  0.88046  1.0000
  O   O11       1.0  0.46778  0.15446  0.61954  1.0000
  O   O12       1.0  0.03222  0.34554  0.11954  1.0000
  O   O13       1.0  0.62979  0.86480  0.19239  1.0000
  O   O14       1.0  0.87021  0.63520  0.69239  1.0000
  O   O15       1.0  0.37021  0.13520  0.80761  1.0000
  O   O16       1.0  0.12979  0.36480  0.30761  1.0000
  O   O17       1.0  0.69633  0.35997  0.99161  1.0000
  O   O18       1.0  0.80367  0.14003  0.49160  1.0000
  O   O19       1.0  0.30369  0.64004  0.00840  1.0000
  O   O20       1.0  0.19633  0.85997  0.50839  1.0000
  O   O21       1.0  0.73690  0.15200  0.01778  1.0000
  O   O22       1.0  0.76310  0.34800  0.51778  1.0000
  O   O23       1.0  0.26310  0.84800  0.98223  1.0000
  O   O24       1.0  0.23690  0.65199  0.48222  1.0000
  O   O25       1.0  0.71617  0.28157  0.18144  1.0000
  O   O26       1.0  0.78383  0.21843  0.68144  1.0000
  O   O27       1.0  0.28383  0.71843  0.81856  1.0000
  O   O28       1.0  0.21617  0.78157  0.31856  1.0000
