data_image0
_chemical_formula_structural       K4Zn4H12C36N12O24
_chemical_formula_sum              "K4 Zn4 H12 C36 N12 O24"
_cell_length_a       9.2715
_cell_length_b       9.2715
_cell_length_c       13.2683
_cell_angle_alpha    90
_cell_angle_beta     90
_cell_angle_gamma    108.985

_space_group_name_H-M_alt    "P 1"
_space_group_IT_number       1

loop_
  _space_group_symop_operation_xyz
  'x, y, z'

loop_
  _atom_site_type_symbol
  _atom_site_label
  _atom_site_symmetry_multiplicity
  _atom_site_fract_x
  _atom_site_fract_y
  _atom_site_fract_z
  _atom_site_occupancy
  K   K1        1.0  0.09038  0.90962  0.38815  1.0000
  K   K2        1.0  0.90962  0.09038  0.88815  1.0000
  K   K3        1.0  0.09038  0.90962  0.11185  1.0000
  K   K4        1.0  0.90962  0.09038  0.61185  1.0000
  Zn  Zn1       1.0  0.33525  0.29626  0.25000  1.0000
  Zn  Zn2       1.0  0.66475  0.70374  0.75000  1.0000
  Zn  Zn3       1.0  0.70374  0.66475  0.25000  1.0000
  Zn  Zn4       1.0  0.29626  0.33525  0.75000  1.0000
  H   H1        1.0  0.73875  0.02652  0.25000  1.0000
  H   H2        1.0  0.26124  0.97348  0.75000  1.0000
  H   H3        1.0  0.97348  0.26124  0.25000  1.0000
  H   H4        1.0  0.02652  0.73875  0.75000  1.0000
  H   H5        1.0  0.16832  0.59291  0.97417  1.0000
  H   H6        1.0  0.83168  0.40709  0.47417  1.0000
  H   H7        1.0  0.40709  0.83168  0.52583  1.0000
  H   H8        1.0  0.59291  0.16832  0.02583  1.0000
  H   H9        1.0  0.83168  0.40709  0.02583  1.0000
  H   H10       1.0  0.16832  0.59291  0.52583  1.0000
  H   H11       1.0  0.59291  0.16832  0.47417  1.0000
  H   H12       1.0  0.40709  0.83168  0.97417  1.0000
  C   C1        1.0  0.58846  0.16258  0.25000  1.0000
  C   C2        1.0  0.41154  0.83742  0.75000  1.0000
  C   C3        1.0  0.83742  0.41154  0.25000  1.0000
  C   C4        1.0  0.16258  0.58846  0.75000  1.0000
  C   C5        1.0  0.73089  0.14096  0.25000  1.0000
  C   C6        1.0  0.26911  0.85904  0.75000  1.0000
  C   C7        1.0  0.85904  0.26911  0.25000  1.0000
  C   C8        1.0  0.14096  0.73089  0.75000  1.0000
  C   C9        1.0  0.44098  0.02868  0.25000  1.0000
  C   C10       1.0  0.55902  0.97132  0.75000  1.0000
  C   C11       1.0  0.97132  0.55902  0.25000  1.0000
  C   C12       1.0  0.02868  0.44098  0.75000  1.0000
  C   C13       1.0  0.27243  0.47879  0.07870  1.0000
  C   C14       1.0  0.72757  0.52121  0.57870  1.0000
  C   C15       1.0  0.52121  0.72757  0.42130  1.0000
  C   C16       1.0  0.47879  0.27243  0.92130  1.0000
  C   C17       1.0  0.72757  0.52121  0.92130  1.0000
  C   C18       1.0  0.27243  0.47879  0.42130  1.0000
  C   C19       1.0  0.47879  0.27243  0.57870  1.0000
  C   C20       1.0  0.52121  0.72757  0.07870  1.0000
  C   C21       1.0  0.27077  0.60093  0.01709  1.0000
  C   C22       1.0  0.72923  0.39907  0.51709  1.0000
  C   C23       1.0  0.39907  0.72923  0.48291  1.0000
  C   C24       1.0  0.60092  0.27077  0.98291  1.0000
  C   C25       1.0  0.72923  0.39907  0.98291  1.0000
  C   C26       1.0  0.27077  0.60093  0.48291  1.0000
  C   C27       1.0  0.60093  0.27077  0.51709  1.0000
  C   C28       1.0  0.39907  0.72923  0.01709  1.0000
  C   C29       1.0  0.14213  0.32883  0.08110  1.0000
  C   C30       1.0  0.85787  0.67117  0.58110  1.0000
  C   C31       1.0  0.67117  0.85787  0.41890  1.0000
  C   C32       1.0  0.32883  0.14213  0.91890  1.0000
  C   C33       1.0  0.85787  0.67117  0.91890  1.0000
  C   C34       1.0  0.14213  0.32883  0.41890  1.0000
  C   C35       1.0  0.32883  0.14212  0.58110  1.0000
  C   C36       1.0  0.67117  0.85787  0.08110  1.0000
  N   N1        1.0  0.57435  0.30201  0.25000  1.0000
  N   N2        1.0  0.42565  0.69799  0.75000  1.0000
  N   N3        1.0  0.69799  0.42565  0.25000  1.0000
  N   N4        1.0  0.30201  0.57435  0.75000  1.0000
  N   N5        1.0  0.39043  0.48629  0.13875  1.0000
  N   N6        1.0  0.60958  0.51371  0.63875  1.0000
  N   N7        1.0  0.51371  0.60958  0.36126  1.0000
  N   N8        1.0  0.48629  0.39042  0.86126  1.0000
  N   N9        1.0  0.60958  0.51371  0.86126  1.0000
  N   N10       1.0  0.39042  0.48629  0.36125  1.0000
  N   N11       1.0  0.48629  0.39043  0.63875  1.0000
  N   N12       1.0  0.51371  0.60958  0.13875  1.0000
  O   O1        1.0  0.31770  0.06429  0.25000  1.0000
  O   O2        1.0  0.68230  0.93571  0.75000  1.0000
  O   O3        1.0  0.93571  0.68230  0.25000  1.0000
  O   O4        1.0  0.06430  0.31770  0.75000  1.0000
  O   O5        1.0  0.44987  0.89771  0.25000  1.0000
  O   O6        1.0  0.55013  0.10230  0.75000  1.0000
  O   O7        1.0  0.10230  0.55013  0.25000  1.0000
  O   O8        1.0  0.89771  0.44987  0.75000  1.0000
  O   O9        1.0  0.15905  0.22765  0.14163  1.0000
  O   O10       1.0  0.84095  0.77235  0.64163  1.0000
  O   O11       1.0  0.77235  0.84095  0.35837  1.0000
  O   O12       1.0  0.22765  0.15905  0.85837  1.0000
  O   O13       1.0  0.84095  0.77235  0.85837  1.0000
  O   O14       1.0  0.15905  0.22765  0.35837  1.0000
  O   O15       1.0  0.22765  0.15905  0.64163  1.0000
  O   O16       1.0  0.77235  0.84095  0.14163  1.0000
  O   O17       1.0  0.03196  0.31445  0.02328  1.0000
  O   O18       1.0  0.96804  0.68555  0.52328  1.0000
  O   O19       1.0  0.68555  0.96804  0.47672  1.0000
  O   O20       1.0  0.31445  0.03196  0.97672  1.0000
  O   O21       1.0  0.96804  0.68555  0.97672  1.0000
  O   O22       1.0  0.03196  0.31445  0.47672  1.0000
  O   O23       1.0  0.31445  0.03196  0.52328  1.0000
  O   O24       1.0  0.68555  0.96804  0.02328  1.0000
