data_image0
_chemical_formula_structural       Cd2H24C36S4N12O12
_chemical_formula_sum              "Cd2 H24 C36 S4 N12 O12"
_cell_length_a       4.62696
_cell_length_b       8.11095
_cell_length_c       26.652
_cell_angle_alpha    90
_cell_angle_beta     90
_cell_angle_gamma    104.67

_space_group_name_H-M_alt    "P 1"
_space_group_IT_number       1

loop_
  _space_group_symop_operation_xyz
  'x, y, z'

loop_
  _atom_site_type_symbol
  _atom_site_label
  _atom_site_symmetry_multiplicity
  _atom_site_fract_x
  _atom_site_fract_y
  _atom_site_fract_z
  _atom_site_occupancy
  Cd  Cd1       1.0  0.50000  0.00000  0.00000  1.0000
  Cd  Cd2       1.0  0.50000  0.50000  0.50000  1.0000
  H   H1        1.0  0.51741  0.56292  0.37854  1.0000
  H   H2        1.0  0.48259  0.93708  0.87854  1.0000
  H   H3        1.0  0.48259  0.43707  0.62146  1.0000
  H   H4        1.0  0.51741  0.06293  0.12146  1.0000
  H   H5        1.0  0.99319  0.85367  0.49308  1.0000
  H   H6        1.0  0.00681  0.64633  0.99308  1.0000
  H   H7        1.0  0.00680  0.14633  0.50692  1.0000
  H   H8        1.0  0.99320  0.35367  0.00692  1.0000
  H   H9        1.0  0.32289  0.05044  0.43336  1.0000
  H   H10       1.0  0.67711  0.44956  0.93336  1.0000
  H   H11       1.0  0.67711  0.94956  0.56664  1.0000
  H   H12       1.0  0.32290  0.55044  0.06664  1.0000
  H   H13       1.0  0.25182  0.99198  0.33997  1.0000
  H   H14       1.0  0.74818  0.50802  0.83997  1.0000
  H   H15       1.0  0.74819  0.00802  0.66003  1.0000
  H   H16       1.0  0.25182  0.49198  0.16003  1.0000
  H   H17       1.0  0.56499  0.77892  0.13110  1.0000
  H   H18       1.0  0.43501  0.72108  0.63110  1.0000
  H   H19       1.0  0.43501  0.22108  0.86890  1.0000
  H   H20       1.0  0.56499  0.27892  0.36890  1.0000
  H   H21       1.0  0.75568  0.61643  0.12268  1.0000
  H   H22       1.0  0.24432  0.88357  0.62268  1.0000
  H   H23       1.0  0.24432  0.38357  0.87732  1.0000
  H   H24       1.0  0.75568  0.11643  0.37732  1.0000
  C   C1        1.0  0.87544  0.77415  0.35224  1.0000
  C   C2        1.0  0.12456  0.72585  0.85224  1.0000
  C   C3        1.0  0.12456  0.22585  0.64776  1.0000
  C   C4        1.0  0.87544  0.27416  0.14776  1.0000
  C   C5        1.0  0.69996  0.67100  0.38896  1.0000
  C   C6        1.0  0.30004  0.82899  0.88896  1.0000
  C   C7        1.0  0.30004  0.32899  0.61104  1.0000
  C   C8        1.0  0.69996  0.17101  0.11104  1.0000
  C   C9        1.0  0.96389  0.83492  0.45290  1.0000
  C   C10       1.0  0.03612  0.66508  0.95290  1.0000
  C   C11       1.0  0.03611  0.16508  0.54710  1.0000
  C   C12       1.0  0.96389  0.33493  0.04710  1.0000
  C   C13       1.0  0.14963  0.94310  0.41908  1.0000
  C   C14       1.0  0.85037  0.55690  0.91908  1.0000
  C   C15       1.0  0.85036  0.05690  0.58092  1.0000
  C   C16       1.0  0.14963  0.44310  0.08092  1.0000
  C   C17       1.0  0.10908  0.91163  0.36786  1.0000
  C   C18       1.0  0.89092  0.58837  0.86786  1.0000
  C   C19       1.0  0.89093  0.08836  0.63214  1.0000
  C   C20       1.0  0.10908  0.41164  0.13214  1.0000
  C   C21       1.0  0.81483  0.73846  0.29944  1.0000
  C   C22       1.0  0.18517  0.76154  0.79944  1.0000
  C   C23       1.0  0.18517  0.26154  0.70056  1.0000
  C   C24       1.0  0.81482  0.23847  0.20056  1.0000
  C   C25       1.0  0.88372  0.76948  0.22016  1.0000
  C   C26       1.0  0.11628  0.73052  0.72016  1.0000
  C   C27       1.0  0.11628  0.23051  0.77983  1.0000
  C   C28       1.0  0.88372  0.26948  0.27984  1.0000
  C   C29       1.0  0.78163  0.75468  0.12187  1.0000
  C   C30       1.0  0.21836  0.74532  0.62187  1.0000
  C   C31       1.0  0.21836  0.24532  0.87813  1.0000
  C   C32       1.0  0.78163  0.25468  0.37813  1.0000
  C   C33       1.0  0.88338  0.82276  0.06971  1.0000
  C   C34       1.0  0.11662  0.67724  0.56971  1.0000
  C   C35       1.0  0.11662  0.17724  0.93029  1.0000
  C   C36       1.0  0.88338  0.32276  0.43029  1.0000
  S   S1        1.0  0.06205  0.85992  0.16645  1.0000
  S   S2        1.0  0.93794  0.64008  0.66645  1.0000
  S   S3        1.0  0.93794  0.14008  0.83355  1.0000
  S   S4        1.0  0.06206  0.35991  0.33355  1.0000
  N   N1        1.0  0.74599  0.69959  0.43822  1.0000
  N   N2        1.0  0.25401  0.80041  0.93822  1.0000
  N   N3        1.0  0.25401  0.30041  0.56178  1.0000
  N   N4        1.0  0.74599  0.19959  0.06178  1.0000
  N   N5        1.0  0.59856  0.62531  0.27782  1.0000
  N   N6        1.0  0.40144  0.87469  0.77782  1.0000
  N   N7        1.0  0.40144  0.37469  0.72218  1.0000
  N   N8        1.0  0.59855  0.12531  0.22217  1.0000
  N   N9        1.0  0.64161  0.64437  0.22613  1.0000
  N   N10       1.0  0.35839  0.85563  0.72613  1.0000
  N   N11       1.0  0.35839  0.35563  0.77387  1.0000
  N   N12       1.0  0.64161  0.14437  0.27387  1.0000
  O   O1        1.0  0.00600  0.83538  0.26486  1.0000
  O   O2        1.0  0.99401  0.66462  0.76486  1.0000
  O   O3        1.0  0.99401  0.16462  0.73513  1.0000
  O   O4        1.0  0.00599  0.33539  0.23514  1.0000
  O   O5        1.0  0.68870  0.78534  0.03517  1.0000
  O   O6        1.0  0.31129  0.71466  0.53517  1.0000
  O   O7        1.0  0.31130  0.21466  0.96483  1.0000
  O   O8        1.0  0.68871  0.28534  0.46483  1.0000
  O   O9        1.0  0.15197  0.90909  0.06523  1.0000
  O   O10       1.0  0.84803  0.59091  0.56523  1.0000
  O   O11       1.0  0.84803  0.09091  0.93477  1.0000
  O   O12       1.0  0.15197  0.40909  0.43477  1.0000
