data_image0
_chemical_formula_structural       Zn2H28C36S4N12O14
_chemical_formula_sum              "Zn2 H28 C36 S4 N12 O14"
_cell_length_a       8.35617
_cell_length_b       11.2627
_cell_length_c       12.1823
_cell_angle_alpha    108.367
_cell_angle_beta     95.1353
_cell_angle_gamma    103.292

_space_group_name_H-M_alt    "P 1"
_space_group_IT_number       1

loop_
  _space_group_symop_operation_xyz
  'x, y, z'

loop_
  _atom_site_type_symbol
  _atom_site_label
  _atom_site_symmetry_multiplicity
  _atom_site_fract_x
  _atom_site_fract_y
  _atom_site_fract_z
  _atom_site_occupancy
  Zn  Zn1       1.0  0.25082  0.15719  0.48404  1.0000
  Zn  Zn2       1.0  0.74918  0.84281  0.51595  1.0000
  H   H1        1.0  0.30389  0.94294  0.51858  1.0000
  H   H2        1.0  0.69611  0.05706  0.48142  1.0000
  H   H3        1.0  0.10586  0.90544  0.47732  1.0000
  H   H4        1.0  0.89414  0.09456  0.52268  1.0000
  H   H5        1.0  0.36782  0.80126  0.12804  1.0000
  H   H6        1.0  0.63219  0.19873  0.87197  1.0000
  H   H7        1.0  0.56012  0.91529  0.31882  1.0000
  H   H8        1.0  0.43990  0.08471  0.68118  1.0000
  H   H9        1.0  0.59814  0.56730  0.35455  1.0000
  H   H10       1.0  0.40187  0.43271  0.64546  1.0000
  H   H11       1.0  0.40690  0.43782  0.16270  1.0000
  H   H12       1.0  0.59310  0.56218  0.83732  1.0000
  H   H13       1.0  0.85906  0.29707  0.68210  1.0000
  H   H14       1.0  0.14092  0.70293  0.31791  1.0000
  H   H15       1.0  0.80757  0.37911  0.58617  1.0000
  H   H16       1.0  0.19244  0.62090  0.41383  1.0000
  H   H17       1.0  0.04081  0.79862  0.89160  1.0000
  H   H18       1.0  0.95918  0.20138  0.10839  1.0000
  H   H19       1.0  0.83672  0.73914  0.70538  1.0000
  H   H20       1.0  0.16328  0.26086  0.29461  1.0000
  H   H21       1.0  0.99350  0.11278  0.69604  1.0000
  H   H22       1.0  0.00650  0.88722  0.30395  1.0000
  H   H23       1.0  0.20066  0.18627  0.87837  1.0000
  H   H24       1.0  0.79933  0.81373  0.12163  1.0000
  H   H25       1.0  0.75116  0.17359  0.31672  1.0000
  H   H26       1.0  0.24884  0.82642  0.68327  1.0000
  H   H27       1.0  0.77445  0.34022  0.40263  1.0000
  H   H28       1.0  0.22554  0.65979  0.59737  1.0000
  C   C1        1.0  0.37392  0.60935  0.12909  1.0000
  C   C2        1.0  0.62609  0.39065  0.87092  1.0000
  C   C3        1.0  0.41685  0.74546  0.17460  1.0000
  C   C4        1.0  0.58316  0.25453  0.82541  1.0000
  C   C5        1.0  0.52558  0.80953  0.28167  1.0000
  C   C6        1.0  0.47442  0.19047  0.71833  1.0000
  C   C7        1.0  0.54557  0.61517  0.30096  1.0000
  C   C8        1.0  0.45444  0.38483  0.69905  1.0000
  C   C9        1.0  0.43942  0.54353  0.19465  1.0000
  C   C10       1.0  0.56059  0.45646  0.80536  1.0000
  C   C11       1.0  0.26445  0.53479  0.01722  1.0000
  C   C12       1.0  0.73556  0.46521  0.98279  1.0000
  C   C13       1.0  0.09372  0.49529  0.85928  1.0000
  C   C14       1.0  0.90629  0.50470  0.14073  1.0000
  C   C15       1.0  0.90931  0.37220  0.64539  1.0000
  C   C16       1.0  0.09069  0.62780  0.35461  1.0000
  C   C17       1.0  0.05132  0.34272  0.57817  1.0000
  C   C18       1.0  0.94869  0.65729  0.42183  1.0000
  C   C19       1.0  0.13994  0.99658  0.89789  1.0000
  C   C20       1.0  0.86005  0.00342  0.10210  1.0000
  C   C21       1.0  0.03302  0.86973  0.84957  1.0000
  C   C22       1.0  0.96698  0.13027  0.15042  1.0000
  C   C23       1.0  0.92060  0.83688  0.74672  1.0000
  C   C24       1.0  0.07940  0.16312  0.25326  1.0000
  C   C25       1.0  0.00667  0.04448  0.74030  1.0000
  C   C26       1.0  0.99332  0.95552  0.25969  1.0000
  C   C27       1.0  0.12386  0.08598  0.84262  1.0000
  C   C28       1.0  0.87612  0.91403  0.15738  1.0000
  C   C29       1.0  0.26490  0.03238  0.00153  1.0000
  C   C30       1.0  0.73509  0.96762  0.99846  1.0000
  C   C31       1.0  0.47036  0.15356  0.14007  1.0000
  C   C32       1.0  0.52964  0.84644  0.85992  1.0000
  C   C33       1.0  0.68523  0.24869  0.34420  1.0000
  C   C34       1.0  0.31477  0.75132  0.65579  1.0000
  C   C35       1.0  0.54361  0.20467  0.40591  1.0000
  C   C36       1.0  0.45638  0.79533  0.59409  1.0000
  S   S1        1.0  0.97061  0.53027  0.75946  1.0000
  S   S2        1.0  0.02939  0.46973  0.24055  1.0000
  S   S3        1.0  0.62037  0.29439  0.22181  1.0000
  S   S4        1.0  0.37963  0.70561  0.77818  1.0000
  N   N1        1.0  0.58983  0.74645  0.34400  1.0000
  N   N2        1.0  0.41017  0.25356  0.65601  1.0000
  N   N3        1.0  0.23360  0.41074  0.95717  1.0000
  N   N4        1.0  0.76641  0.58926  0.04284  1.0000
  N   N5        1.0  0.12317  0.38418  0.85453  1.0000
  N   N6        1.0  0.87685  0.61581  0.14547  1.0000
  N   N7        1.0  0.90805  0.92198  0.69143  1.0000
  N   N8        1.0  0.09193  0.07802  0.30856  1.0000
  N   N9        1.0  0.30097  0.96045  0.06073  1.0000
  N   N10       1.0  0.69902  0.03955  0.93926  1.0000
  N   N11       1.0  0.43448  0.03816  0.15071  1.0000
  N   N12       1.0  0.56551  0.96183  0.84928  1.0000
  O   O1        1.0  0.05459  0.22204  0.54863  1.0000
  O   O2        1.0  0.94542  0.77796  0.45137  1.0000
  O   O3        1.0  0.14898  0.42964  0.55584  1.0000
  O   O4        1.0  0.85102  0.57036  0.44418  1.0000
  O   O5        1.0  0.17826  0.59559  0.95988  1.0000
  O   O6        1.0  0.82174  0.40441  0.04012  1.0000
  O   O7        1.0  0.55326  0.11912  0.45081  1.0000
  O   O8        1.0  0.44675  0.88088  0.54919  1.0000
  O   O9        1.0  0.42338  0.25723  0.41055  1.0000
  O   O10       1.0  0.57661  0.74276  0.58944  1.0000
  O   O11       1.0  0.36829  0.15777  0.04751  1.0000
  O   O12       1.0  0.63169  0.84223  0.95248  1.0000
  O   O13       1.0  0.20946  0.97909  0.49985  1.0000
  O   O14       1.0  0.79055  0.02092  0.50015  1.0000
