data_image0
_chemical_formula_structural       Ag4H38C50S2N8O12
_chemical_formula_sum              "Ag4 H38 C50 S2 N8 O12"
_cell_length_a       9.70849
_cell_length_b       10.4389
_cell_length_c       12.8412
_cell_angle_alpha    79.644
_cell_angle_beta     82.1317
_cell_angle_gamma    68.6696

_space_group_name_H-M_alt    "P 1"
_space_group_IT_number       1

loop_
  _space_group_symop_operation_xyz
  'x, y, z'

loop_
  _atom_site_type_symbol
  _atom_site_label
  _atom_site_symmetry_multiplicity
  _atom_site_fract_x
  _atom_site_fract_y
  _atom_site_fract_z
  _atom_site_occupancy
  Ag  Ag1       1.0  0.09257  0.51154  0.59405  1.0000
  Ag  Ag2       1.0  0.90742  0.48846  0.40595  1.0000
  Ag  Ag3       1.0  0.93005  0.34379  0.15142  1.0000
  Ag  Ag4       1.0  0.06995  0.65621  0.84858  1.0000
  H   H1        1.0  0.46243  0.49907  0.35419  1.0000
  H   H2        1.0  0.53757  0.50093  0.64581  1.0000
  H   H3        1.0  0.10233  0.82490  0.12344  1.0000
  H   H4        1.0  0.89767  0.17510  0.87656  1.0000
  H   H5        1.0  0.10756  0.91589  0.93194  1.0000
  H   H6        1.0  0.89244  0.08411  0.06806  1.0000
  H   H7        1.0  0.34199  0.84148  0.81683  1.0000
  H   H8        1.0  0.65801  0.15853  0.18317  1.0000
  H   H9        1.0  0.57408  0.67473  0.89546  1.0000
  H   H10       1.0  0.42592  0.32528  0.10454  1.0000
  H   H11       1.0  0.11174  0.30485  0.93071  1.0000
  H   H12       1.0  0.88826  0.69515  0.06929  1.0000
  H   H13       1.0  0.16271  0.06384  0.22691  1.0000
  H   H14       1.0  0.83730  0.93616  0.77309  1.0000
  H   H15       1.0  0.42096  0.92812  0.17770  1.0000
  H   H16       1.0  0.57904  0.07188  0.82229  1.0000
  H   H17       1.0  0.36643  0.17067  0.86511  1.0000
  H   H18       1.0  0.63357  0.82933  0.13489  1.0000
  H   H19       1.0  0.16073  0.20374  0.67992  1.0000
  H   H20       1.0  0.83927  0.79625  0.32008  1.0000
  H   H21       1.0  0.37331  0.98251  0.68446  1.0000
  H   H22       1.0  0.62669  0.01749  0.31554  1.0000
  H   H23       1.0  0.64659  0.22066  0.52476  1.0000
  H   H24       1.0  0.35341  0.77934  0.47524  1.0000
  H   H25       1.0  0.42102  0.42865  0.52627  1.0000
  H   H26       1.0  0.57898  0.57135  0.47373  1.0000
  H   H27       1.0  0.76328  0.59624  0.67284  1.0000
  H   H28       1.0  0.23672  0.40376  0.32717  1.0000
  H   H29       1.0  0.54242  0.80791  0.67587  1.0000
  H   H30       1.0  0.45757  0.19209  0.32414  1.0000
  H   H31       1.0  0.82550  0.04331  0.53570  1.0000
  H   H32       1.0  0.17450  0.95669  0.46429  1.0000
  H   H33       1.0  0.03456  0.81800  0.53568  1.0000
  H   H34       1.0  0.96544  0.18199  0.46432  1.0000
  H   H35       1.0  0.15343  0.49128  0.07852  1.0000
  H   H36       1.0  0.84657  0.50872  0.92149  1.0000
  H   H37       1.0  0.07790  0.55477  0.18558  1.0000
  H   H38       1.0  0.92210  0.44523  0.81442  1.0000
  C   C1        1.0  0.46247  0.54299  0.27076  1.0000
  C   C2        1.0  0.53754  0.45701  0.72924  1.0000
  C   C3        1.0  0.33686  0.64015  0.23098  1.0000
  C   C4        1.0  0.66314  0.35985  0.76902  1.0000
  C   C5        1.0  0.33452  0.69649  0.11924  1.0000
  C   C6        1.0  0.66548  0.30351  0.88076  1.0000
  C   C7        1.0  0.20530  0.79166  0.07336  1.0000
  C   C8        1.0  0.79470  0.20834  0.92664  1.0000
  C   C9        1.0  0.20864  0.84294  0.96596  1.0000
  C   C10       1.0  0.79136  0.15706  0.03404  1.0000
  C   C11       1.0  0.34141  0.80175  0.90127  1.0000
  C   C12       1.0  0.65859  0.19825  0.09873  1.0000
  C   C13       1.0  0.46973  0.70848  0.94430  1.0000
  C   C14       1.0  0.53027  0.29153  0.05570  1.0000
  C   C15       1.0  0.46877  0.65401  0.05272  1.0000
  C   C16       1.0  0.53123  0.34599  0.94728  1.0000
  C   C17       1.0  0.60734  0.55405  0.09491  1.0000
  C   C18       1.0  0.39266  0.44595  0.90508  1.0000
  C   C19       1.0  0.59770  0.49763  0.20665  1.0000
  C   C20       1.0  0.40230  0.50237  0.79335  1.0000
  C   C21       1.0  0.18432  0.21876  0.98212  1.0000
  C   C22       1.0  0.81568  0.78124  0.01787  1.0000
  C   C23       1.0  0.21335  0.08791  0.14840  1.0000
  C   C24       1.0  0.78664  0.91209  0.85160  1.0000
  C   C25       1.0  0.35908  0.01057  0.11920  1.0000
  C   C26       1.0  0.64092  0.98941  0.88080  1.0000
  C   C27       1.0  0.42189  0.03850  0.01648  1.0000
  C   C28       1.0  0.57811  0.96149  0.98351  1.0000
  C   C29       1.0  0.32802  0.14346  0.94688  1.0000
  C   C30       1.0  0.67198  0.85653  0.05313  1.0000
  C   C31       1.0  0.27122  0.20092  0.64669  1.0000
  C   C32       1.0  0.72878  0.79908  0.35331  1.0000
  C   C33       1.0  0.39191  0.07797  0.64850  1.0000
  C   C34       1.0  0.60809  0.92202  0.35150  1.0000
  C   C35       1.0  0.53259  0.07829  0.60434  1.0000
  C   C36       1.0  0.46741  0.92171  0.39566  1.0000
  C   C37       1.0  0.54310  0.20795  0.56010  1.0000
  C   C38       1.0  0.45690  0.79205  0.43990  1.0000
  C   C39       1.0  0.41716  0.32675  0.56090  1.0000
  C   C40       1.0  0.58284  0.67325  0.43910  1.0000
  C   C41       1.0  0.77163  0.69775  0.64315  1.0000
  C   C42       1.0  0.22837  0.30225  0.35686  1.0000
  C   C43       1.0  0.64833  0.81818  0.64432  1.0000
  C   C44       1.0  0.35167  0.18182  0.35568  1.0000
  C   C45       1.0  0.66203  0.94779  0.60433  1.0000
  C   C46       1.0  0.33797  0.05221  0.39567  1.0000
  C   C47       1.0  0.80453  0.94729  0.56504  1.0000
  C   C48       1.0  0.19547  0.05272  0.43495  1.0000
  C   C49       1.0  0.92292  0.82243  0.56620  1.0000
  C   C50       1.0  0.07708  0.17757  0.43380  1.0000
  S   S1        1.0  0.17726  0.69642  0.32164  1.0000
  S   S2        1.0  0.82274  0.30359  0.67836  1.0000
  N   N1        1.0  0.72242  0.39988  0.24761  1.0000
  N   N2        1.0  0.27759  0.60012  0.75238  1.0000
  N   N3        1.0  0.12719  0.19314  0.08238  1.0000
  N   N4        1.0  0.87281  0.80686  0.91762  1.0000
  N   N5        1.0  0.28293  0.32444  0.60301  1.0000
  N   N6        1.0  0.71707  0.67555  0.39699  1.0000
  N   N7        1.0  0.90726  0.69899  0.60425  1.0000
  N   N8        1.0  0.09274  0.30101  0.39575  1.0000
  O   O1        1.0  0.22500  0.62214  0.42635  1.0000
  O   O2        1.0  0.77500  0.37786  0.57365  1.0000
  O   O3        1.0  0.13077  0.84764  0.31417  1.0000
  O   O4        1.0  0.86923  0.15236  0.68583  1.0000
  O   O5        1.0  0.06415  0.65292  0.28512  1.0000
  O   O6        1.0  0.93585  0.34709  0.71488  1.0000
  O   O7        1.0  0.71414  0.34743  0.34503  1.0000
  O   O8        1.0  0.28587  0.65257  0.65497  1.0000
  O   O9        1.0  0.72726  0.52006  0.03682  1.0000
  O   O10       1.0  0.27274  0.47994  0.96317  1.0000
  O   O11       1.0  0.06748  0.50321  0.13146  1.0000
  O   O12       1.0  0.93251  0.49679  0.86854  1.0000
