data_image0
_chemical_formula_structural       Ag2H44C48S2N10O6
_chemical_formula_sum              "Ag2 H44 C48 S2 N10 O6"
_cell_length_a       8.13324
_cell_length_b       11.4544
_cell_length_c       13.0724
_cell_angle_alpha    76.4187
_cell_angle_beta     82.5153
_cell_angle_gamma    71.4473

_space_group_name_H-M_alt    "P 1"
_space_group_IT_number       1

loop_
  _space_group_symop_operation_xyz
  'x, y, z'

loop_
  _atom_site_type_symbol
  _atom_site_label
  _atom_site_symmetry_multiplicity
  _atom_site_fract_x
  _atom_site_fract_y
  _atom_site_fract_z
  _atom_site_occupancy
  Ag  Ag1       1.0  0.75818  0.07363  0.45637  1.0000
  Ag  Ag2       1.0  0.24182  0.92637  0.54363  1.0000
  H   H1        1.0  0.48910  0.12098  0.89003  1.0000
  H   H2        1.0  0.51090  0.87902  0.10997  1.0000
  H   H3        1.0  0.66835  0.26134  0.84775  1.0000
  H   H4        1.0  0.33165  0.73866  0.15225  1.0000
  H   H5        1.0  0.23106  0.57014  0.91371  1.0000
  H   H6        1.0  0.76894  0.42986  0.08629  1.0000
  H   H7        1.0  0.04288  0.43177  0.95084  1.0000
  H   H8        1.0  0.95712  0.56823  0.04916  1.0000
  H   H9        1.0  0.85702  0.54823  0.82094  1.0000
  H   H10       1.0  0.14298  0.45177  0.17906  1.0000
  H   H11       1.0  0.03210  0.69980  0.78144  1.0000
  H   H12       1.0  0.96790  0.30020  0.21856  1.0000
  H   H13       1.0  0.56296  0.00906  0.77617  1.0000
  H   H14       1.0  0.43703  0.99095  0.22383  1.0000
  H   H15       1.0  0.38608  0.85584  0.81560  1.0000
  H   H16       1.0  0.61391  0.14416  0.18440  1.0000
  H   H17       1.0  0.64382  0.86134  0.60957  1.0000
  H   H18       1.0  0.35618  0.13865  0.39043  1.0000
  H   H19       1.0  0.65631  0.64057  0.62161  1.0000
  H   H20       1.0  0.34370  0.35942  0.37840  1.0000
  H   H21       1.0  0.82084  0.68692  0.28999  1.0000
  H   H22       1.0  0.17916  0.31307  0.71001  1.0000
  H   H23       1.0  0.80487  0.90603  0.29243  1.0000
  H   H24       1.0  0.19512  0.09397  0.70757  1.0000
  H   H25       1.0  0.67630  0.33124  0.30374  1.0000
  H   H26       1.0  0.32371  0.66876  0.69626  1.0000
  H   H27       1.0  0.67670  0.54888  0.29563  1.0000
  H   H28       1.0  0.32331  0.45112  0.70437  1.0000
  H   H29       1.0  0.79787  0.43643  0.62384  1.0000
  H   H30       1.0  0.20214  0.56356  0.37616  1.0000
  H   H31       1.0  0.79072  0.22305  0.61934  1.0000
  H   H32       1.0  0.20928  0.77695  0.38066  1.0000
  H   H33       1.0  0.89262  0.17400  0.94475  1.0000
  H   H34       1.0  0.10738  0.82600  0.05525  1.0000
  H   H35       1.0  0.89694  0.33163  0.91432  1.0000
  H   H36       1.0  0.10305  0.66837  0.08568  1.0000
  H   H37       1.0  0.92914  0.24078  0.04616  1.0000
  H   H38       1.0  0.07085  0.75922  0.95384  1.0000
  H   H39       1.0  0.11010  0.01959  0.92639  1.0000
  H   H40       1.0  0.88989  0.98042  0.07361  1.0000
  H   H41       1.0  0.26211  0.00687  0.01894  1.0000
  H   H42       1.0  0.73790  0.99313  0.98106  1.0000
  H   H43       1.0  0.31722  0.03471  0.88062  1.0000
  H   H44       1.0  0.68278  0.96529  0.11937  1.0000
  C   C1        1.0  0.24693  0.26535  0.91908  1.0000
  C   C2        1.0  0.75306  0.73465  0.08092  1.0000
  C   C3        1.0  0.42837  0.21934  0.89338  1.0000
  C   C4        1.0  0.57163  0.78066  0.10662  1.0000
  C   C5        1.0  0.53162  0.29845  0.87140  1.0000
  C   C6        1.0  0.46838  0.70155  0.12860  1.0000
  C   C7        1.0  0.46233  0.42662  0.87633  1.0000
  C   C8        1.0  0.53767  0.57338  0.12367  1.0000
  C   C9        1.0  0.28361  0.47221  0.90628  1.0000
  C   C10       1.0  0.71639  0.52779  0.09372  1.0000
  C   C11       1.0  0.17898  0.39462  0.92648  1.0000
  C   C12       1.0  0.82102  0.60537  0.07352  1.0000
  C   C13       1.0  0.61109  0.69374  0.82199  1.0000
  C   C14       1.0  0.38891  0.30626  0.17801  1.0000
  C   C15       1.0  0.79386  0.64907  0.81163  1.0000
  C   C16       1.0  0.20614  0.35094  0.18837  1.0000
  C   C17       1.0  0.89085  0.73303  0.78989  1.0000
  C   C18       1.0  0.10915  0.26697  0.21011  1.0000
  C   C19       1.0  0.80701  0.86243  0.77862  1.0000
  C   C20       1.0  0.19298  0.13758  0.22137  1.0000
  C   C21       1.0  0.62559  0.90782  0.78799  1.0000
  C   C22       1.0  0.37440  0.09218  0.21201  1.0000
  C   C23       1.0  0.52780  0.82393  0.80962  1.0000
  C   C24       1.0  0.47220  0.17607  0.19038  1.0000
  C   C25       1.0  0.68274  0.81951  0.54032  1.0000
  C   C26       1.0  0.31726  0.18049  0.45968  1.0000
  C   C27       1.0  0.69164  0.69476  0.54661  1.0000
  C   C28       1.0  0.30837  0.30523  0.45339  1.0000
  C   C29       1.0  0.73867  0.64284  0.45637  1.0000
  C   C30       1.0  0.26134  0.35716  0.54363  1.0000
  C   C31       1.0  0.78020  0.72104  0.36309  1.0000
  C   C32       1.0  0.21980  0.27896  0.63692  1.0000
  C   C33       1.0  0.77090  0.84426  0.36343  1.0000
  C   C34       1.0  0.22910  0.15574  0.63657  1.0000
  C   C35       1.0  0.70359  0.35785  0.37324  1.0000
  C   C36       1.0  0.29641  0.64214  0.62676  1.0000
  C   C37       1.0  0.70581  0.47975  0.36888  1.0000
  C   C38       1.0  0.29420  0.52025  0.63112  1.0000
  C   C39       1.0  0.73977  0.51287  0.45892  1.0000
  C   C40       1.0  0.26024  0.48713  0.54108  1.0000
  C   C41       1.0  0.77026  0.41825  0.55067  1.0000
  C   C42       1.0  0.22975  0.58175  0.44933  1.0000
  C   C43       1.0  0.76604  0.29809  0.54913  1.0000
  C   C44       1.0  0.23396  0.70191  0.45087  1.0000
  C   C45       1.0  0.95576  0.23795  0.96184  1.0000
  C   C46       1.0  0.04424  0.76205  0.03816  1.0000
  C   C47       1.0  0.21200  0.05600  0.94104  1.0000
  C   C48       1.0  0.78800  0.94400  0.05896  1.0000
  S   S1        1.0  0.93182  0.96978  0.74198  1.0000
  S   S2        1.0  0.06818  0.03022  0.25801  1.0000
  N   N1        1.0  0.57446  0.50005  0.85062  1.0000
  N   N2        1.0  0.42554  0.49995  0.14939  1.0000
  N   N3        1.0  0.49971  0.61823  0.84406  1.0000
  N   N4        1.0  0.50029  0.38177  0.15594  1.0000
  N   N5        1.0  0.14092  0.19089  0.93428  1.0000
  N   N6        1.0  0.85908  0.80911  0.06572  1.0000
  N   N7        1.0  0.72127  0.89437  0.45033  1.0000
  N   N8        1.0  0.27873  0.10563  0.54967  1.0000
  N   N9        1.0  0.73267  0.26756  0.46196  1.0000
  N   N10       1.0  0.26734  0.73244  0.53804  1.0000
  O   O1        1.0  0.93214  0.00358  0.62511  1.0000
  O   O2        1.0  0.06786  0.99642  0.37488  1.0000
  O   O3        1.0  0.84160  0.07801  0.79073  1.0000
  O   O4        1.0  0.15839  0.92200  0.20926  1.0000
  O   O5        1.0  0.10661  0.90015  0.77810  1.0000
  O   O6        1.0  0.89338  0.09986  0.22190  1.0000
