data_image0
_chemical_formula_structural       Ag2H28C32S2N6O6
_chemical_formula_sum              "Ag2 H28 C32 S2 N6 O6"
_cell_length_a       9.81424
_cell_length_b       9.93923
_cell_length_c       9.29203
_cell_angle_alpha    101.892
_cell_angle_beta     106.895
_cell_angle_gamma    108.141

_space_group_name_H-M_alt    "P 1"
_space_group_IT_number       1

loop_
  _space_group_symop_operation_xyz
  'x, y, z'

loop_
  _atom_site_type_symbol
  _atom_site_label
  _atom_site_symmetry_multiplicity
  _atom_site_fract_x
  _atom_site_fract_y
  _atom_site_fract_z
  _atom_site_occupancy
  Ag  Ag1       1.0  0.87609  0.41921  0.11174  1.0000
  Ag  Ag2       1.0  0.12391  0.58078  0.88826  1.0000
  H   H1        1.0  0.97896  0.88942  0.41267  1.0000
  H   H2        1.0  0.02104  0.11058  0.58733  1.0000
  H   H3        1.0  0.08205  0.92342  0.70135  1.0000
  H   H4        1.0  0.91795  0.07658  0.29865  1.0000
  H   H5        1.0  0.49841  0.88588  0.66620  1.0000
  H   H6        1.0  0.50159  0.11413  0.33381  1.0000
  H   H7        1.0  0.39716  0.86062  0.38057  1.0000
  H   H8        1.0  0.60284  0.13939  0.61945  1.0000
  H   H9        1.0  0.09118  0.61301  0.44782  1.0000
  H   H10       1.0  0.90881  0.38699  0.55218  1.0000
  H   H11       1.0  0.29519  0.61595  0.68013  1.0000
  H   H12       1.0  0.70481  0.38405  0.31986  1.0000
  H   H13       1.0  0.26931  0.20233  0.38580  1.0000
  H   H14       1.0  0.73069  0.79767  0.61419  1.0000
  H   H15       1.0  0.55143  0.65373  0.78269  1.0000
  H   H16       1.0  0.44858  0.34628  0.21728  1.0000
  H   H17       1.0  0.33678  0.17064  0.64493  1.0000
  H   H18       1.0  0.66321  0.82937  0.35507  1.0000
  H   H19       1.0  0.55344  0.18580  0.87431  1.0000
  H   H20       1.0  0.44654  0.81420  0.12570  1.0000
  H   H21       1.0  0.75898  0.64944  0.00846  1.0000
  H   H22       1.0  0.24103  0.35056  0.99153  1.0000
  H   H23       1.0  0.06459  0.21426  0.16640  1.0000
  H   H24       1.0  0.93540  0.78573  0.83359  1.0000
  H   H25       1.0  0.44647  0.89599  0.90682  1.0000
  H   H26       1.0  0.55351  0.10398  0.09318  1.0000
  H   H27       1.0  0.28059  0.90822  0.92597  1.0000
  H   H28       1.0  0.71940  0.09177  0.07403  1.0000
  C   C1        1.0  0.18159  0.87335  0.37817  1.0000
  C   C2        1.0  0.81842  0.12666  0.62184  1.0000
  C   C3        1.0  0.09231  0.88806  0.46888  1.0000
  C   C4        1.0  0.90769  0.11193  0.53112  1.0000
  C   C5        1.0  0.14815  0.90316  0.62945  1.0000
  C   C6        1.0  0.85184  0.09684  0.37056  1.0000
  C   C7        1.0  0.29371  0.89890  0.70256  1.0000
  C   C8        1.0  0.70629  0.10110  0.29744  1.0000
  C   C9        1.0  0.38287  0.88359  0.61003  1.0000
  C   C10       1.0  0.61713  0.11642  0.38997  1.0000
  C   C11       1.0  0.32685  0.87106  0.45011  1.0000
  C   C12       1.0  0.67315  0.12894  0.54990  1.0000
  C   C13       1.0  0.13355  0.52386  0.43855  1.0000
  C   C14       1.0  0.86645  0.47615  0.56145  1.0000
  C   C15       1.0  0.24957  0.52581  0.56795  1.0000
  C   C16       1.0  0.75043  0.47418  0.43203  1.0000
  C   C17       1.0  0.30216  0.40977  0.55439  1.0000
  C   C18       1.0  0.69784  0.59023  0.44560  1.0000
  C   C19       1.0  0.23411  0.29604  0.40643  1.0000
  C   C20       1.0  0.76590  0.70396  0.59356  1.0000
  C   C21       1.0  0.54513  0.54704  0.79971  1.0000
  C   C22       1.0  0.45488  0.45296  0.20027  1.0000
  C   C23       1.0  0.42533  0.41165  0.69197  1.0000
  C   C24       1.0  0.57467  0.58836  0.30803  1.0000
  C   C25       1.0  0.42800  0.27954  0.72125  1.0000
  C   C26       1.0  0.57200  0.72046  0.27875  1.0000
  C   C27       1.0  0.54804  0.28747  0.85143  1.0000
  C   C28       1.0  0.45196  0.71254  0.14858  1.0000
  C   C29       1.0  0.66192  0.54611  0.92665  1.0000
  C   C30       1.0  0.33808  0.45389  0.07334  1.0000
  C   C31       1.0  0.11835  0.30200  0.28189  1.0000
  C   C32       1.0  0.88165  0.69799  0.71810  1.0000
  S   S1        1.0  0.10489  0.85015  0.17227  1.0000
  S   S2        1.0  0.89511  0.14985  0.82773  1.0000
  N   N1        1.0  0.34906  0.91377  0.86106  1.0000
  N   N2        1.0  0.65094  0.08624  0.13895  1.0000
  N   N3        1.0  0.06674  0.41321  0.29747  1.0000
  N   N4        1.0  0.93326  0.58679  0.70253  1.0000
  N   N5        1.0  0.66479  0.41793  0.95244  1.0000
  N   N6        1.0  0.33521  0.58207  0.04756  1.0000
  O   O1        1.0  0.02777  0.68525  0.09121  1.0000
  O   O2        1.0  0.97224  0.31474  0.90879  1.0000
  O   O3        1.0  0.23882  0.91828  0.13076  1.0000
  O   O4        1.0  0.76118  0.08172  0.86925  1.0000
  O   O5        1.0  0.99392  0.92136  0.15099  1.0000
  O   O6        1.0  0.00608  0.07864  0.84901  1.0000
