data_image0
_chemical_formula_structural       La2CuH16C32N4O26
_chemical_formula_sum              "La2 Cu1 H16 C32 N4 O26"
_cell_length_a       9.92915
_cell_length_b       10.4671
_cell_length_c       11.0761
_cell_angle_alpha    69.9787
_cell_angle_beta     84.4565
_cell_angle_gamma    70.5003

_space_group_name_H-M_alt    "P 1"
_space_group_IT_number       1

loop_
  _space_group_symop_operation_xyz
  'x, y, z'

loop_
  _atom_site_type_symbol
  _atom_site_label
  _atom_site_symmetry_multiplicity
  _atom_site_fract_x
  _atom_site_fract_y
  _atom_site_fract_z
  _atom_site_occupancy
  La  La1       1.0  0.40242  0.90859  0.41002  1.0000
  La  La2       1.0  0.59758  0.09141  0.58998  1.0000
  Cu  Cu1       1.0  0.50000  0.50000  0.50000  1.0000
  H   H1        1.0  0.91587  0.85154  0.48461  1.0000
  H   H2        1.0  0.08413  0.14846  0.51539  1.0000
  H   H3        1.0  0.81548  0.45926  0.66966  1.0000
  H   H4        1.0  0.18453  0.54074  0.33034  1.0000
  H   H5        1.0  0.25207  0.45177  0.65069  1.0000
  H   H6        1.0  0.74794  0.54824  0.34931  1.0000
  H   H7        1.0  0.46146  0.85703  0.98059  1.0000
  H   H8        1.0  0.53854  0.14298  0.01941  1.0000
  H   H9        1.0  0.35213  0.47970  0.20452  1.0000
  H   H10       1.0  0.64787  0.52031  0.79548  1.0000
  H   H11       1.0  0.28113  0.65042  0.79368  1.0000
  H   H12       1.0  0.71887  0.34959  0.20632  1.0000
  H   H13       1.0  0.10861  0.08440  0.25633  1.0000
  H   H14       1.0  0.89139  0.91559  0.74367  1.0000
  H   H15       1.0  0.19959  0.18752  0.18386  1.0000
  H   H16       1.0  0.80041  0.81248  0.81614  1.0000
  C   C1        1.0  0.09475  0.66025  0.56053  1.0000
  C   C2        1.0  0.90525  0.33974  0.43948  1.0000
  C   C3        1.0  0.94873  0.73687  0.53787  1.0000
  C   C4        1.0  0.05127  0.26313  0.46213  1.0000
  C   C5        1.0  0.84786  0.66525  0.57546  1.0000
  C   C6        1.0  0.15214  0.33475  0.42454  1.0000
  C   C7        1.0  0.89169  0.51794  0.64284  1.0000
  C   C8        1.0  0.10831  0.48206  0.35716  1.0000
  C   C9        1.0  0.03587  0.44600  0.67338  1.0000
  C   C10       1.0  0.96414  0.55399  0.32662  1.0000
  C   C11       1.0  0.13961  0.51346  0.63079  1.0000
  C   C12       1.0  0.86039  0.48654  0.36921  1.0000
  C   C13       1.0  0.19724  0.73986  0.50071  1.0000
  C   C14       1.0  0.80276  0.26014  0.49929  1.0000
  C   C15       1.0  0.69533  0.74391  0.53455  1.0000
  C   C16       1.0  0.30468  0.25608  0.46545  1.0000
  C   C17       1.0  0.37601  0.76189  0.87441  1.0000
  C   C18       1.0  0.62399  0.23811  0.12559  1.0000
  C   C19       1.0  0.41738  0.77250  0.98724  1.0000
  C   C20       1.0  0.58262  0.22750  0.01276  1.0000
  C   C21       1.0  0.40767  0.67165  0.10637  1.0000
  C   C22       1.0  0.59233  0.32835  0.89363  1.0000
  C   C23       1.0  0.35335  0.56234  0.11326  1.0000
  C   C24       1.0  0.64665  0.43766  0.88674  1.0000
  C   C25       1.0  0.30174  0.56085  0.00157  1.0000
  C   C26       1.0  0.69826  0.43915  0.99843  1.0000
  C   C27       1.0  0.31384  0.65791  0.88126  1.0000
  C   C28       1.0  0.68616  0.34209  0.11874  1.0000
  C   C29       1.0  0.40783  0.85542  0.74485  1.0000
  C   C30       1.0  0.59216  0.14458  0.25515  1.0000
  C   C31       1.0  0.45506  0.67510  0.22973  1.0000
  C   C32       1.0  0.54494  0.32490  0.77028  1.0000
  N   N1        1.0  0.07987  0.29083  0.74685  1.0000
  N   N2        1.0  0.92014  0.70917  0.25314  1.0000
  N   N3        1.0  0.23669  0.45087  0.01198  1.0000
  N   N4        1.0  0.76331  0.54913  0.98801  1.0000
  O   O1        1.0  0.33062  0.67275  0.48994  1.0000
  O   O2        1.0  0.66938  0.32725  0.51006  1.0000
  O   O3        1.0  0.15198  0.87557  0.45745  1.0000
  O   O4        1.0  0.84802  0.12443  0.54255  1.0000
  O   O5        1.0  0.64568  0.87841  0.51959  1.0000
  O   O6        1.0  0.35432  0.12159  0.48041  1.0000
  O   O7        1.0  0.61994  0.67860  0.51049  1.0000
  O   O8        1.0  0.38006  0.32140  0.48950  1.0000
  O   O9        1.0  0.98374  0.23721  0.79101  1.0000
  O   O10       1.0  0.01627  0.76279  0.20900  1.0000
  O   O11       1.0  0.20936  0.22314  0.75861  1.0000
  O   O12       1.0  0.79065  0.77686  0.24138  1.0000
  O   O13       1.0  0.36715  0.84086  0.64672  1.0000
  O   O14       1.0  0.63285  0.15914  0.35328  1.0000
  O   O15       1.0  0.47812  0.93726  0.74471  1.0000
  O   O16       1.0  0.52187  0.06275  0.25529  1.0000
  O   O17       1.0  0.44831  0.79307  0.24013  1.0000
  O   O18       1.0  0.55169  0.20693  0.75987  1.0000
  O   O19       1.0  0.49824  0.55035  0.31584  1.0000
  O   O20       1.0  0.50177  0.44964  0.68416  1.0000
  O   O21       1.0  0.23873  0.35962  0.12062  1.0000
  O   O22       1.0  0.76126  0.64038  0.87938  1.0000
  O   O23       1.0  0.18257  0.45363  0.91474  1.0000
  O   O24       1.0  0.81742  0.54637  0.08525  1.0000
  O   O25       1.0  0.20405  0.09249  0.24534  1.0000
  O   O26       1.0  0.79595  0.90751  0.75466  1.0000
