data_image0
_chemical_formula_structural       CuP2H32C18N2O8
_chemical_formula_sum              "Cu1 P2 H32 C18 N2 O8"
_cell_length_a       6.62482
_cell_length_b       9.10941
_cell_length_c       9.7685
_cell_angle_alpha    79.3769
_cell_angle_beta     82.6355
_cell_angle_gamma    73.9367

_space_group_name_H-M_alt    "P 1"
_space_group_IT_number       1

loop_
  _space_group_symop_operation_xyz
  'x, y, z'

loop_
  _atom_site_type_symbol
  _atom_site_label
  _atom_site_symmetry_multiplicity
  _atom_site_fract_x
  _atom_site_fract_y
  _atom_site_fract_z
  _atom_site_occupancy
  Cu  Cu1       1.0  0.50000  1.00000  0.50000  1.0000
  P   P1        1.0  0.18575  0.32751  0.39493  1.0000
  P   P2        1.0  0.81425  0.67249  0.60507  1.0000
  H   H1        1.0  0.92567  0.04007  0.40808  1.0000
  H   H2        1.0  0.07432  0.95994  0.59192  1.0000
  H   H3        1.0  0.15179  0.05069  0.19269  1.0000
  H   H4        1.0  0.84820  0.94931  0.80731  1.0000
  H   H5        1.0  0.67947  0.93375  0.99453  1.0000
  H   H6        1.0  0.32054  0.06624  0.00547  1.0000
  H   H7        1.0  0.47320  0.92394  0.22630  1.0000
  H   H8        1.0  0.52681  0.07605  0.77369  1.0000
  H   H9        1.0  0.59083  0.30222  0.23489  1.0000
  H   H10       1.0  0.40916  0.69778  0.76511  1.0000
  H   H11       1.0  0.52912  0.48231  0.29734  1.0000
  H   H12       1.0  0.47088  0.51769  0.70266  1.0000
  H   H13       1.0  0.54605  0.47786  0.11505  1.0000
  H   H14       1.0  0.45395  0.52214  0.88496  1.0000
  H   H15       1.0  0.04976  0.34908  0.11965  1.0000
  H   H16       1.0  0.95023  0.65093  0.88034  1.0000
  H   H17       1.0  0.31866  0.23954  0.11210  1.0000
  H   H18       1.0  0.68134  0.76046  0.88789  1.0000
  H   H19       1.0  0.24195  0.42314  0.00607  1.0000
  H   H20       1.0  0.75804  0.57686  0.99393  1.0000
  H   H21       1.0  0.17849  0.66282  0.10606  1.0000
  H   H22       1.0  0.82151  0.33718  0.89394  1.0000
  H   H23       1.0  0.16727  0.66309  0.28838  1.0000
  H   H24       1.0  0.83273  0.33690  0.71163  1.0000
  H   H25       1.0  0.96251  0.61666  0.21672  1.0000
  H   H26       1.0  0.03748  0.38334  0.78329  1.0000
  H   H27       1.0  0.49183  0.71395  0.44723  1.0000
  H   H28       1.0  0.50818  0.28605  0.55277  1.0000
  H   H29       1.0  0.24822  0.74772  0.48861  1.0000
  H   H30       1.0  0.75179  0.25228  0.51139  1.0000
  H   H31       1.0  0.85615  0.46716  0.43999  1.0000
  H   H32       1.0  0.14385  0.53284  0.56001  1.0000
  C   C1        1.0  0.87645  0.01713  0.31405  1.0000
  C   C2        1.0  0.12354  0.98287  0.68595  1.0000
  C   C3        1.0  0.00317  0.02339  0.18950  1.0000
  C   C4        1.0  0.99683  0.97661  0.81050  1.0000
  C   C5        1.0  0.93617  0.99639  0.06804  1.0000
  C   C6        1.0  0.06383  0.00361  0.93197  1.0000
  C   C7        1.0  0.74083  0.96023  0.08235  1.0000
  C   C8        1.0  0.25918  0.03977  0.91764  1.0000
  C   C9        1.0  0.62279  0.95526  0.21027  1.0000
  C   C10       1.0  0.37722  0.04474  0.78972  1.0000
  C   C11       1.0  0.25896  0.43328  0.22493  1.0000
  C   C12       1.0  0.74104  0.56672  0.77507  1.0000
  C   C13       1.0  0.49535  0.42258  0.21857  1.0000
  C   C14       1.0  0.50465  0.57741  0.78143  1.0000
  C   C15       1.0  0.21382  0.35651  0.10919  1.0000
  C   C16       1.0  0.78618  0.64350  0.89081  1.0000
  C   C17       1.0  0.13307  0.60363  0.20948  1.0000
  C   C18       1.0  0.86692  0.39637  0.79052  1.0000
  N   N1        1.0  0.68837  0.98557  0.32437  1.0000
  N   N2        1.0  0.31162  0.01443  0.67563  1.0000
  O   O1        1.0  0.27468  0.15403  0.39168  1.0000
  O   O2        1.0  0.72532  0.84596  0.60832  1.0000
  O   O3        1.0  0.25676  0.38786  0.51237  1.0000
  O   O4        1.0  0.74323  0.61214  0.48764  1.0000
  O   O5        1.0  0.93531  0.36031  0.40754  1.0000
  O   O6        1.0  0.06469  0.63969  0.59246  1.0000
  O   O7        1.0  0.35558  0.79207  0.42979  1.0000
  O   O8        1.0  0.64442  0.20793  0.57021  1.0000
