data_image0
_chemical_formula_structural       Ag8H52C48N20O16
_chemical_formula_sum              "Ag8 H52 C48 N20 O16"
_cell_length_a       8.89875
_cell_length_b       11.4762
_cell_length_c       13.9187
_cell_angle_alpha    90
_cell_angle_beta     90.0001
_cell_angle_gamma    103.919

_space_group_name_H-M_alt    "P 1"
_space_group_IT_number       1

loop_
  _space_group_symop_operation_xyz
  'x, y, z'

loop_
  _atom_site_type_symbol
  _atom_site_label
  _atom_site_symmetry_multiplicity
  _atom_site_fract_x
  _atom_site_fract_y
  _atom_site_fract_z
  _atom_site_occupancy
  Ag  Ag1       1.0  0.59800  0.48405  0.90877  1.0000
  Ag  Ag2       1.0  0.40200  0.01595  0.40877  1.0000
  Ag  Ag3       1.0  0.40200  0.51595  0.09123  1.0000
  Ag  Ag4       1.0  0.59800  0.98405  0.59122  1.0000
  Ag  Ag5       1.0  0.13463  0.51414  0.20932  1.0000
  Ag  Ag6       1.0  0.86537  0.98587  0.70932  1.0000
  Ag  Ag7       1.0  0.86537  0.48587  0.79068  1.0000
  Ag  Ag8       1.0  0.13463  0.01413  0.29068  1.0000
  H   H1        1.0  0.87072  0.11660  0.04040  1.0000
  H   H2        1.0  0.12928  0.38340  0.54040  1.0000
  H   H3        1.0  0.12928  0.88340  0.95960  1.0000
  H   H4        1.0  0.87072  0.61660  0.45960  1.0000
  H   H5        1.0  0.27466  0.53846  0.38125  1.0000
  H   H6        1.0  0.72534  0.96154  0.88125  1.0000
  H   H7        1.0  0.72534  0.46154  0.61875  1.0000
  H   H8        1.0  0.27466  0.03846  0.11875  1.0000
  H   H9        1.0  0.23838  0.66587  0.33853  1.0000
  H   H10       1.0  0.76162  0.83413  0.83853  1.0000
  H   H11       1.0  0.76162  0.33413  0.66147  1.0000
  H   H12       1.0  0.23838  0.16587  0.16147  1.0000
  H   H13       1.0  0.40246  0.39161  0.25838  1.0000
  H   H14       1.0  0.59754  0.10839  0.75838  1.0000
  H   H15       1.0  0.59754  0.60839  0.74162  1.0000
  H   H16       1.0  0.40246  0.89161  0.24162  1.0000
  H   H17       1.0  0.57407  0.41400  0.21062  1.0000
  H   H18       1.0  0.42593  0.08600  0.71062  1.0000
  H   H19       1.0  0.42593  0.58600  0.78938  1.0000
  H   H20       1.0  0.57407  0.91400  0.28938  1.0000
  H   H21       1.0  0.57033  0.76532  0.00533  1.0000
  H   H22       1.0  0.42967  0.73468  0.50534  1.0000
  H   H23       1.0  0.42967  0.23468  0.99466  1.0000
  H   H24       1.0  0.57033  0.26531  0.49467  1.0000
  H   H25       1.0  0.75000  0.93216  0.09356  1.0000
  H   H26       1.0  0.25000  0.56784  0.59356  1.0000
  H   H27       1.0  0.25000  0.06784  0.90644  1.0000
  H   H28       1.0  0.75000  0.43216  0.40644  1.0000
  H   H29       1.0  0.97251  0.88498  0.18420  1.0000
  H   H30       1.0  0.02748  0.61502  0.68420  1.0000
  H   H31       1.0  0.02749  0.11503  0.81579  1.0000
  H   H32       1.0  0.97251  0.38497  0.31580  1.0000
  H   H33       1.0  0.01167  0.67804  0.17836  1.0000
  H   H34       1.0  0.98833  0.82196  0.67836  1.0000
  H   H35       1.0  0.98834  0.32196  0.82164  1.0000
  H   H36       1.0  0.01167  0.17804  0.32164  1.0000
  H   H37       1.0  0.50953  0.71022  0.35996  1.0000
  H   H38       1.0  0.49047  0.78978  0.85996  1.0000
  H   H39       1.0  0.49047  0.28978  0.64004  1.0000
  H   H40       1.0  0.50953  0.21022  0.14004  1.0000
  H   H41       1.0  0.46620  0.69356  0.23475  1.0000
  H   H42       1.0  0.53380  0.80644  0.73475  1.0000
  H   H43       1.0  0.53380  0.30644  0.76525  1.0000
  H   H44       1.0  0.46620  0.19356  0.26525  1.0000
  H   H45       1.0  0.66859  0.59349  0.28329  1.0000
  H   H46       1.0  0.33141  0.90651  0.78329  1.0000
  H   H47       1.0  0.33141  0.40651  0.71671  1.0000
  H   H48       1.0  0.66859  0.09349  0.21671  1.0000
  H   H49       1.0  0.54478  0.50674  0.37101  1.0000
  H   H50       1.0  0.45523  0.99326  0.87101  1.0000
  H   H51       1.0  0.45523  0.49326  0.62899  1.0000
  H   H52       1.0  0.54477  0.00674  0.12899  1.0000
  C   C1        1.0  0.67049  0.74997  0.04366  1.0000
  C   C2        1.0  0.32951  0.75003  0.54366  1.0000
  C   C3        1.0  0.32951  0.25003  0.95634  1.0000
  C   C4        1.0  0.67049  0.24997  0.45634  1.0000
  C   C5        1.0  0.76879  0.84205  0.09426  1.0000
  C   C6        1.0  0.23121  0.65795  0.59427  1.0000
  C   C7        1.0  0.23121  0.15795  0.90573  1.0000
  C   C8        1.0  0.76879  0.34204  0.40574  1.0000
  C   C9        1.0  0.89190  0.81512  0.14407  1.0000
  C   C10       1.0  0.10810  0.68489  0.64407  1.0000
  C   C11       1.0  0.10810  0.18489  0.85593  1.0000
  C   C12       1.0  0.89190  0.31511  0.35593  1.0000
  C   C13       1.0  0.91402  0.69935  0.14070  1.0000
  C   C14       1.0  0.08598  0.80065  0.64071  1.0000
  C   C15       1.0  0.08598  0.30065  0.85929  1.0000
  C   C16       1.0  0.91402  0.19935  0.35930  1.0000
  C   C17       1.0  0.81210  0.61216  0.08622  1.0000
  C   C18       1.0  0.18790  0.88784  0.58623  1.0000
  C   C19       1.0  0.18790  0.38784  0.91377  1.0000
  C   C20       1.0  0.81210  0.11216  0.41377  1.0000
  C   C21       1.0  0.83129  0.48980  0.07331  1.0000
  C   C22       1.0  0.16871  0.01020  0.57331  1.0000
  C   C23       1.0  0.16871  0.51020  0.92669  1.0000
  C   C24       1.0  0.83129  0.98980  0.42669  1.0000
  C   C25       1.0  0.91166  0.32592  0.08440  1.0000
  C   C26       1.0  0.08834  0.17408  0.58440  1.0000
  C   C27       1.0  0.08834  0.67408  0.91560  1.0000
  C   C28       1.0  0.91166  0.82592  0.41561  1.0000
  C   C29       1.0  0.79126  0.30813  0.01583  1.0000
  C   C30       1.0  0.20874  0.19187  0.51583  1.0000
  C   C31       1.0  0.20874  0.69187  0.98417  1.0000
  C   C32       1.0  0.79127  0.80813  0.48417  1.0000
  C   C33       1.0  0.00876  0.24641  0.11756  1.0000
  C   C34       1.0  0.99124  0.25360  0.61756  1.0000
  C   C35       1.0  0.99124  0.75360  0.88244  1.0000
  C   C36       1.0  0.00877  0.74640  0.38244  1.0000
  C   C37       1.0  0.72931  0.20376  0.95079  1.0000
  C   C38       1.0  0.27069  0.29624  0.45079  1.0000
  C   C39       1.0  0.27069  0.79624  0.04921  1.0000
  C   C40       1.0  0.72931  0.70376  0.54921  1.0000
  C   C41       1.0  0.45634  0.64550  0.30359  1.0000
  C   C42       1.0  0.54366  0.85450  0.80359  1.0000
  C   C43       1.0  0.54366  0.35450  0.69642  1.0000
  C   C44       1.0  0.45634  0.14550  0.19641  1.0000
  C   C45       1.0  0.54756  0.54961  0.30001  1.0000
  C   C46       1.0  0.45243  0.95039  0.80001  1.0000
  C   C47       1.0  0.45243  0.45039  0.69999  1.0000
  C   C48       1.0  0.54756  0.04961  0.19999  1.0000
  N   N1        1.0  0.69035  0.63798  0.03954  1.0000
  N   N2        1.0  0.30965  0.86202  0.53955  1.0000
  N   N3        1.0  0.30966  0.36202  0.96045  1.0000
  N   N4        1.0  0.69035  0.13797  0.46046  1.0000
  N   N5        1.0  0.74293  0.41225  0.01016  1.0000
  N   N6        1.0  0.25707  0.08775  0.51016  1.0000
  N   N7        1.0  0.25707  0.58775  0.98984  1.0000
  N   N8        1.0  0.74293  0.91225  0.48984  1.0000
  N   N9        1.0  0.93651  0.44122  0.11863  1.0000
  N   N10       1.0  0.06349  0.05878  0.61864  1.0000
  N   N11       1.0  0.06349  0.55878  0.88136  1.0000
  N   N12       1.0  0.93651  0.94122  0.38137  1.0000
  N   N13       1.0  0.29020  0.59647  0.32350  1.0000
  N   N14       1.0  0.70980  0.90353  0.82350  1.0000
  N   N15       1.0  0.70980  0.40353  0.67650  1.0000
  N   N16       1.0  0.29020  0.09647  0.17650  1.0000
  N   N17       1.0  0.48847  0.45642  0.22642  1.0000
  N   N18       1.0  0.51153  0.04358  0.72642  1.0000
  N   N19       1.0  0.51153  0.54359  0.77358  1.0000
  N   N20       1.0  0.48847  0.95642  0.27358  1.0000
  O   O1        1.0  0.76031  0.10221  0.97402  1.0000
  O   O2        1.0  0.23969  0.39779  0.47402  1.0000
  O   O3        1.0  0.23969  0.89779  0.02598  1.0000
  O   O4        1.0  0.76031  0.60221  0.52598  1.0000
  O   O5        1.0  0.65315  0.21811  0.87810  1.0000
  O   O6        1.0  0.34686  0.28189  0.37810  1.0000
  O   O7        1.0  0.34686  0.78189  0.12190  1.0000
  O   O8        1.0  0.65315  0.71811  0.62190  1.0000
  O   O9        1.0  0.12591  0.28598  0.16829  1.0000
  O   O10       1.0  0.87409  0.21403  0.66829  1.0000
  O   O11       1.0  0.87409  0.71403  0.83171  1.0000
  O   O12       1.0  0.12591  0.78597  0.33171  1.0000
  O   O13       1.0  0.96802  0.13274  0.09273  1.0000
  O   O14       1.0  0.03199  0.36726  0.59273  1.0000
  O   O15       1.0  0.03199  0.86726  0.90727  1.0000
  O   O16       1.0  0.96802  0.63274  0.40727  1.0000
