data_image0
_chemical_formula_structural       Mn4H28C56N12O32
_chemical_formula_sum              "Mn4 H28 C56 N12 O32"
_cell_length_a       7.50034
_cell_length_b       16.0512
_cell_length_c       16.0511
_cell_angle_alpha    69.5758
_cell_angle_beta     76.4708
_cell_angle_gamma    76.4706

_space_group_name_H-M_alt    "P 1"
_space_group_IT_number       1

loop_
  _space_group_symop_operation_xyz
  'x, y, z'

loop_
  _atom_site_type_symbol
  _atom_site_label
  _atom_site_symmetry_multiplicity
  _atom_site_fract_x
  _atom_site_fract_y
  _atom_site_fract_z
  _atom_site_occupancy
  Mn  Mn1       1.0  0.73916  0.41966  0.61799  1.0000
  Mn  Mn2       1.0  0.77659  0.58040  0.38219  1.0000
  Mn  Mn3       1.0  0.23916  0.61799  0.41966  1.0000
  Mn  Mn4       1.0  0.27659  0.38219  0.58040  1.0000
  H   H1        1.0  0.26449  0.29975  0.85832  1.0000
  H   H2        1.0  0.42256  0.70036  0.14161  1.0000
  H   H3        1.0  0.76449  0.85832  0.29975  1.0000
  H   H4        1.0  0.92256  0.14161  0.70036  1.0000
  H   H5        1.0  0.68488  0.41509  0.88327  1.0000
  H   H6        1.0  0.98374  0.58454  0.11710  1.0000
  H   H7        1.0  0.18488  0.88327  0.41509  1.0000
  H   H8        1.0  0.48373  0.11710  0.58454  1.0000
  H   H9        1.0  0.65546  0.54635  0.21421  1.0000
  H   H10       1.0  0.41623  0.45358  0.78580  1.0000
  H   H11       1.0  0.15547  0.21421  0.54634  1.0000
  H   H12       1.0  0.91623  0.78580  0.45358  1.0000
  H   H13       1.0  0.84839  0.46770  0.10629  1.0000
  H   H14       1.0  0.42254  0.53210  0.89376  1.0000
  H   H15       1.0  0.34840  0.10629  0.46770  1.0000
  H   H16       1.0  0.92254  0.89376  0.53210  1.0000
  H   H17       1.0  0.77883  0.21122  0.30754  1.0000
  H   H18       1.0  0.29792  0.78869  0.69257  1.0000
  H   H19       1.0  0.27883  0.30754  0.21122  1.0000
  H   H20       1.0  0.79791  0.69257  0.78869  1.0000
  H   H21       1.0  0.57359  0.29054  0.41292  1.0000
  H   H22       1.0  0.27740  0.70946  0.58716  1.0000
  H   H23       1.0  0.07359  0.41292  0.29054  1.0000
  H   H24       1.0  0.77740  0.58716  0.70947  1.0000
  H   H25       1.0  0.04297  0.23684  0.16736  1.0000
  H   H26       1.0  0.44695  0.76308  0.83276  1.0000
  H   H27       1.0  0.54297  0.16736  0.23684  1.0000
  H   H28       1.0  0.94695  0.83276  0.76308  1.0000
  C   C1        1.0  0.97640  0.36090  0.85872  1.0000
  C   C2        1.0  0.19629  0.63897  0.14141  1.0000
  C   C3        1.0  0.47640  0.85872  0.36090  1.0000
  C   C4        1.0  0.69629  0.14141  0.63897  1.0000
  C   C5        1.0  0.13232  0.31703  0.89924  1.0000
  C   C6        1.0  0.34866  0.68296  0.10079  1.0000
  C   C7        1.0  0.63232  0.89924  0.31703  1.0000
  C   C8        1.0  0.84866  0.10079  0.68296  1.0000
  C   C9        1.0  0.12170  0.29314  0.99217  1.0000
  C   C10       1.0  0.40688  0.70685  0.00785  1.0000
  C   C11       1.0  0.62169  0.99217  0.29314  1.0000
  C   C12       1.0  0.90689  0.00785  0.70685  1.0000
  C   C13       1.0  0.95244  0.31258  0.05116  1.0000
  C   C14       1.0  0.31613  0.68728  0.94895  1.0000
  C   C15       1.0  0.45244  0.05116  0.31258  1.0000
  C   C16       1.0  0.81613  0.94895  0.68728  1.0000
  C   C17       1.0  0.79791  0.35898  0.00571  1.0000
  C   C18       1.0  0.16276  0.64076  0.99452  1.0000
  C   C19       1.0  0.29790  0.00571  0.35898  1.0000
  C   C20       1.0  0.66276  0.99452  0.64076  1.0000
  C   C21       1.0  0.80954  0.38303  0.91322  1.0000
  C   C22       1.0  0.10611  0.61671  0.08702  1.0000
  C   C23       1.0  0.30953  0.91322  0.38303  1.0000
  C   C24       1.0  0.60611  0.08702  0.61671  1.0000
  C   C25       1.0  0.98323  0.37949  0.76027  1.0000
  C   C26       1.0  0.12350  0.62037  0.23990  1.0000
  C   C27       1.0  0.48323  0.76027  0.37949  1.0000
  C   C28       1.0  0.62350  0.23990  0.62037  1.0000
  C   C29       1.0  0.60284  0.42316  0.32033  1.0000
  C   C30       1.0  0.34656  0.57680  0.67972  1.0000
  C   C31       1.0  0.10284  0.32033  0.42316  1.0000
  C   C32       1.0  0.84656  0.67972  0.57681  1.0000
  C   C33       1.0  0.68030  0.47292  0.23383  1.0000
  C   C34       1.0  0.38730  0.52700  0.76620  1.0000
  C   C35       1.0  0.18031  0.23383  0.47292  1.0000
  C   C36       1.0  0.88730  0.76620  0.52700  1.0000
  C   C37       1.0  0.78769  0.42909  0.17342  1.0000
  C   C38       1.0  0.39044  0.57077  0.82665  1.0000
  C   C39       1.0  0.28769  0.17342  0.42909  1.0000
  C   C40       1.0  0.89044  0.82664  0.57077  1.0000
  C   C41       1.0  0.82374  0.33444  0.20022  1.0000
  C   C42       1.0  0.35860  0.66541  0.79988  1.0000
  C   C43       1.0  0.32374  0.20022  0.33444  1.0000
  C   C44       1.0  0.85860  0.79988  0.66541  1.0000
  C   C45       1.0  0.74820  0.28442  0.28711  1.0000
  C   C46       1.0  0.32006  0.71548  0.71298  1.0000
  C   C47       1.0  0.24821  0.28711  0.28442  1.0000
  C   C48       1.0  0.82006  0.71299  0.71548  1.0000
  C   C49       1.0  0.63571  0.32873  0.34594  1.0000
  C   C50       1.0  0.31071  0.67123  0.65413  1.0000
  C   C51       1.0  0.13571  0.34594  0.32873  1.0000
  C   C52       1.0  0.81071  0.65413  0.67124  1.0000
  C   C53       1.0  0.48650  0.46980  0.38375  1.0000
  C   C54       1.0  0.34010  0.53018  0.61634  1.0000
  C   C55       1.0  0.98650  0.38375  0.46980  1.0000
  C   C56       1.0  0.84010  0.61634  0.53018  1.0000
  N   N1        1.0  0.29359  0.24893  0.02675  1.0000
  N   N2        1.0  0.56889  0.75121  0.97314  1.0000
  N   N3        1.0  0.79359  0.02675  0.24893  1.0000
  N   N4        1.0  0.06889  0.97314  0.75121  1.0000
  N   N5        1.0  0.60962  0.37141  0.05597  1.0000
  N   N6        1.0  0.03727  0.62817  0.94432  1.0000
  N   N7        1.0  0.10962  0.05598  0.37141  1.0000
  N   N8        1.0  0.53727  0.94432  0.62817  1.0000
  N   N9        1.0  0.94317  0.28950  0.14167  1.0000
  N   N10       1.0  0.37428  0.71037  0.85843  1.0000
  N   N11       1.0  0.44317  0.14167  0.28950  1.0000
  N   N12       1.0  0.87428  0.85843  0.71036  1.0000
  O   O1        1.0  0.44332  0.25981  0.97436  1.0000
  O   O2        1.0  0.67728  0.74039  0.02540  1.0000
  O   O3        1.0  0.94332  0.97436  0.25981  1.0000
  O   O4        1.0  0.17727  0.02540  0.74039  1.0000
  O   O5        1.0  0.28301  0.20168  0.10798  1.0000
  O   O6        1.0  0.59196  0.79853  0.89192  1.0000
  O   O7        1.0  0.78300  0.10799  0.20169  1.0000
  O   O8        1.0  0.09196  0.89192  0.79853  1.0000
  O   O9        1.0  0.56541  0.30874  0.12398  1.0000
  O   O10       1.0  0.99781  0.69087  0.87645  1.0000
  O   O11       1.0  0.06541  0.12399  0.30874  1.0000
  O   O12       1.0  0.49780  0.87645  0.69087  1.0000
  O   O13       1.0  0.50196  0.44238  0.02636  1.0000
  O   O14       1.0  0.97167  0.55702  0.97390  1.0000
  O   O15       1.0  0.00195  0.02636  0.44237  1.0000
  O   O16       1.0  0.47167  0.97390  0.55702  1.0000
  O   O17       1.0  0.82849  0.41190  0.73145  1.0000
  O   O18       1.0  0.97213  0.58816  0.26882  1.0000
  O   O19       1.0  0.32849  0.73145  0.41190  1.0000
  O   O20       1.0  0.47213  0.26882  0.58816  1.0000
  O   O21       1.0  0.14015  0.36141  0.71349  1.0000
  O   O22       1.0  0.21604  0.63822  0.28660  1.0000
  O   O23       1.0  0.64015  0.71349  0.36141  1.0000
  O   O24       1.0  0.71604  0.28660  0.63822  1.0000
  O   O25       1.0  0.51770  0.54763  0.37916  1.0000
  O   O26       1.0  0.44442  0.45229  0.62096  1.0000
  O   O27       1.0  0.01770  0.37916  0.54763  1.0000
  O   O28       1.0  0.94442  0.62095  0.45230  1.0000
  O   O29       1.0  0.35109  0.43624  0.43941  1.0000
  O   O30       1.0  0.22679  0.56377  0.56069  1.0000
  O   O31       1.0  0.85110  0.43941  0.43624  1.0000
  O   O32       1.0  0.72679  0.56069  0.56378  1.0000
