data_image0
_chemical_formula_structural       CuH22C22N16O4
_chemical_formula_sum              "Cu1 H22 C22 N16 O4"
_cell_length_a       7.03622
_cell_length_b       7.62419
_cell_length_c       12.8706
_cell_angle_alpha    89.0808
_cell_angle_beta     106.039
_cell_angle_gamma    96.7295

_space_group_name_H-M_alt    "P 1"
_space_group_IT_number       1

loop_
  _space_group_symop_operation_xyz
  'x, y, z'

loop_
  _atom_site_type_symbol
  _atom_site_label
  _atom_site_symmetry_multiplicity
  _atom_site_fract_x
  _atom_site_fract_y
  _atom_site_fract_z
  _atom_site_occupancy
  Cu  Cu1       1.0  0.50000  0.50001  0.50000  1.0000
  H   H1        1.0  0.39464  0.83041  0.95050  1.0000
  H   H2        1.0  0.60536  0.16958  0.04950  1.0000
  H   H3        1.0  0.63156  0.84871  0.04514  1.0000
  H   H4        1.0  0.36844  0.15127  0.95486  1.0000
  H   H5        1.0  0.67694  0.61857  0.73069  1.0000
  H   H6        1.0  0.32305  0.38144  0.26932  1.0000
  H   H7        1.0  0.19231  0.57505  0.87915  1.0000
  H   H8        1.0  0.80770  0.42494  0.12086  1.0000
  H   H9        1.0  0.96656  0.45414  0.70115  1.0000
  H   H10       1.0  0.03345  0.54586  0.29884  1.0000
  H   H11       1.0  0.11428  0.41882  0.54762  1.0000
  H   H12       1.0  0.88573  0.58120  0.45238  1.0000
  H   H13       1.0  0.79816  0.41212  0.90016  1.0000
  H   H14       1.0  0.20184  0.58787  0.09984  1.0000
  H   H15       1.0  0.99824  0.28778  0.94078  1.0000
  H   H16       1.0  0.00176  0.71221  0.05922  1.0000
  H   H17       1.0  0.31587  0.12016  0.66031  1.0000
  H   H18       1.0  0.68413  0.87985  0.33968  1.0000
  H   H19       1.0  0.36026  0.95391  0.76123  1.0000
  H   H20       1.0  0.63973  0.04609  0.23876  1.0000
  H   H21       1.0  0.51415  0.98542  0.67013  1.0000
  H   H22       1.0  0.48584  0.01458  0.32986  1.0000
  C   C1        1.0  0.25308  0.80664  0.43869  1.0000
  C   C2        1.0  0.74691  0.19338  0.56131  1.0000
  C   C3        1.0  0.19848  0.10070  0.43262  1.0000
  C   C4        1.0  0.80152  0.89931  0.56738  1.0000
  C   C5        1.0  0.52158  0.58124  0.72851  1.0000
  C   C6        1.0  0.47842  0.41877  0.27149  1.0000
  C   C7        1.0  0.45245  0.60417  0.81879  1.0000
  C   C8        1.0  0.54755  0.39583  0.18122  1.0000
  C   C9        1.0  0.25016  0.55926  0.81005  1.0000
  C   C10       1.0  0.74984  0.44073  0.18995  1.0000
  C   C11       1.0  0.12489  0.49135  0.71213  1.0000
  C   C12       1.0  0.87512  0.50865  0.28787  1.0000
  C   C13       1.0  0.20447  0.47288  0.62586  1.0000
  C   C14       1.0  0.79554  0.52713  0.37414  1.0000
  C   C15       1.0  0.59722  0.67590  0.92119  1.0000
  C   C16       1.0  0.40279  0.32409  0.07881  1.0000
  C   C17       1.0  0.99333  0.97948  0.85728  1.0000
  C   C18       1.0  0.00667  0.02050  0.14272  1.0000
  C   C19       1.0  0.74760  0.16036  0.83357  1.0000
  C   C20       1.0  0.25239  0.83963  0.16643  1.0000
  C   C21       1.0  0.42972  0.05043  0.71487  1.0000
  C   C22       1.0  0.57028  0.94957  0.28513  1.0000
  N   N1        1.0  0.32484  0.67648  0.43006  1.0000
  N   N2        1.0  0.67517  0.32353  0.56994  1.0000
  N   N3        1.0  0.15242  0.93322  0.44552  1.0000
  N   N4        1.0  0.84757  0.06680  0.55448  1.0000
  N   N5        1.0  0.22635  0.25519  0.42371  1.0000
  N   N6        1.0  0.77365  0.74484  0.57629  1.0000
  N   N7        1.0  0.39884  0.51852  0.63404  1.0000
  N   N8        1.0  0.60116  0.48149  0.36596  1.0000
  N   N9        1.0  0.53089  0.78418  0.98015  1.0000
  N   N10       1.0  0.46911  0.21582  0.01985  1.0000
  N   N11       1.0  0.15767  0.94237  0.88957  1.0000
  N   N12       1.0  0.84233  0.05763  0.11043  1.0000
  N   N13       1.0  0.80908  0.00742  0.81775  1.0000
  N   N14       1.0  0.19092  0.99256  0.18225  1.0000
  N   N15       1.0  0.85785  0.29794  0.89111  1.0000
  N   N16       1.0  0.14215  0.70205  0.10889  1.0000
  O   O1        1.0  0.77114  0.63197  0.94857  1.0000
  O   O2        1.0  0.22885  0.36802  0.05143  1.0000
  O   O3        1.0  0.55802  0.18524  0.78802  1.0000
  O   O4        1.0  0.44198  0.81476  0.21198  1.0000
