data_image0
_chemical_formula_structural       Li4H20C24O12
_chemical_formula_sum              "Li4 H20 C24 O12"
_cell_length_a       6.64441
_cell_length_b       7.49351
_cell_length_c       12.2991
_cell_angle_alpha    90.1616
_cell_angle_beta     105.697
_cell_angle_gamma    90.0097

_space_group_name_H-M_alt    "P 1"
_space_group_IT_number       1

loop_
  _space_group_symop_operation_xyz
  'x, y, z'

loop_
  _atom_site_type_symbol
  _atom_site_label
  _atom_site_symmetry_multiplicity
  _atom_site_fract_x
  _atom_site_fract_y
  _atom_site_fract_z
  _atom_site_occupancy
  Li  Li1       1.0  0.72414  0.40131  0.06495  1.0000
  Li  Li2       1.0  0.65932  0.09868  0.93508  1.0000
  Li  Li3       1.0  0.27586  0.59869  0.93506  1.0000
  Li  Li4       1.0  0.34068  0.90133  0.06492  1.0000
  H   H1        1.0  0.80452  0.71550  0.12246  1.0000
  H   H2        1.0  0.68199  0.78445  0.87750  1.0000
  H   H3        1.0  0.19548  0.28450  0.87754  1.0000
  H   H4        1.0  0.31801  0.21555  0.12250  1.0000
  H   H5        1.0  0.02400  0.63923  0.11481  1.0000
  H   H6        1.0  0.90909  0.86075  0.88516  1.0000
  H   H7        1.0  0.97600  0.36077  0.88519  1.0000
  H   H8        1.0  0.09091  0.13925  0.11484  1.0000
  H   H9        1.0  0.54463  0.28833  0.32143  1.0000
  H   H10       1.0  0.22332  0.21180  0.67857  1.0000
  H   H11       1.0  0.45538  0.71167  0.67857  1.0000
  H   H12       1.0  0.77668  0.78820  0.32143  1.0000
  H   H13       1.0  0.35481  0.85027  0.48781  1.0000
  H   H14       1.0  0.86711  0.64965  0.51219  1.0000
  H   H15       1.0  0.64519  0.14973  0.51219  1.0000
  H   H16       1.0  0.13289  0.35034  0.48781  1.0000
  H   H17       1.0  0.30372  0.82523  0.28122  1.0000
  H   H18       1.0  0.02247  0.67488  0.71876  1.0000
  H   H19       1.0  0.69627  0.17477  0.71878  1.0000
  H   H20       1.0  0.97753  0.32512  0.28124  1.0000
  C   C1        1.0  0.39637  0.53712  0.16494  1.0000
  C   C2        1.0  0.23147  0.96290  0.83518  1.0000
  C   C3        1.0  0.60363  0.46288  0.83507  1.0000
  C   C4        1.0  0.76853  0.03710  0.16482  1.0000
  C   C5        1.0  0.42112  0.55290  0.28910  1.0000
  C   C6        1.0  0.13217  0.94724  0.71096  1.0000
  C   C7        1.0  0.57887  0.44710  0.71090  1.0000
  C   C8        1.0  0.86783  0.05276  0.28904  1.0000
  C   C9        1.0  0.50168  0.40989  0.35847  1.0000
  C   C10       1.0  0.14335  0.09020  0.64156  1.0000
  C   C11       1.0  0.49832  0.59011  0.64153  1.0000
  C   C12       1.0  0.85665  0.90980  0.35844  1.0000
  C   C13       1.0  0.52764  0.41902  0.47627  1.0000
  C   C14       1.0  0.05144  0.08097  0.52374  1.0000
  C   C15       1.0  0.47236  0.58098  0.52373  1.0000
  C   C16       1.0  0.94856  0.91902  0.47626  1.0000
  C   C17       1.0  0.39332  0.72676  0.45101  1.0000
  C   C18       1.0  0.94218  0.77330  0.54900  1.0000
  C   C19       1.0  0.60667  0.27324  0.54899  1.0000
  C   C20       1.0  0.05782  0.22670  0.45100  1.0000
  C   C21       1.0  0.36534  0.71292  0.33632  1.0000
  C   C22       1.0  0.02892  0.78725  0.66369  1.0000
  C   C23       1.0  0.63465  0.28707  0.66367  1.0000
  C   C24       1.0  0.97108  0.21275  0.33631  1.0000
  O   O1        1.0  0.48375  0.40845  0.12776  1.0000
  O   O2        1.0  0.35562  0.09185  0.87250  1.0000
  O   O3        1.0  0.51626  0.59155  0.87224  1.0000
  O   O4        1.0  0.64438  0.90815  0.12750  1.0000
  O   O5        1.0  0.88619  0.60506  0.12416  1.0000
  O   O6        1.0  0.76192  0.89492  0.87578  1.0000
  O   O7        1.0  0.11381  0.39494  0.87584  1.0000
  O   O8        1.0  0.23808  0.10508  0.12422  1.0000
  O   O9        1.0  0.28419  0.65363  0.09895  1.0000
  O   O10       1.0  0.18553  0.84616  0.90108  1.0000
  O   O11       1.0  0.71581  0.34637  0.90105  1.0000
  O   O12       1.0  0.81447  0.15384  0.09892  1.0000
