data_image0
_chemical_formula_structural       Cu3H50C46N4O12
_chemical_formula_sum              "Cu3 H50 C46 N4 O12"
_cell_length_a       9.69557
_cell_length_b       10.9593
_cell_length_c       11.9983
_cell_angle_alpha    81.076
_cell_angle_beta     69.2828
_cell_angle_gamma    76.2402

_space_group_name_H-M_alt    "P 1"
_space_group_IT_number       1

loop_
  _space_group_symop_operation_xyz
  'x, y, z'

loop_
  _atom_site_type_symbol
  _atom_site_label
  _atom_site_symmetry_multiplicity
  _atom_site_fract_x
  _atom_site_fract_y
  _atom_site_fract_z
  _atom_site_occupancy
  Cu  Cu1       1.0  0.45181  0.40968  0.97697  1.0000
  Cu  Cu2       1.0  0.54820  0.59032  0.02303  1.0000
  Cu  Cu3       1.0  0.49999  0.00000  0.00000  1.0000
  H   H1        1.0  0.69276  0.17311  0.00641  1.0000
  H   H2        1.0  0.30724  0.82688  0.99359  1.0000
  H   H3        1.0  0.24736  0.59273  0.71413  1.0000
  H   H4        1.0  0.75266  0.40726  0.28586  1.0000
  H   H5        1.0  0.19313  0.72183  0.53831  1.0000
  H   H6        1.0  0.80688  0.27816  0.46170  1.0000
  H   H7        1.0  0.36824  0.01995  0.60368  1.0000
  H   H8        1.0  0.63177  0.98005  0.39633  1.0000
  H   H9        1.0  0.42083  0.89271  0.77737  1.0000
  H   H10       1.0  0.57918  0.10728  0.22264  1.0000
  H   H11       1.0  0.13306  0.96572  0.45425  1.0000
  H   H12       1.0  0.86694  0.03427  0.54576  1.0000
  H   H13       1.0  0.27485  0.05004  0.44063  1.0000
  H   H14       1.0  0.72515  0.94996  0.55938  1.0000
  H   H15       1.0  0.32147  0.91120  0.36638  1.0000
  H   H16       1.0  0.67854  0.08879  0.63362  1.0000
  H   H17       1.0  0.81714  0.26223  0.67836  1.0000
  H   H18       1.0  0.18286  0.73777  0.32164  1.0000
  H   H19       1.0  0.05482  0.20601  0.50960  1.0000
  H   H20       1.0  0.94518  0.79400  0.49039  1.0000
  H   H21       1.0  0.21789  0.51044  0.57412  1.0000
  H   H22       1.0  0.78212  0.48956  0.42586  1.0000
  H   H23       1.0  0.97941  0.56666  0.74428  1.0000
  H   H24       1.0  0.02061  0.43334  0.25571  1.0000
  H   H25       1.0  0.37186  0.23760  0.45879  1.0000
  H   H26       1.0  0.62813  0.76240  0.54120  1.0000
  H   H27       1.0  0.36122  0.39769  0.40453  1.0000
  H   H28       1.0  0.63879  0.60230  0.59546  1.0000
  H   H29       1.0  0.28094  0.29842  0.35175  1.0000
  H   H30       1.0  0.71907  0.70158  0.64824  1.0000
  H   H31       1.0  0.12328  0.12447  0.89738  1.0000
  H   H32       1.0  0.87671  0.87553  0.10262  1.0000
  H   H33       1.0  0.96270  0.20151  0.00724  1.0000
  H   H34       1.0  0.03729  0.79850  0.99275  1.0000
  H   H35       1.0  0.00613  0.26087  0.85467  1.0000
  H   H36       1.0  0.99386  0.73913  0.14532  1.0000
  H   H37       1.0  0.06906  0.95629  0.76481  1.0000
  H   H38       1.0  0.93093  0.04371  0.23518  1.0000
  H   H39       1.0  0.79381  0.75977  0.85304  1.0000
  H   H40       1.0  0.20617  0.24023  0.14697  1.0000
  H   H41       1.0  0.90076  0.81745  0.70859  1.0000
  H   H42       1.0  0.09923  0.18255  0.29142  1.0000
  H   H43       1.0  0.70095  0.86839  0.76536  1.0000
  H   H44       1.0  0.29904  0.13161  0.23464  1.0000
  H   H45       1.0  0.29943  0.35198  0.77675  1.0000
  H   H46       1.0  0.70057  0.64805  0.22324  1.0000
  H   H47       1.0  0.36384  0.21804  0.68862  1.0000
  H   H48       1.0  0.63609  0.78196  0.31140  1.0000
  H   H49       1.0  0.49274  0.30686  0.69553  1.0000
  H   H50       1.0  0.50726  0.69311  0.30445  1.0000
  C   C1        1.0  0.38339  0.64913  0.85340  1.0000
  C   C2        1.0  0.61663  0.35087  0.14661  1.0000
  C   C3        1.0  0.33824  0.73303  0.75642  1.0000
  C   C4        1.0  0.66177  0.26696  0.24358  1.0000
  C   C5        1.0  0.27260  0.68688  0.68876  1.0000
  C   C6        1.0  0.72742  0.31312  0.31125  1.0000
  C   C7        1.0  0.24356  0.75917  0.59061  1.0000
  C   C8        1.0  0.75644  0.24083  0.40939  1.0000
  C   C9        1.0  0.27921  0.87958  0.55698  1.0000
  C   C10       1.0  0.72080  0.12042  0.44303  1.0000
  C   C11       1.0  0.34169  0.92592  0.62694  1.0000
  C   C12       1.0  0.65831  0.07408  0.37307  1.0000
  C   C13       1.0  0.37098  0.85421  0.72573  1.0000
  C   C14       1.0  0.62903  0.14578  0.27428  1.0000
  C   C15       1.0  0.25060  0.95573  0.44941  1.0000
  C   C16       1.0  0.74941  0.04427  0.55060  1.0000
  C   C17       1.0  0.74133  0.45025  0.82284  1.0000
  C   C18       1.0  0.25869  0.54976  0.17716  1.0000
  C   C19       1.0  0.88322  0.41864  0.72078  1.0000
  C   C20       1.0  0.11679  0.58136  0.27921  1.0000
  C   C21       1.0  0.90526  0.31685  0.65425  1.0000
  C   C22       1.0  0.09475  0.68315  0.34575  1.0000
  C   C23       1.0  0.03869  0.28547  0.56069  1.0000
  C   C24       1.0  0.96130  0.71453  0.43930  1.0000
  C   C25       1.0  0.15323  0.35472  0.53052  1.0000
  C   C26       1.0  0.84677  0.64528  0.46946  1.0000
  C   C27       1.0  0.12949  0.45615  0.59761  1.0000
  C   C28       1.0  0.87052  0.54385  0.40237  1.0000
  C   C29       1.0  0.99686  0.48819  0.69184  1.0000
  C   C30       1.0  0.00316  0.51183  0.30815  1.0000
  C   C31       1.0  0.29862  0.32081  0.43111  1.0000
  C   C32       1.0  0.70139  0.67919  0.56887  1.0000
  C   C33       1.0  0.41637  0.18780  0.85332  1.0000
  C   C34       1.0  0.58360  0.81221  0.14669  1.0000
  C   C35       1.0  0.00631  0.17452  0.91496  1.0000
  C   C36       1.0  0.99368  0.82548  0.08503  1.0000
  C   C37       1.0  0.91603  0.09200  0.89607  1.0000
  C   C38       1.0  0.08396  0.90800  0.10392  1.0000
  C   C39       1.0  0.95692  0.99322  0.82286  1.0000
  C   C40       1.0  0.04307  0.00679  0.17714  1.0000
  C   C41       1.0  0.82459  0.94964  0.84092  1.0000
  C   C42       1.0  0.17539  0.05036  0.15908  1.0000
  C   C43       1.0  0.80429  0.84304  0.78891  1.0000
  C   C44       1.0  0.19570  0.15696  0.21109  1.0000
  C   C45       1.0  0.38984  0.27053  0.74679  1.0000
  C   C46       1.0  0.61013  0.72947  0.25323  1.0000
  N   N1        1.0  0.70888  0.01921  0.92061  1.0000
  N   N2        1.0  0.29112  0.98078  0.07939  1.0000
  N   N3        1.0  0.76610  0.10350  0.95367  1.0000
  N   N4        1.0  0.23388  0.89651  0.04634  1.0000
  O   O1        1.0  0.40299  0.23565  0.94691  1.0000
  O   O2        1.0  0.59696  0.76437  0.05311  1.0000
  O   O3        1.0  0.45513  0.06792  0.84411  1.0000
  O   O4        1.0  0.54485  0.93210  0.15591  1.0000
  O   O5        1.0  0.36560  0.53583  0.86763  1.0000
  O   O6        1.0  0.63444  0.46415  0.13237  1.0000
  O   O7        1.0  0.64343  0.38257  0.84195  1.0000
  O   O8        1.0  0.35660  0.61741  0.15807  1.0000
  O   O9        1.0  0.27085  0.45905  0.11681  1.0000
  O   O10       1.0  0.72917  0.54097  0.88317  1.0000
  O   O11       1.0  0.55873  0.30282  0.08672  1.0000
  O   O12       1.0  0.44126  0.69717  0.91330  1.0000
