data_image0
_chemical_formula_structural       NiH22C18N4O8
_chemical_formula_sum              "Ni1 H22 C18 N4 O8"
_cell_length_a       7.50267
_cell_length_b       8.27211
_cell_length_c       9.76078
_cell_angle_alpha    101.002
_cell_angle_beta     98.5347
_cell_angle_gamma    120.246

_space_group_name_H-M_alt    "P 1"
_space_group_IT_number       1

loop_
  _space_group_symop_operation_xyz
  'x, y, z'

loop_
  _atom_site_type_symbol
  _atom_site_label
  _atom_site_symmetry_multiplicity
  _atom_site_fract_x
  _atom_site_fract_y
  _atom_site_fract_z
  _atom_site_occupancy
  Ni  Ni1       1.0  0.50000  0.50000  0.50000  1.0000
  H   H1        1.0  0.56038  0.79367  0.88356  1.0000
  H   H2        1.0  0.43962  0.20633  0.11644  1.0000
  H   H3        1.0  0.28903  0.64246  0.47834  1.0000
  H   H4        1.0  0.71097  0.35754  0.52166  1.0000
  H   H5        1.0  0.37088  0.63683  0.32784  1.0000
  H   H6        1.0  0.62913  0.36317  0.67217  1.0000
  H   H7        1.0  0.77518  0.86981  0.49698  1.0000
  H   H8        1.0  0.22480  0.13018  0.50301  1.0000
  H   H9        1.0  0.89242  0.05220  0.63241  1.0000
  H   H10       1.0  0.10755  0.94779  0.36758  1.0000
  H   H11       1.0  0.13857  0.51123  0.86251  1.0000
  H   H12       1.0  0.86143  0.48876  0.13750  1.0000
  H   H13       1.0  0.29120  0.42762  0.94057  1.0000
  H   H14       1.0  0.70883  0.57238  0.05944  1.0000
  H   H15       1.0  0.63332  0.02942  0.36289  1.0000
  H   H16       1.0  0.36667  0.97058  0.63710  1.0000
  H   H17       1.0  0.97741  0.34542  0.50089  1.0000
  H   H18       1.0  0.02259  0.65459  0.49911  1.0000
  H   H19       1.0  0.18231  0.36505  0.11340  1.0000
  H   H20       1.0  0.81770  0.63495  0.88660  1.0000
  H   H21       1.0  0.85023  0.04340  0.97647  1.0000
  H   H22       1.0  0.14978  0.95660  0.02353  1.0000
  C   C1        1.0  0.30380  0.43885  0.72614  1.0000
  C   C2        1.0  0.69619  0.56115  0.27386  1.0000
  C   C3        1.0  0.29359  0.52271  0.87529  1.0000
  C   C4        1.0  0.70641  0.47728  0.12471  1.0000
  C   C5        1.0  0.51794  0.81017  0.09123  1.0000
  C   C6        1.0  0.48206  0.18983  0.90877  1.0000
  C   C7        1.0  0.71646  0.01127  0.16102  1.0000
  C   C8        1.0  0.28355  0.98873  0.83897  1.0000
  C   C9        1.0  0.75336  0.10305  0.30794  1.0000
  C   C10       1.0  0.24664  0.89695  0.69205  1.0000
  C   C11       1.0  0.94386  0.28241  0.38452  1.0000
  C   C12       1.0  0.05614  0.71759  0.61548  1.0000
  C   C13       1.0  0.10045  0.37612  0.31522  1.0000
  C   C14       1.0  0.89956  0.62389  0.68478  1.0000
  C   C15       1.0  0.06205  0.28881  0.16715  1.0000
  C   C16       1.0  0.93796  0.71119  0.83285  1.0000
  C   C17       1.0  0.87217  0.10778  0.09105  1.0000
  C   C18       1.0  0.12784  0.89223  0.90895  1.0000
  N   N1        1.0  0.47423  0.72290  0.94788  1.0000
  N   N2        1.0  0.52576  0.27709  0.05211  1.0000
  N   N3        1.0  0.30250  0.55574  0.39585  1.0000
  N   N4        1.0  0.69751  0.44427  0.60415  1.0000
  O   O1        1.0  0.44182  0.56815  0.67684  1.0000
  O   O2        1.0  0.55817  0.43184  0.32316  1.0000
  O   O3        1.0  0.18172  0.25775  0.66323  1.0000
  O   O4        1.0  0.81825  0.74224  0.33676  1.0000
  O   O5        1.0  0.39712  0.71986  0.16273  1.0000
  O   O6        1.0  0.60290  0.28015  0.83727  1.0000
  O   O7        1.0  0.74769  0.93659  0.57827  1.0000
  O   O8        1.0  0.25228  0.06341  0.42172  1.0000
