data_image0
_chemical_formula_structural       Na4H64C24S8N4O12
_chemical_formula_sum              "Na4 H64 C24 S8 N4 O12"
_cell_length_a       5.74657
_cell_length_b       13.9455
_cell_length_c       14.7415
_cell_angle_alpha    108.118
_cell_angle_beta     90.029
_cell_angle_gamma    101.871

_space_group_name_H-M_alt    "P 1"
_space_group_IT_number       1

loop_
  _space_group_symop_operation_xyz
  'x, y, z'

loop_
  _atom_site_type_symbol
  _atom_site_label
  _atom_site_symmetry_multiplicity
  _atom_site_fract_x
  _atom_site_fract_y
  _atom_site_fract_z
  _atom_site_occupancy
  Na  Na1       1.0  0.20742  0.44050  0.95084  1.0000
  Na  Na2       1.0  0.76689  0.55963  0.54921  1.0000
  Na  Na3       1.0  0.79258  0.55950  0.04916  1.0000
  Na  Na4       1.0  0.23312  0.44037  0.45079  1.0000
  H   H1        1.0  0.79024  0.33112  0.44381  1.0000
  H   H2        1.0  0.45926  0.66900  0.05630  1.0000
  H   H3        1.0  0.20977  0.66887  0.55619  1.0000
  H   H4        1.0  0.54074  0.33100  0.94370  1.0000
  H   H5        1.0  0.87789  0.23858  0.87572  1.0000
  H   H6        1.0  0.63946  0.76158  0.62441  1.0000
  H   H7        1.0  0.12211  0.76142  0.12428  1.0000
  H   H8        1.0  0.36052  0.23841  0.37560  1.0000
  H   H9        1.0  0.15041  0.23256  0.87421  1.0000
  H   H10       1.0  0.91800  0.76755  0.62580  1.0000
  H   H11       1.0  0.84958  0.76744  0.12580  1.0000
  H   H12       1.0  0.08199  0.23245  0.37420  1.0000
  H   H13       1.0  0.23288  0.54459  0.15090  1.0000
  H   H14       1.0  0.68809  0.45537  0.34922  1.0000
  H   H15       1.0  0.76713  0.45541  0.84910  1.0000
  H   H16       1.0  0.31191  0.54463  0.65078  1.0000
  H   H17       1.0  0.02442  0.45378  0.15112  1.0000
  H   H18       1.0  0.57051  0.54620  0.34887  1.0000
  H   H19       1.0  0.97558  0.54622  0.84888  1.0000
  H   H20       1.0  0.42948  0.45380  0.65113  1.0000
  H   H21       1.0  0.45352  0.30363  0.57730  1.0000
  H   H22       1.0  0.15038  0.69655  0.92249  1.0000
  H   H23       1.0  0.54649  0.69637  0.42270  1.0000
  H   H24       1.0  0.84962  0.30345  0.07752  1.0000
  H   H25       1.0  0.56774  0.20089  0.50277  1.0000
  H   H26       1.0  0.36695  0.79941  0.99719  1.0000
  H   H27       1.0  0.43225  0.79911  0.49724  1.0000
  H   H28       1.0  0.63304  0.20059  0.00281  1.0000
  H   H29       1.0  0.87297  0.39559  0.64796  1.0000
  H   H30       1.0  0.47861  0.60485  0.85219  1.0000
  H   H31       1.0  0.12705  0.60441  0.35204  1.0000
  H   H32       1.0  0.52139  0.39516  0.14782  1.0000
  H   H33       1.0  0.98418  0.29332  0.56761  1.0000
  H   H34       1.0  0.69144  0.70714  0.93289  1.0000
  H   H35       1.0  0.01583  0.70668  0.43239  1.0000
  H   H36       1.0  0.30856  0.29287  0.06711  1.0000
  H   H37       1.0  0.59720  0.07514  0.54121  1.0000
  H   H38       1.0  0.52257  0.92509  0.95870  1.0000
  H   H39       1.0  0.40280  0.92486  0.45879  1.0000
  H   H40       1.0  0.47742  0.07491  0.04130  1.0000
  H   H41       1.0  0.50828  0.06113  0.65301  1.0000
  H   H42       1.0  0.44766  0.93905  0.84685  1.0000
  H   H43       1.0  0.49172  0.93887  0.34699  1.0000
  H   H44       1.0  0.55234  0.06096  0.15315  1.0000
  H   H45       1.0  0.92870  0.14757  0.72314  1.0000
  H   H46       1.0  0.78155  0.85250  0.77687  1.0000
  H   H47       1.0  0.07130  0.85243  0.27685  1.0000
  H   H48       1.0  0.21845  0.14750  0.22313  1.0000
  H   H49       1.0  0.01565  0.14741  0.60847  1.0000
  H   H50       1.0  0.86863  0.85267  0.89160  1.0000
  H   H51       1.0  0.98435  0.85259  0.39153  1.0000
  H   H52       1.0  0.13136  0.14733  0.10840  1.0000
  H   H53       1.0  0.08913  0.99032  0.65051  1.0000
  H   H54       1.0  0.09928  0.00974  0.84955  1.0000
  H   H55       1.0  0.91089  0.00968  0.34949  1.0000
  H   H56       1.0  0.90072  0.99025  0.15044  1.0000
  H   H57       1.0  0.88894  0.95232  0.54732  1.0000
  H   H58       1.0  0.93711  0.04778  0.95267  1.0000
  H   H59       1.0  0.11106  0.04769  0.45267  1.0000
  H   H60       1.0  0.06289  0.95222  0.04733  1.0000
  H   H61       1.0  0.77850  0.95268  0.65942  1.0000
  H   H62       1.0  0.82624  0.04738  0.84053  1.0000
  H   H63       1.0  0.22151  0.04732  0.34057  1.0000
  H   H64       1.0  0.17376  0.95261  0.15947  1.0000
  C   C1        1.0  0.50961  0.25674  0.73411  1.0000
  C   C2        1.0  0.25333  0.74345  0.76580  1.0000
  C   C3        1.0  0.49039  0.74326  0.26589  1.0000
  C   C4        1.0  0.74667  0.25655  0.23420  1.0000
  C   C5        1.0  0.59732  0.26194  0.57236  1.0000
  C   C6        1.0  0.33581  0.73833  0.92762  1.0000
  C   C7        1.0  0.40269  0.73806  0.42764  1.0000
  C   C8        1.0  0.66419  0.26167  0.07238  1.0000
  C   C9        1.0  0.83855  0.33530  0.57781  1.0000
  C   C10       1.0  0.50389  0.66505  0.92238  1.0000
  C   C11       1.0  0.16145  0.66469  0.42219  1.0000
  C   C12       1.0  0.49610  0.33495  0.07762  1.0000
  C   C13       1.0  0.63320  0.10840  0.61915  1.0000
  C   C14       1.0  0.52532  0.89180  0.88078  1.0000
  C   C15       1.0  0.36680  0.89161  0.38085  1.0000
  C   C16       1.0  0.47467  0.10820  0.11923  1.0000
  C   C17       1.0  0.88811  0.10600  0.64645  1.0000
  C   C18       1.0  0.78257  0.89409  0.85356  1.0000
  C   C19       1.0  0.11190  0.89400  0.35354  1.0000
  C   C20       1.0  0.21743  0.10591  0.14644  1.0000
  C   C21       1.0  0.91361  0.99445  0.62447  1.0000
  C   C22       1.0  0.91962  0.00563  0.87554  1.0000
  C   C23       1.0  0.08639  0.00555  0.37552  1.0000
  C   C24       1.0  0.08039  0.99437  0.12446  1.0000
  S   S1        1.0  0.43635  0.37565  0.76193  1.0000
  S   S2        1.0  0.06121  0.62453  0.73799  1.0000
  S   S3        1.0  0.56365  0.62434  0.23807  1.0000
  S   S4        1.0  0.93880  0.37547  0.26201  1.0000
  S   S5        1.0  0.49006  0.19189  0.81735  1.0000
  S   S6        1.0  0.29851  0.80824  0.68251  1.0000
  S   S7        1.0  0.50994  0.80811  0.18266  1.0000
  S   S8        1.0  0.70148  0.19176  0.31749  1.0000
  N   N1        1.0  0.57893  0.21165  0.64631  1.0000
  N   N2        1.0  0.36783  0.78856  0.85362  1.0000
  N   N3        1.0  0.42107  0.78835  0.35369  1.0000
  N   N4        1.0  0.63217  0.21144  0.14638  1.0000
  O   O1        1.0  0.83736  0.38655  0.50691  1.0000
  O   O2        1.0  0.45104  0.61365  0.99314  1.0000
  O   O3        1.0  0.16265  0.61344  0.49309  1.0000
  O   O4        1.0  0.54897  0.38636  0.00686  1.0000
  O   O5        1.0  0.03267  0.26682  0.91325  1.0000
  O   O6        1.0  0.76584  0.73329  0.58682  1.0000
  O   O7        1.0  0.96732  0.73318  0.08675  1.0000
  O   O8        1.0  0.23415  0.26670  0.41318  1.0000
  O   O9        1.0  0.08720  0.49878  0.11208  1.0000
  O   O10       1.0  0.58830  0.50124  0.38799  1.0000
  O   O11       1.0  0.91280  0.50122  0.88792  1.0000
  O   O12       1.0  0.41170  0.49876  0.61201  1.0000
