data_image0
_chemical_formula_structural       Zn8H24C20N32O12
_chemical_formula_sum              "Zn8 H24 C20 N32 O12"
_cell_length_a       9.83473
_cell_length_b       9.77244
_cell_length_c       16.2681
_cell_angle_alpha    89.9998
_cell_angle_beta     90
_cell_angle_gamma    89.9996

_space_group_name_H-M_alt    "P 1"
_space_group_IT_number       1

loop_
  _space_group_symop_operation_xyz
  'x, y, z'

loop_
  _atom_site_type_symbol
  _atom_site_label
  _atom_site_symmetry_multiplicity
  _atom_site_fract_x
  _atom_site_fract_y
  _atom_site_fract_z
  _atom_site_occupancy
  Zn  Zn1       1.0  0.07010  0.87718  0.42387  1.0000
  Zn  Zn2       1.0  0.57010  0.62282  0.57613  1.0000
  Zn  Zn3       1.0  0.92990  0.12282  0.92387  1.0000
  Zn  Zn4       1.0  0.42990  0.37718  0.07613  1.0000
  Zn  Zn5       1.0  0.92990  0.12282  0.57613  1.0000
  Zn  Zn6       1.0  0.42990  0.37718  0.42387  1.0000
  Zn  Zn7       1.0  0.07010  0.87718  0.07613  1.0000
  Zn  Zn8       1.0  0.57010  0.62282  0.92387  1.0000
  H   H1        1.0  0.29345  0.99288  0.32132  1.0000
  H   H2        1.0  0.79345  0.50712  0.67868  1.0000
  H   H3        1.0  0.70655  0.00712  0.82132  1.0000
  H   H4        1.0  0.20654  0.49288  0.17868  1.0000
  H   H5        1.0  0.70655  0.00712  0.67868  1.0000
  H   H6        1.0  0.20655  0.49288  0.32132  1.0000
  H   H7        1.0  0.29345  0.99288  0.17868  1.0000
  H   H8        1.0  0.79345  0.50712  0.82132  1.0000
  H   H9        1.0  0.41207  0.12483  0.33542  1.0000
  H   H10       1.0  0.91206  0.37517  0.66457  1.0000
  H   H11       1.0  0.58794  0.87517  0.83543  1.0000
  H   H12       1.0  0.08794  0.62483  0.16457  1.0000
  H   H13       1.0  0.58793  0.87517  0.66457  1.0000
  H   H14       1.0  0.08794  0.62483  0.33543  1.0000
  H   H15       1.0  0.41206  0.12483  0.16457  1.0000
  H   H16       1.0  0.91206  0.37517  0.83543  1.0000
  H   H17       1.0  0.16401  0.34471  0.54679  1.0000
  H   H18       1.0  0.66401  0.15529  0.45321  1.0000
  H   H19       1.0  0.83600  0.65528  0.04679  1.0000
  H   H20       1.0  0.33599  0.84471  0.95321  1.0000
  H   H21       1.0  0.83599  0.65529  0.45321  1.0000
  H   H22       1.0  0.33600  0.84472  0.54679  1.0000
  H   H23       1.0  0.16400  0.34472  0.95321  1.0000
  H   H24       1.0  0.66401  0.15529  0.04680  1.0000
  C   C1        1.0  0.25929  0.11906  0.41639  1.0000
  C   C2        1.0  0.75928  0.38094  0.58360  1.0000
  C   C3        1.0  0.74072  0.88094  0.91640  1.0000
  C   C4        1.0  0.24072  0.61906  0.08360  1.0000
  C   C5        1.0  0.74072  0.88094  0.58360  1.0000
  C   C6        1.0  0.24072  0.61907  0.41640  1.0000
  C   C7        1.0  0.25927  0.11907  0.08360  1.0000
  C   C8        1.0  0.75928  0.38094  0.91640  1.0000
  C   C9        1.0  0.17790  0.25730  0.50651  1.0000
  C   C10       1.0  0.67789  0.24270  0.49349  1.0000
  C   C11       1.0  0.82211  0.74270  0.00650  1.0000
  C   C12       1.0  0.32210  0.75730  0.99349  1.0000
  C   C13       1.0  0.82211  0.74270  0.49349  1.0000
  C   C14       1.0  0.32211  0.75730  0.50651  1.0000
  C   C15       1.0  0.17788  0.25730  0.99350  1.0000
  C   C16       1.0  0.67789  0.24270  0.00651  1.0000
  C   C17       1.0  0.06275  0.84878  0.25000  1.0000
  C   C18       1.0  0.56275  0.65123  0.75000  1.0000
  C   C19       1.0  0.93725  0.15123  0.75000  1.0000
  C   C20       1.0  0.43726  0.34877  0.25000  1.0000
  N   N1        1.0  0.14437  0.06210  0.44583  1.0000
  N   N2        1.0  0.64437  0.43790  0.55417  1.0000
  N   N3        1.0  0.85563  0.93790  0.94583  1.0000
  N   N4        1.0  0.35563  0.56210  0.05417  1.0000
  N   N5        1.0  0.85563  0.93790  0.55417  1.0000
  N   N6        1.0  0.35563  0.56211  0.44583  1.0000
  N   N7        1.0  0.14437  0.06211  0.05417  1.0000
  N   N8        1.0  0.64437  0.43790  0.94584  1.0000
  N   N9        1.0  0.09318  0.15233  0.50397  1.0000
  N   N10       1.0  0.59318  0.34766  0.49603  1.0000
  N   N11       1.0  0.90682  0.84766  0.00397  1.0000
  N   N12       1.0  0.40682  0.65233  0.99603  1.0000
  N   N13       1.0  0.90682  0.84767  0.49603  1.0000
  N   N14       1.0  0.40682  0.65234  0.50397  1.0000
  N   N15       1.0  0.09318  0.15234  0.99603  1.0000
  N   N16       1.0  0.59318  0.34766  0.00397  1.0000
  N   N17       1.0  0.28282  0.24230  0.45340  1.0000
  N   N18       1.0  0.78281  0.25770  0.54660  1.0000
  N   N19       1.0  0.71719  0.75770  0.95340  1.0000
  N   N20       1.0  0.21719  0.74230  0.04660  1.0000
  N   N21       1.0  0.71719  0.75770  0.54660  1.0000
  N   N22       1.0  0.21719  0.74230  0.45340  1.0000
  N   N23       1.0  0.28281  0.24230  0.04660  1.0000
  N   N24       1.0  0.78281  0.25770  0.95340  1.0000
  N   N25       1.0  0.34245  0.05938  0.36083  1.0000
  N   N26       1.0  0.84245  0.44062  0.63918  1.0000
  N   N27       1.0  0.65755  0.94062  0.86083  1.0000
  N   N28       1.0  0.15755  0.55937  0.13918  1.0000
  N   N29       1.0  0.65755  0.94062  0.63917  1.0000
  N   N30       1.0  0.15755  0.55938  0.36082  1.0000
  N   N31       1.0  0.34245  0.05938  0.13918  1.0000
  N   N32       1.0  0.84245  0.44062  0.86083  1.0000
  O   O1        1.0  0.00273  0.80987  0.31821  1.0000
  O   O2        1.0  0.50272  0.69013  0.68179  1.0000
  O   O3        1.0  0.99727  0.19013  0.81822  1.0000
  O   O4        1.0  0.49727  0.30987  0.18178  1.0000
  O   O5        1.0  0.99728  0.19013  0.68179  1.0000
  O   O6        1.0  0.49728  0.30987  0.31821  1.0000
  O   O7        1.0  0.00273  0.80987  0.18178  1.0000
  O   O8        1.0  0.50273  0.69014  0.81822  1.0000
  O   O9        1.0  0.17317  0.91681  0.25000  1.0000
  O   O10       1.0  0.67317  0.58319  0.75000  1.0000
  O   O11       1.0  0.82683  0.08319  0.75000  1.0000
  O   O12       1.0  0.32683  0.41681  0.25000  1.0000
