data_image0
_chemical_formula_structural       Zn8H32C22N32O18
_chemical_formula_sum              "Zn8 H32 C22 N32 O18"
_cell_length_a       9.13154
_cell_length_b       9.57862
_cell_length_c       17.5632
_cell_angle_alpha    94.4212
_cell_angle_beta     105.04
_cell_angle_gamma    89.995

_space_group_name_H-M_alt    "P 1"
_space_group_IT_number       1

loop_
  _space_group_symop_operation_xyz
  'x, y, z'

loop_
  _atom_site_type_symbol
  _atom_site_label
  _atom_site_symmetry_multiplicity
  _atom_site_fract_x
  _atom_site_fract_y
  _atom_site_fract_z
  _atom_site_occupancy
  Zn  Zn1       1.0  0.62119  0.23655  0.83467  1.0000
  Zn  Zn2       1.0  0.78648  0.26335  0.16528  1.0000
  Zn  Zn3       1.0  0.37880  0.76345  0.16533  1.0000
  Zn  Zn4       1.0  0.21352  0.73665  0.83472  1.0000
  Zn  Zn5       1.0  0.62087  0.44522  0.65891  1.0000
  Zn  Zn6       1.0  0.96172  0.05483  0.34109  1.0000
  Zn  Zn7       1.0  0.37913  0.55478  0.34109  1.0000
  Zn  Zn8       1.0  0.03828  0.94517  0.65891  1.0000
  H   H1        1.0  0.45367  0.36124  0.94437  1.0000
  H   H2        1.0  0.50974  0.13871  0.05565  1.0000
  H   H3        1.0  0.54633  0.63876  0.05563  1.0000
  H   H4        1.0  0.49026  0.86129  0.94435  1.0000
  H   H5        1.0  0.34538  0.50872  0.94780  1.0000
  H   H6        1.0  0.39796  0.99125  0.05224  1.0000
  H   H7        1.0  0.65462  0.49128  0.05220  1.0000
  H   H8        1.0  0.60205  0.00875  0.94776  1.0000
  H   H9        1.0  0.97086  0.94352  0.82271  1.0000
  H   H10       1.0  0.14804  0.55649  0.17715  1.0000
  H   H11       1.0  0.02915  0.05648  0.17729  1.0000
  H   H12       1.0  0.85195  0.44351  0.82284  1.0000
  H   H13       1.0  0.89040  0.06434  0.87863  1.0000
  H   H14       1.0  0.01187  0.43562  0.12122  1.0000
  H   H15       1.0  0.10960  0.93566  0.12137  1.0000
  H   H16       1.0  0.98813  0.56438  0.87878  1.0000
  H   H17       1.0  0.39371  0.67244  0.70682  1.0000
  H   H18       1.0  0.68671  0.82756  0.29331  1.0000
  H   H19       1.0  0.60628  0.32755  0.29318  1.0000
  H   H20       1.0  0.31329  0.17244  0.70669  1.0000
  H   H21       1.0  0.81662  0.20137  0.58953  1.0000
  H   H22       1.0  0.22638  0.29891  0.41043  1.0000
  H   H23       1.0  0.18338  0.79863  0.41047  1.0000
  H   H24       1.0  0.77362  0.70109  0.58957  1.0000
  H   H25       1.0  0.28018  0.21270  0.58496  1.0000
  H   H26       1.0  0.69486  0.28727  0.41492  1.0000
  H   H27       1.0  0.71981  0.78730  0.41504  1.0000
  H   H28       1.0  0.30515  0.71273  0.58508  1.0000
  H   H29       1.0  0.44119  0.19830  0.57198  1.0000
  H   H30       1.0  0.86888  0.30130  0.42801  1.0000
  H   H31       1.0  0.55880  0.80170  0.42802  1.0000
  H   H32       1.0  0.13113  0.69870  0.57199  1.0000
  C   C1        1.0  0.41834  0.47900  0.84978  1.0000
  C   C2        1.0  0.56888  0.02084  0.15022  1.0000
  C   C3        1.0  0.58166  0.52100  0.15022  1.0000
  C   C4        1.0  0.43113  0.97917  0.84977  1.0000
  C   C5        1.0  0.41951  0.59477  0.74988  1.0000
  C   C6        1.0  0.66962  0.90512  0.25017  1.0000
  C   C7        1.0  0.58049  0.40523  0.25011  1.0000
  C   C8        1.0  0.33038  0.09489  0.74983  1.0000
  C   C9        1.0  0.85136  0.10060  0.76250  1.0000
  C   C10       1.0  0.08859  0.39950  0.23740  1.0000
  C   C11       1.0  0.14864  0.89940  0.23750  1.0000
  C   C12       1.0  0.91141  0.60050  0.76260  1.0000
  C   C13       1.0  0.81218  0.18321  0.64911  1.0000
  C   C14       1.0  0.16249  0.31700  0.35082  1.0000
  C   C15       1.0  0.18782  0.81679  0.35088  1.0000
  C   C16       1.0  0.83751  0.68300  0.64918  1.0000
  C   C17       1.0  0.74179  0.24992  0.99997  1.0000
  C   C18       1.0  0.25820  0.75007  0.00002  1.0000
  C   C19       1.0  0.45068  0.55922  0.51180  1.0000
  C   C20       1.0  0.93891  0.94078  0.48822  1.0000
  C   C21       1.0  0.54933  0.44078  0.48819  1.0000
  C   C22       1.0  0.06110  0.05921  0.51178  1.0000
  N   N1        1.0  0.51363  0.41487  0.81202  1.0000
  N   N2        1.0  0.70180  0.08498  0.18803  1.0000
  N   N3        1.0  0.48637  0.58513  0.18798  1.0000
  N   N4        1.0  0.29820  0.91502  0.81197  1.0000
  N   N5        1.0  0.51182  0.48952  0.74700  1.0000
  N   N6        1.0  0.76481  0.01037  0.25307  1.0000
  N   N7        1.0  0.48818  0.51048  0.25300  1.0000
  N   N8        1.0  0.23519  0.98963  0.74693  1.0000
  N   N9        1.0  0.35791  0.59311  0.81241  1.0000
  N   N10       1.0  0.54567  0.90676  0.18761  1.0000
  N   N11       1.0  0.64208  0.40689  0.18759  1.0000
  N   N12       1.0  0.45433  0.09323  0.81239  1.0000
  N   N13       1.0  0.38217  0.43311  0.91381  1.0000
  N   N14       1.0  0.46885  0.06674  0.08619  1.0000
  N   N15       1.0  0.61783  0.56689  0.08619  1.0000
  N   N16       1.0  0.53115  0.93326  0.91381  1.0000
  N   N17       1.0  0.75309  0.20592  0.76115  1.0000
  N   N18       1.0  0.99172  0.29417  0.23875  1.0000
  N   N19       1.0  0.24691  0.79408  0.23885  1.0000
  N   N20       1.0  0.00828  0.70583  0.76125  1.0000
  N   N21       1.0  0.72839  0.25823  0.68772  1.0000
  N   N22       1.0  0.04028  0.24190  0.31221  1.0000
  N   N23       1.0  0.27162  0.74177  0.31228  1.0000
  N   N24       1.0  0.95972  0.75810  0.68779  1.0000
  N   N25       1.0  0.89092  0.08355  0.69295  1.0000
  N   N26       1.0  0.19753  0.41662  0.30698  1.0000
  N   N27       1.0  0.10908  0.91646  0.30705  1.0000
  N   N28       1.0  0.80247  0.58338  0.69302  1.0000
  N   N29       1.0  0.89690  0.02152  0.82477  1.0000
  N   N30       1.0  0.07207  0.47847  0.17509  1.0000
  N   N31       1.0  0.10310  0.97848  0.17523  1.0000
  N   N32       1.0  0.92793  0.52153  0.82491  1.0000
  O   O1        1.0  0.78273  0.23160  0.93407  1.0000
  O   O2        1.0  0.84868  0.26804  0.06583  1.0000
  O   O3        1.0  0.21726  0.76837  0.06593  1.0000
  O   O4        1.0  0.15131  0.73197  0.93417  1.0000
  O   O5        1.0  0.60064  0.25013  0.00002  1.0000
  O   O6        1.0  0.39935  0.74988  0.99997  1.0000
  O   O7        1.0  0.46650  0.58983  0.58517  1.0000
  O   O8        1.0  0.88129  0.91019  0.41488  1.0000
  O   O9        1.0  0.53351  0.41018  0.41484  1.0000
  O   O10       1.0  0.11870  0.08980  0.58512  1.0000
  O   O11       1.0  0.36109  0.61755  0.45651  1.0000
  O   O12       1.0  0.90477  0.88238  0.54355  1.0000
  O   O13       1.0  0.63892  0.38245  0.54349  1.0000
  O   O14       1.0  0.09524  0.11762  0.45645  1.0000
  O   O15       1.0  0.37701  0.26458  0.59216  1.0000
  O   O16       1.0  0.78444  0.23514  0.40783  1.0000
  O   O17       1.0  0.62299  0.73541  0.40785  1.0000
  O   O18       1.0  0.21556  0.76486  0.59217  1.0000
