data_image0
_chemical_formula_structural       Zn4H20C16N16O8
_chemical_formula_sum              "Zn4 H20 C16 N16 O8"
_cell_length_a       8.30011
_cell_length_b       9.30913
_cell_length_c       11.9811
_cell_angle_alpha    109.91
_cell_angle_beta     110.256
_cell_angle_gamma    89.9999

_space_group_name_H-M_alt    "P 1"
_space_group_IT_number       1

loop_
  _space_group_symop_operation_xyz
  'x, y, z'

loop_
  _atom_site_type_symbol
  _atom_site_label
  _atom_site_symmetry_multiplicity
  _atom_site_fract_x
  _atom_site_fract_y
  _atom_site_fract_z
  _atom_site_occupancy
  Zn  Zn1       1.0  0.41054  0.03279  0.34759  1.0000
  Zn  Zn2       1.0  0.06294  0.46724  0.65248  1.0000
  Zn  Zn3       1.0  0.58946  0.96721  0.65241  1.0000
  Zn  Zn4       1.0  0.93706  0.53276  0.34752  1.0000
  H   H1        1.0  0.01664  0.60505  0.12976  1.0000
  H   H2        1.0  0.88691  0.89500  0.87029  1.0000
  H   H3        1.0  0.98336  0.39495  0.87024  1.0000
  H   H4        1.0  0.11309  0.10500  0.12971  1.0000
  H   H5        1.0  0.14237  0.75649  0.12852  1.0000
  H   H6        1.0  0.01382  0.74354  0.87146  1.0000
  H   H7        1.0  0.85763  0.24351  0.87148  1.0000
  H   H8        1.0  0.98618  0.25646  0.12854  1.0000
  H   H9        1.0  0.25396  0.74267  0.58325  1.0000
  H   H10       1.0  0.67077  0.75729  0.41675  1.0000
  H   H11       1.0  0.74603  0.25733  0.41675  1.0000
  H   H12       1.0  0.32923  0.24270  0.58325  1.0000
  H   H13       1.0  0.30791  0.01165  0.92935  1.0000
  H   H14       1.0  0.37854  0.48831  0.07067  1.0000
  H   H15       1.0  0.69209  0.98835  0.07065  1.0000
  H   H16       1.0  0.62146  0.51169  0.92933  1.0000
  H   H17       1.0  0.39183  0.83910  0.92382  1.0000
  H   H18       1.0  0.46794  0.66087  0.07619  1.0000
  H   H19       1.0  0.60817  0.16090  0.07618  1.0000
  H   H20       1.0  0.53206  0.33913  0.92381  1.0000
  C   C1        1.0  0.18201  0.74687  0.30369  1.0000
  C   C2        1.0  0.87827  0.75316  0.69631  1.0000
  C   C3        1.0  0.81799  0.25313  0.69631  1.0000
  C   C4        1.0  0.12173  0.24684  0.30369  1.0000
  C   C5        1.0  0.25262  0.76143  0.49834  1.0000
  C   C6        1.0  0.75426  0.73849  0.50164  1.0000
  C   C7        1.0  0.74738  0.23857  0.50166  1.0000
  C   C8        1.0  0.24575  0.26151  0.49835  1.0000
  C   C9        1.0  0.37164  0.96848  0.10137  1.0000
  C   C10       1.0  0.27029  0.53147  0.89866  1.0000
  C   C11       1.0  0.62836  0.03152  0.89862  1.0000
  C   C12       1.0  0.72971  0.46852  0.10134  1.0000
  C   C13       1.0  0.41035  0.96148  0.98523  1.0000
  C   C14       1.0  0.42510  0.53849  0.01479  1.0000
  C   C15       1.0  0.58965  0.03852  0.01477  1.0000
  C   C16       1.0  0.57490  0.46151  0.98521  1.0000
  N   N1        1.0  0.32507  0.85246  0.37502  1.0000
  N   N2        1.0  0.95004  0.64756  0.62498  1.0000
  N   N3        1.0  0.67493  0.14754  0.62498  1.0000
  N   N4        1.0  0.04996  0.35244  0.37502  1.0000
  N   N5        1.0  0.36708  0.86184  0.50048  1.0000
  N   N6        1.0  0.86661  0.63813  0.49951  1.0000
  N   N7        1.0  0.63292  0.13815  0.49952  1.0000
  N   N8        1.0  0.13339  0.36187  0.50049  1.0000
  N   N9        1.0  0.13434  0.68696  0.37922  1.0000
  N   N10       1.0  0.75506  0.81302  0.62078  1.0000
  N   N11       1.0  0.86566  0.31304  0.62078  1.0000
  N   N12       1.0  0.24494  0.18698  0.37922  1.0000
  N   N13       1.0  0.09528  0.70857  0.17798  1.0000
  N   N14       1.0  0.91725  0.79144  0.82204  1.0000
  N   N15       1.0  0.90472  0.29143  0.82202  1.0000
  N   N16       1.0  0.08275  0.20856  0.17796  1.0000
  O   O1        1.0  0.21940  0.92692  0.08849  1.0000
  O   O2        1.0  0.13095  0.57304  0.91159  1.0000
  O   O3        1.0  0.78060  0.07308  0.91151  1.0000
  O   O4        1.0  0.86905  0.42696  0.08841  1.0000
  O   O5        1.0  0.49803  0.01828  0.21105  1.0000
  O   O6        1.0  0.28700  0.48158  0.78896  1.0000
  O   O7        1.0  0.50197  0.98172  0.78895  1.0000
  O   O8        1.0  0.71300  0.51842  0.21104  1.0000
