data_image0
_chemical_formula_structural       K4Gd4H16C20O36
_chemical_formula_sum              "K4 Gd4 H16 C20 O36"
_cell_length_a       7.2415
_cell_length_b       8.93102
_cell_length_c       16.3874
_cell_angle_alpha    89.9998
_cell_angle_beta     89.9998
_cell_angle_gamma    89.9999

_space_group_name_H-M_alt    "P 1"
_space_group_IT_number       1

loop_
  _space_group_symop_operation_xyz
  'x, y, z'

loop_
  _atom_site_type_symbol
  _atom_site_label
  _atom_site_symmetry_multiplicity
  _atom_site_fract_x
  _atom_site_fract_y
  _atom_site_fract_z
  _atom_site_occupancy
  K   K1        1.0  0.00000  0.03282  0.22590  1.0000
  K   K2        1.0  1.00000  0.96718  0.77410  1.0000
  K   K3        1.0  0.00000  0.46718  0.72590  1.0000
  K   K4        1.0  0.00000  0.53282  0.27410  1.0000
  Gd  Gd1       1.0  0.50000  0.98634  0.11945  1.0000
  Gd  Gd2       1.0  0.50000  0.01366  0.88055  1.0000
  Gd  Gd3       1.0  0.50000  0.51366  0.61945  1.0000
  Gd  Gd4       1.0  0.50000  0.48634  0.38055  1.0000
  H   H1        1.0  0.10528  0.24000  0.38590  1.0000
  H   H2        1.0  0.10528  0.76000  0.61410  1.0000
  H   H3        1.0  0.89471  0.26001  0.88590  1.0000
  H   H4        1.0  0.89472  0.74001  0.11410  1.0000
  H   H5        1.0  0.89473  0.75999  0.61410  1.0000
  H   H6        1.0  0.89472  0.24000  0.38590  1.0000
  H   H7        1.0  0.10528  0.74001  0.11410  1.0000
  H   H8        1.0  0.10527  0.26000  0.88590  1.0000
  H   H9        1.0  0.62091  0.57262  0.93303  1.0000
  H   H10       1.0  0.62090  0.42739  0.06697  1.0000
  H   H11       1.0  0.37909  0.92739  0.43303  1.0000
  H   H12       1.0  0.37910  0.07262  0.56697  1.0000
  H   H13       1.0  0.37910  0.42738  0.06697  1.0000
  H   H14       1.0  0.37909  0.57262  0.93303  1.0000
  H   H15       1.0  0.62090  0.07262  0.56697  1.0000
  H   H16       1.0  0.62091  0.92738  0.43303  1.0000
  C   C1        1.0  0.10883  1.00000  0.00000  1.0000
  C   C2        1.0  0.89116  0.50000  0.50000  1.0000
  C   C3        1.0  0.89117  1.00000  0.00000  1.0000
  C   C4        1.0  0.10884  0.50000  0.50000  1.0000
  C   C5        1.0  0.39341  0.77568  0.27151  1.0000
  C   C6        1.0  0.39340  0.22432  0.72849  1.0000
  C   C7        1.0  0.60659  0.72430  0.77150  1.0000
  C   C8        1.0  0.60660  0.27569  0.22850  1.0000
  C   C9        1.0  0.60660  0.22432  0.72849  1.0000
  C   C10       1.0  0.60660  0.77568  0.27151  1.0000
  C   C11       1.0  0.39341  0.27569  0.22850  1.0000
  C   C12       1.0  0.39340  0.72431  0.77150  1.0000
  C   C13       1.0  0.50000  0.71270  0.02268  1.0000
  C   C14       1.0  0.50000  0.28730  0.97733  1.0000
  C   C15       1.0  0.50000  0.78730  0.52267  1.0000
  C   C16       1.0  0.50000  0.21270  0.47732  1.0000
  C   C17       1.0  0.50000  0.57018  0.97369  1.0000
  C   C18       1.0  0.50000  0.42981  0.02631  1.0000
  C   C19       1.0  0.50000  0.92982  0.47369  1.0000
  C   C20       1.0  0.50000  0.07020  0.52631  1.0000
  O   O1        1.0  0.18694  0.96445  0.06648  1.0000
  O   O2        1.0  0.18694  0.03555  0.93352  1.0000
  O   O3        1.0  0.81306  0.53555  0.56648  1.0000
  O   O4        1.0  0.81306  0.46445  0.43352  1.0000
  O   O5        1.0  0.81306  0.03555  0.93352  1.0000
  O   O6        1.0  0.81306  0.96445  0.06648  1.0000
  O   O7        1.0  0.18694  0.46445  0.43352  1.0000
  O   O8        1.0  0.18694  0.53554  0.56648  1.0000
  O   O9        1.0  0.31448  0.87134  0.22651  1.0000
  O   O10       1.0  0.31447  0.12865  0.77350  1.0000
  O   O11       1.0  0.68552  0.62866  0.72650  1.0000
  O   O12       1.0  0.68552  0.37134  0.27350  1.0000
  O   O13       1.0  0.68553  0.12865  0.77350  1.0000
  O   O14       1.0  0.68553  0.87135  0.22650  1.0000
  O   O15       1.0  0.31448  0.37134  0.27350  1.0000
  O   O16       1.0  0.31448  0.62866  0.72650  1.0000
  O   O17       1.0  0.31463  0.68000  0.31653  1.0000
  O   O18       1.0  0.31462  0.32000  0.68347  1.0000
  O   O19       1.0  0.68538  0.81999  0.81654  1.0000
  O   O20       1.0  0.68538  0.18000  0.18346  1.0000
  O   O21       1.0  0.68537  0.32000  0.68347  1.0000
  O   O22       1.0  0.68538  0.68000  0.31653  1.0000
  O   O23       1.0  0.31462  0.18000  0.18346  1.0000
  O   O24       1.0  0.31462  0.82000  0.81654  1.0000
  O   O25       1.0  0.50000  0.71085  0.09983  1.0000
  O   O26       1.0  0.50001  0.28915  0.90017  1.0000
  O   O27       1.0  0.49999  0.78915  0.59983  1.0000
  O   O28       1.0  0.50000  0.21085  0.40016  1.0000
  O   O29       1.0  0.50000  0.83929  0.98496  1.0000
  O   O30       1.0  0.50000  0.16072  0.01504  1.0000
  O   O31       1.0  0.50000  0.66071  0.48496  1.0000
  O   O32       1.0  0.50000  0.33928  0.51504  1.0000
  O   O33       1.0  0.00000  0.17468  0.37471  1.0000
  O   O34       1.0  0.00000  0.82532  0.62529  1.0000
  O   O35       1.0  1.00000  0.32532  0.87471  1.0000
  O   O36       1.0  0.00000  0.67469  0.12529  1.0000
