data_image0
_chemical_formula_structural       K4Nd4H16C20O36
_chemical_formula_sum              "K4 Nd4 H16 C20 O36"
_cell_length_a       7.34141
_cell_length_b       9.02696
_cell_length_c       16.7171
_cell_angle_alpha    89.9998
_cell_angle_beta     90.0001
_cell_angle_gamma    90.0001

_space_group_name_H-M_alt    "P 1"
_space_group_IT_number       1

loop_
  _space_group_symop_operation_xyz
  'x, y, z'

loop_
  _atom_site_type_symbol
  _atom_site_label
  _atom_site_symmetry_multiplicity
  _atom_site_fract_x
  _atom_site_fract_y
  _atom_site_fract_z
  _atom_site_occupancy
  K   K1        1.0  1.00000  0.96024  0.77620  1.0000
  K   K2        1.0  0.00001  0.03976  0.22381  1.0000
  K   K3        1.0  1.00000  0.53976  0.27619  1.0000
  K   K4        1.0  0.99999  0.46024  0.72381  1.0000
  Nd  Nd1       1.0  0.50000  0.01077  0.88065  1.0000
  Nd  Nd2       1.0  0.50001  0.98923  0.11935  1.0000
  Nd  Nd3       1.0  0.50000  0.48923  0.38065  1.0000
  Nd  Nd4       1.0  0.49999  0.51077  0.61935  1.0000
  H   H1        1.0  0.89609  0.75262  0.61797  1.0000
  H   H2        1.0  0.89609  0.24739  0.38203  1.0000
  H   H3        1.0  0.10391  0.74741  0.11796  1.0000
  H   H4        1.0  0.10390  0.25260  0.88204  1.0000
  H   H5        1.0  0.10391  0.24739  0.38203  1.0000
  H   H6        1.0  0.10391  0.75263  0.61797  1.0000
  H   H7        1.0  0.89608  0.25261  0.88204  1.0000
  H   H8        1.0  0.89610  0.74741  0.11796  1.0000
  H   H9        1.0  0.38083  0.42499  0.06461  1.0000
  H   H10       1.0  0.38083  0.57500  0.93539  1.0000
  H   H11       1.0  0.61917  0.07499  0.56461  1.0000
  H   H12       1.0  0.61917  0.92499  0.43538  1.0000
  H   H13       1.0  0.61917  0.57500  0.93539  1.0000
  H   H14       1.0  0.61917  0.42500  0.06462  1.0000
  H   H15       1.0  0.38082  0.92500  0.43538  1.0000
  H   H16       1.0  0.38082  0.07499  0.56461  1.0000
  C   C1        1.0  0.89306  1.00000  0.00000  1.0000
  C   C2        1.0  0.10694  0.49999  0.50000  1.0000
  C   C3        1.0  0.10695  0.99999  0.00000  1.0000
  C   C4        1.0  0.89305  0.49999  0.50000  1.0000
  C   C5        1.0  0.60596  0.71688  0.77326  1.0000
  C   C6        1.0  0.60597  0.28313  0.22673  1.0000
  C   C7        1.0  0.39404  0.78312  0.27327  1.0000
  C   C8        1.0  0.39403  0.21688  0.72674  1.0000
  C   C9        1.0  0.39403  0.28312  0.22673  1.0000
  C   C10       1.0  0.39403  0.71688  0.77327  1.0000
  C   C11       1.0  0.60597  0.21688  0.72674  1.0000
  C   C12       1.0  0.60597  0.78312  0.27327  1.0000
  C   C13       1.0  0.50001  0.28994  0.97516  1.0000
  C   C14       1.0  0.50000  0.71006  0.02484  1.0000
  C   C15       1.0  0.50000  0.21005  0.47516  1.0000
  C   C16       1.0  0.49999  0.78994  0.52484  1.0000
  C   C17       1.0  0.50001  0.42936  0.02475  1.0000
  C   C18       1.0  0.50000  0.57063  0.97525  1.0000
  C   C19       1.0  0.49999  0.07062  0.52475  1.0000
  C   C20       1.0  0.50000  0.92936  0.47525  1.0000
  O   O1        1.0  0.81617  0.03138  0.93425  1.0000
  O   O2        1.0  0.81617  0.96861  0.06576  1.0000
  O   O3        1.0  0.18383  0.46860  0.43425  1.0000
  O   O4        1.0  0.18383  0.53139  0.56575  1.0000
  O   O5        1.0  0.18385  0.96860  0.06575  1.0000
  O   O6        1.0  0.18384  0.03139  0.93425  1.0000
  O   O7        1.0  0.81616  0.53139  0.56575  1.0000
  O   O8        1.0  0.81615  0.46859  0.43425  1.0000
  O   O9        1.0  0.68429  0.81102  0.81753  1.0000
  O   O10       1.0  0.68429  0.18898  0.18247  1.0000
  O   O11       1.0  0.31571  0.68897  0.31752  1.0000
  O   O12       1.0  0.31571  0.31103  0.68248  1.0000
  O   O13       1.0  0.31571  0.18898  0.18247  1.0000
  O   O14       1.0  0.31571  0.81103  0.81753  1.0000
  O   O15       1.0  0.68429  0.31103  0.68248  1.0000
  O   O16       1.0  0.68429  0.68897  0.31752  1.0000
  O   O17       1.0  0.50002  0.29345  0.89954  1.0000
  O   O18       1.0  0.50000  0.70655  0.10046  1.0000
  O   O19       1.0  0.50000  0.20656  0.39954  1.0000
  O   O20       1.0  0.49998  0.79345  0.60046  1.0000
  O   O21       1.0  0.68425  0.62288  0.72881  1.0000
  O   O22       1.0  0.68425  0.37713  0.27118  1.0000
  O   O23       1.0  0.31575  0.87714  0.22882  1.0000
  O   O24       1.0  0.31574  0.12287  0.77119  1.0000
  O   O25       1.0  0.31574  0.37712  0.27118  1.0000
  O   O26       1.0  0.31574  0.62288  0.72882  1.0000
  O   O27       1.0  0.68425  0.12287  0.77118  1.0000
  O   O28       1.0  0.68426  0.87713  0.22882  1.0000
  O   O29       1.0  0.50001  0.16417  0.01194  1.0000
  O   O30       1.0  0.50001  0.83583  0.98806  1.0000
  O   O31       1.0  0.49999  0.33583  0.51194  1.0000
  O   O32       1.0  0.50000  0.66417  0.48805  1.0000
  O   O33       1.0  0.00000  0.81547  0.63143  1.0000
  O   O34       1.0  1.00000  0.18455  0.36857  1.0000
  O   O35       1.0  0.00000  0.68457  0.13142  1.0000
  O   O36       1.0  1.00000  0.31545  0.86857  1.0000
