data_image0
_chemical_formula_structural       Zn2H60C32O8
_chemical_formula_sum              "Zn2 H60 C32 O8"
_cell_length_a       4.67892
_cell_length_b       9.22428
_cell_length_c       21.0257
_cell_angle_alpha    101.162
_cell_angle_beta     90
_cell_angle_gamma    90

_space_group_name_H-M_alt    "P 1"
_space_group_IT_number       1

loop_
  _space_group_symop_operation_xyz
  'x, y, z'

loop_
  _atom_site_type_symbol
  _atom_site_label
  _atom_site_symmetry_multiplicity
  _atom_site_fract_x
  _atom_site_fract_y
  _atom_site_fract_z
  _atom_site_occupancy
  Zn  Zn1       1.0  0.06326  0.00279  0.99920  1.0000
  Zn  Zn2       1.0  0.93674  0.50279  0.99920  1.0000
  H   H1        1.0  0.30624  0.71667  0.90766  1.0000
  H   H2        1.0  0.69376  0.21667  0.90766  1.0000
  H   H3        1.0  0.27845  0.83962  0.85499  1.0000
  H   H4        1.0  0.72155  0.33962  0.85500  1.0000
  H   H5        1.0  0.77181  0.61851  0.85609  1.0000
  H   H6        1.0  0.22819  0.11851  0.85609  1.0000
  H   H7        1.0  0.76479  0.75039  0.80606  1.0000
  H   H8        1.0  0.23521  0.25039  0.80606  1.0000
  H   H9        1.0  0.30552  0.64227  0.75549  1.0000
  H   H10       1.0  0.69448  0.14227  0.75549  1.0000
  H   H11       1.0  0.31179  0.50854  0.80460  1.0000
  H   H12       1.0  0.68822  0.00854  0.80460  1.0000
  H   H13       1.0  0.77683  0.54747  0.70595  1.0000
  H   H14       1.0  0.22317  0.04747  0.70595  1.0000
  H   H15       1.0  0.77776  0.41028  0.75346  1.0000
  H   H16       1.0  0.22224  0.91028  0.75346  1.0000
  H   H17       1.0  0.31131  0.44612  0.65464  1.0000
  H   H18       1.0  0.68869  0.94612  0.65464  1.0000
  H   H19       1.0  0.32037  0.30602  0.70068  1.0000
  H   H20       1.0  0.67964  0.80602  0.70068  1.0000
  H   H21       1.0  0.77532  0.35463  0.60158  1.0000
  H   H22       1.0  0.22468  0.85463  0.60158  1.0000
  H   H23       1.0  0.78609  0.21377  0.64711  1.0000
  H   H24       1.0  0.21391  0.71377  0.64711  1.0000
  H   H25       1.0  0.33409  0.10334  0.59410  1.0000
  H   H26       1.0  0.66591  0.60334  0.59410  1.0000
  H   H27       1.0  0.58913  0.12173  0.53381  1.0000
  H   H28       1.0  0.41087  0.62173  0.53381  1.0000
  H   H29       1.0  0.30412  0.25021  0.55106  1.0000
  H   H30       1.0  0.69588  0.75021  0.55106  1.0000
  H   H31       1.0  0.85278  0.66325  0.13873  1.0000
  H   H32       1.0  0.14722  0.16325  0.13873  1.0000
  H   H33       1.0  0.53487  0.67873  0.09682  1.0000
  H   H34       1.0  0.46513  0.17873  0.09681  1.0000
  H   H35       1.0  0.78631  0.92831  0.20072  1.0000
  H   H36       1.0  0.21368  0.42831  0.20072  1.0000
  H   H37       1.0  0.45716  0.93568  0.16108  1.0000
  H   H38       1.0  0.54285  0.43568  0.16108  1.0000
  H   H39       1.0  0.27399  0.72470  0.20948  1.0000
  H   H40       1.0  0.72601  0.22470  0.20948  1.0000
  H   H41       1.0  0.60707  0.71105  0.24649  1.0000
  H   H42       1.0  0.39294  0.21105  0.24649  1.0000
  H   H43       1.0  0.55263  0.97219  0.30915  1.0000
  H   H44       1.0  0.44737  0.47219  0.30915  1.0000
  H   H45       1.0  0.21260  0.98190  0.27427  1.0000
  H   H46       1.0  0.78740  0.48190  0.27427  1.0000
  H   H47       1.0  0.38675  0.75800  0.35809  1.0000
  H   H48       1.0  0.61325  0.25800  0.35809  1.0000
  H   H49       1.0  0.04462  0.77091  0.32448  1.0000
  H   H50       1.0  0.95538  0.27091  0.32448  1.0000
  H   H51       1.0  0.33825  0.01882  0.42112  1.0000
  H   H52       1.0  0.66175  0.51882  0.42112  1.0000
  H   H53       1.0  0.99471  0.02965  0.38833  1.0000
  H   H54       1.0  0.00530  0.52965  0.38833  1.0000
  H   H55       1.0  0.17750  0.80988  0.47436  1.0000
  H   H56       1.0  0.82250  0.30987  0.47436  1.0000
  H   H57       1.0  0.96248  0.96892  0.49951  1.0000
  H   H58       1.0  0.03752  0.46892  0.49951  1.0000
  H   H59       1.0  0.83093  0.81850  0.44089  1.0000
  H   H60       1.0  0.16907  0.31850  0.44089  1.0000
  C   C1        1.0  0.59403  0.89577  0.92787  1.0000
  C   C2        1.0  0.40596  0.39577  0.92787  1.0000
  C   C3        1.0  0.43670  0.78136  0.87962  1.0000
  C   C4        1.0  0.56329  0.28136  0.87962  1.0000
  C   C5        1.0  0.62624  0.68186  0.83059  1.0000
  C   C6        1.0  0.37376  0.18186  0.83059  1.0000
  C   C7        1.0  0.45138  0.57701  0.78015  1.0000
  C   C8        1.0  0.54862  0.07701  0.78015  1.0000
  C   C9        1.0  0.63439  0.47792  0.72934  1.0000
  C   C10       1.0  0.36561  0.97792  0.72934  1.0000
  C   C11       1.0  0.45838  0.37771  0.67745  1.0000
  C   C12       1.0  0.54162  0.87771  0.67745  1.0000
  C   C13       1.0  0.63832  0.28238  0.62467  1.0000
  C   C14       1.0  0.36168  0.78238  0.62467  1.0000
  C   C15       1.0  0.45742  0.18408  0.57309  1.0000
  C   C16       1.0  0.54258  0.68409  0.57309  1.0000
  C   C17       1.0  0.87679  0.80602  0.07146  1.0000
  C   C18       1.0  0.12321  0.30601  0.07146  1.0000
  C   C19       1.0  0.71285  0.74456  0.12203  1.0000
  C   C20       1.0  0.28715  0.24456  0.12203  1.0000
  C   C21       1.0  0.60544  0.85989  0.17889  1.0000
  C   C22       1.0  0.39456  0.35989  0.17889  1.0000
  C   C23       1.0  0.45977  0.79050  0.23065  1.0000
  C   C24       1.0  0.54023  0.29050  0.23065  1.0000
  C   C25       1.0  0.36631  0.90450  0.28961  1.0000
  C   C26       1.0  0.63369  0.40450  0.28961  1.0000
  C   C27       1.0  0.23395  0.83683  0.34349  1.0000
  C   C28       1.0  0.76605  0.33683  0.34349  1.0000
  C   C29       1.0  0.14919  0.95195  0.40298  1.0000
  C   C30       1.0  0.85081  0.45195  0.40298  1.0000
  C   C31       1.0  0.02291  0.88399  0.45743  1.0000
  C   C32       1.0  0.97709  0.38399  0.45743  1.0000
  O   O1        1.0  0.46963  0.96940  0.97805  1.0000
  O   O2        1.0  0.53036  0.46940  0.97805  1.0000
  O   O3        1.0  0.85925  0.91648  0.91835  1.0000
  O   O4        1.0  0.14074  0.41648  0.91835  1.0000
  O   O5        1.0  0.92354  0.94480  0.08030  1.0000
  O   O6        1.0  0.07646  0.44481  0.08030  1.0000
  O   O7        1.0  0.96654  0.72059  0.01998  1.0000
  O   O8        1.0  0.03346  0.22059  0.01998  1.0000
