data_image0
_chemical_formula_structural       Ca2H12C12N4Cl4O2
_chemical_formula_sum              "Ca2 H12 C12 N4 Cl4 O2"
_cell_length_a       3.92021
_cell_length_b       8.08319
_cell_length_c       15.0979
_cell_angle_alpha    90
_cell_angle_beta     96.8585
_cell_angle_gamma    89.9998

_space_group_name_H-M_alt    "P 1"
_space_group_IT_number       1

loop_
  _space_group_symop_operation_xyz
  'x, y, z'

loop_
  _atom_site_type_symbol
  _atom_site_label
  _atom_site_symmetry_multiplicity
  _atom_site_fract_x
  _atom_site_fract_y
  _atom_site_fract_z
  _atom_site_occupancy
  Ca  Ca1       1.0  0.54556  0.07512  0.13972  1.0000
  Ca  Ca2       1.0  0.54556  0.92488  0.63972  1.0000
  H   H1        1.0  0.40013  0.47453  0.08735  1.0000
  H   H2        1.0  0.40014  0.52547  0.58735  1.0000
  H   H3        1.0  0.47709  0.68637  0.97073  1.0000
  H   H4        1.0  0.47710  0.31363  0.47073  1.0000
  H   H5        1.0  0.63414  0.59285  0.82336  1.0000
  H   H6        1.0  0.63414  0.40715  0.32335  1.0000
  H   H7        1.0  0.59402  0.08969  0.91849  1.0000
  H   H8        1.0  0.59403  0.91031  0.41849  1.0000
  H   H9        1.0  0.90953  0.29748  0.65911  1.0000
  H   H10       1.0  0.90953  0.70253  0.15911  1.0000
  H   H11       1.0  0.92304  0.47288  0.72883  1.0000
  H   H12       1.0  0.92304  0.52712  0.22883  1.0000
  C   C1        1.0  0.59631  0.50219  0.87474  1.0000
  C   C2        1.0  0.59631  0.49781  0.37474  1.0000
  C   C3        1.0  0.62303  0.33208  0.85951  1.0000
  C   C4        1.0  0.62303  0.66792  0.35951  1.0000
  C   C5        1.0  0.57140  0.22270  0.92862  1.0000
  C   C6        1.0  0.57141  0.77730  0.42862  1.0000
  C   C7        1.0  0.46512  0.43789  0.02183  1.0000
  C   C8        1.0  0.46513  0.56211  0.52183  1.0000
  C   C9        1.0  0.69731  0.25887  0.77320  1.0000
  C   C10       1.0  0.69731  0.74113  0.27320  1.0000
  C   C11       1.0  0.50906  0.55555  0.95685  1.0000
  C   C12       1.0  0.50906  0.44445  0.45685  1.0000
  N   N1        1.0  0.50070  0.27382  0.00899  1.0000
  N   N2        1.0  0.50071  0.72618  0.50899  1.0000
  N   N3        1.0  0.84754  0.35307  0.71622  1.0000
  N   N4        1.0  0.84754  0.64693  0.21622  1.0000
  Cl  Cl1       1.0  0.01369  0.89703  0.05596  1.0000
  Cl  Cl2       1.0  0.01369  0.10297  0.55596  1.0000
  Cl  Cl3       1.0  0.08133  0.26332  0.21477  1.0000
  Cl  Cl4       1.0  0.08135  0.73667  0.71477  1.0000
  O   O1        1.0  0.61642  0.11058  0.75595  1.0000
  O   O2        1.0  0.61642  0.88942  0.25595  1.0000
