data_image0
_chemical_formula_structural       Cd4H56C24O8
_chemical_formula_sum              "Cd4 H56 C24 O8"
_cell_length_a       4.24976
_cell_length_b       13.0185
_cell_length_c       14.8042
_cell_angle_alpha    90
_cell_angle_beta     89.9999
_cell_angle_gamma    90.0002

_space_group_name_H-M_alt    "P 1"
_space_group_IT_number       1

loop_
  _space_group_symop_operation_xyz
  'x, y, z'

loop_
  _atom_site_type_symbol
  _atom_site_label
  _atom_site_symmetry_multiplicity
  _atom_site_fract_x
  _atom_site_fract_y
  _atom_site_fract_z
  _atom_site_occupancy
  Cd  Cd1       1.0  0.04770  0.75000  0.37550  1.0000
  Cd  Cd2       1.0  0.95230  0.25000  0.62450  1.0000
  Cd  Cd3       1.0  0.04770  0.25000  0.12450  1.0000
  Cd  Cd4       1.0  0.95230  0.75000  0.87550  1.0000
  H   H1        1.0  0.82258  0.84464  0.18170  1.0000
  H   H2        1.0  0.17742  0.34464  0.81830  1.0000
  H   H3        1.0  0.82258  0.15536  0.31830  1.0000
  H   H4        1.0  0.17741  0.65536  0.68170  1.0000
  H   H5        1.0  0.17742  0.15536  0.81830  1.0000
  H   H6        1.0  0.82258  0.65536  0.18170  1.0000
  H   H7        1.0  0.17741  0.84464  0.68170  1.0000
  H   H8        1.0  0.82258  0.34464  0.31830  1.0000
  H   H9        1.0  0.45835  0.90628  0.20901  1.0000
  H   H10       1.0  0.54165  0.40628  0.79099  1.0000
  H   H11       1.0  0.45835  0.09372  0.29099  1.0000
  H   H12       1.0  0.54164  0.59372  0.70901  1.0000
  H   H13       1.0  0.54165  0.09372  0.79099  1.0000
  H   H14       1.0  0.45835  0.59372  0.20901  1.0000
  H   H15       1.0  0.54165  0.90629  0.70901  1.0000
  H   H16       1.0  0.45835  0.40628  0.29099  1.0000
  H   H17       1.0  0.57641  0.90674  0.03997  1.0000
  H   H18       1.0  0.42359  0.40674  0.96003  1.0000
  H   H19       1.0  0.57641  0.09326  0.46003  1.0000
  H   H20       1.0  0.42359  0.59327  0.53997  1.0000
  H   H21       1.0  0.42359  0.09326  0.96003  1.0000
  H   H22       1.0  0.57641  0.59326  0.03997  1.0000
  H   H23       1.0  0.42360  0.90674  0.53997  1.0000
  H   H24       1.0  0.57641  0.40674  0.46003  1.0000
  H   H25       1.0  0.21498  0.84361  0.06786  1.0000
  H   H26       1.0  0.78502  0.34361  0.93214  1.0000
  H   H27       1.0  0.21498  0.15639  0.43214  1.0000
  H   H28       1.0  0.78502  0.65639  0.56786  1.0000
  H   H29       1.0  0.78502  0.15639  0.93214  1.0000
  H   H30       1.0  0.21498  0.65639  0.06786  1.0000
  H   H31       1.0  0.78503  0.84362  0.56786  1.0000
  H   H32       1.0  0.21498  0.34361  0.43214  1.0000
  H   H33       1.0  0.03256  0.94551  0.44376  1.0000
  H   H34       1.0  0.96744  0.44551  0.55624  1.0000
  H   H35       1.0  0.03256  0.05448  0.05624  1.0000
  H   H36       1.0  0.96744  0.55448  0.94376  1.0000
  H   H37       1.0  0.96744  0.05449  0.55624  1.0000
  H   H38       1.0  0.03256  0.55448  0.44376  1.0000
  H   H39       1.0  0.96744  0.94552  0.94376  1.0000
  H   H40       1.0  0.03256  0.44552  0.05624  1.0000
  H   H41       1.0  0.81071  0.94162  0.34199  1.0000
  H   H42       1.0  0.18929  0.44162  0.65801  1.0000
  H   H43       1.0  0.81072  0.05838  0.15801  1.0000
  H   H44       1.0  0.18929  0.55838  0.84199  1.0000
  H   H45       1.0  0.18929  0.05838  0.65801  1.0000
  H   H46       1.0  0.81071  0.55838  0.34199  1.0000
  H   H47       1.0  0.18929  0.94162  0.84199  1.0000
  H   H48       1.0  0.81071  0.44162  0.15801  1.0000
  H   H49       1.0  0.22862  0.94646  0.33778  1.0000
  H   H50       1.0  0.77138  0.44646  0.66223  1.0000
  H   H51       1.0  0.22862  0.05354  0.16223  1.0000
  H   H52       1.0  0.77138  0.55354  0.83777  1.0000
  H   H53       1.0  0.77138  0.05354  0.66222  1.0000
  H   H54       1.0  0.22862  0.55354  0.33777  1.0000
  H   H55       1.0  0.77138  0.94646  0.83778  1.0000
  H   H56       1.0  0.22862  0.44646  0.16223  1.0000
  C   C1        1.0  0.56445  0.84054  0.17408  1.0000
  C   C2        1.0  0.43555  0.34054  0.82592  1.0000
  C   C3        1.0  0.56445  0.15946  0.32592  1.0000
  C   C4        1.0  0.43554  0.65946  0.67408  1.0000
  C   C5        1.0  0.43555  0.15946  0.82592  1.0000
  C   C6        1.0  0.56445  0.65946  0.17408  1.0000
  C   C7        1.0  0.43555  0.84054  0.67408  1.0000
  C   C8        1.0  0.56445  0.34054  0.32592  1.0000
  C   C9        1.0  0.47327  0.84059  0.07509  1.0000
  C   C10       1.0  0.52673  0.34059  0.92491  1.0000
  C   C11       1.0  0.47327  0.15941  0.42491  1.0000
  C   C12       1.0  0.52673  0.65941  0.57509  1.0000
  C   C13       1.0  0.52673  0.15941  0.92491  1.0000
  C   C14       1.0  0.47327  0.65941  0.07509  1.0000
  C   C15       1.0  0.52673  0.84059  0.57509  1.0000
  C   C16       1.0  0.47327  0.34059  0.42491  1.0000
  C   C17       1.0  0.02699  0.91478  0.37475  1.0000
  C   C18       1.0  0.97301  0.41478  0.62525  1.0000
  C   C19       1.0  0.02699  0.08522  0.12525  1.0000
  C   C20       1.0  0.97300  0.58522  0.87475  1.0000
  C   C21       1.0  0.97301  0.08522  0.62525  1.0000
  C   C22       1.0  0.02700  0.58522  0.37475  1.0000
  C   C23       1.0  0.97301  0.91478  0.87475  1.0000
  C   C24       1.0  0.02699  0.41478  0.12525  1.0000
  O   O1        1.0  0.44838  0.75000  0.21876  1.0000
  O   O2        1.0  0.55162  0.25000  0.78124  1.0000
  O   O3        1.0  0.44838  0.25000  0.28124  1.0000
  O   O4        1.0  0.55162  0.75000  0.71876  1.0000
  O   O5        1.0  0.40962  0.75000  0.53058  1.0000
  O   O6        1.0  0.59038  0.25000  0.46942  1.0000
  O   O7        1.0  0.40962  0.25000  0.96942  1.0000
  O   O8        1.0  0.59038  0.75000  0.03058  1.0000
