data_image0
_chemical_formula_structural       Cd2H32C46N6O10
_chemical_formula_sum              "Cd2 H32 C46 N6 O10"
_cell_length_a       9.88698
_cell_length_b       10.4209
_cell_length_c       10.9233
_cell_angle_alpha    82.0357
_cell_angle_beta     66.9348
_cell_angle_gamma    85.2935

_space_group_name_H-M_alt    "P 1"
_space_group_IT_number       1

loop_
  _space_group_symop_operation_xyz
  'x, y, z'

loop_
  _atom_site_type_symbol
  _atom_site_label
  _atom_site_symmetry_multiplicity
  _atom_site_fract_x
  _atom_site_fract_y
  _atom_site_fract_z
  _atom_site_occupancy
  Cd  Cd1       1.0  0.34304  0.43675  0.54787  1.0000
  Cd  Cd2       1.0  0.65696  0.56325  0.45214  1.0000
  H   H1        1.0  0.60495  0.10658  0.74586  1.0000
  H   H2        1.0  0.39505  0.89342  0.25414  1.0000
  H   H3        1.0  0.67922  0.98052  0.92309  1.0000
  H   H4        1.0  0.32077  0.01947  0.07691  1.0000
  H   H5        1.0  0.66863  0.08488  0.11741  1.0000
  H   H6        1.0  0.33135  0.91512  0.88259  1.0000
  H   H7        1.0  0.58368  0.31716  0.13680  1.0000
  H   H8        1.0  0.41633  0.68284  0.86319  1.0000
  H   H9        1.0  0.92450  0.26686  0.16604  1.0000
  H   H10       1.0  0.07549  0.73314  0.83396  1.0000
  H   H11       1.0  0.04777  0.06456  0.06944  1.0000
  H   H12       1.0  0.95223  0.93545  0.93056  1.0000
  H   H13       1.0  0.92405  0.85224  0.16463  1.0000
  H   H14       1.0  0.07595  0.14776  0.83537  1.0000
  H   H15       1.0  0.68129  0.84523  0.35626  1.0000
  H   H16       1.0  0.31871  0.15477  0.64374  1.0000
  H   H17       1.0  0.35218  0.26753  0.34021  1.0000
  H   H18       1.0  0.64783  0.73247  0.65979  1.0000
  H   H19       1.0  0.19923  0.12514  0.28074  1.0000
  H   H20       1.0  0.80078  0.87485  0.71927  1.0000
  H   H21       1.0  0.93063  0.10729  0.42837  1.0000
  H   H22       1.0  0.06937  0.89270  0.57163  1.0000
  H   H23       1.0  0.82563  0.23997  0.62135  1.0000
  H   H24       1.0  0.17438  0.76004  0.37865  1.0000
  H   H25       1.0  0.97235  0.50494  0.65973  1.0000
  H   H26       1.0  0.02765  0.49506  0.34027  1.0000
  H   H27       1.0  0.85997  0.37387  0.76143  1.0000
  H   H28       1.0  0.14003  0.62613  0.23857  1.0000
  H   H29       1.0  0.22430  0.36070  0.90941  1.0000
  H   H30       1.0  0.77570  0.63931  0.09059  1.0000
  H   H31       1.0  0.82530  0.53820  0.88417  1.0000
  H   H32       1.0  0.17470  0.46180  0.11583  1.0000
  C   C1        1.0  0.52784  0.36123  0.72669  1.0000
  C   C2        1.0  0.47211  0.63875  0.27332  1.0000
  C   C3        1.0  0.55756  0.28230  0.84030  1.0000
  C   C4        1.0  0.44245  0.71770  0.15970  1.0000
  C   C5        1.0  0.60288  0.15209  0.83087  1.0000
  C   C6        1.0  0.39712  0.84791  0.16912  1.0000
  C   C7        1.0  0.64424  0.08220  0.92986  1.0000
  C   C8        1.0  0.35576  0.91780  0.07014  1.0000
  C   C9        1.0  0.63794  0.14105  0.03995  1.0000
  C   C10       1.0  0.36206  0.85895  0.96004  1.0000
  C   C11       1.0  0.59048  0.26981  0.05155  1.0000
  C   C12       1.0  0.40953  0.73019  0.94845  1.0000
  C   C13       1.0  0.55018  0.34162  0.95136  1.0000
  C   C14       1.0  0.44984  0.65838  0.04863  1.0000
  C   C15       1.0  0.66780  0.29337  0.37089  1.0000
  C   C16       1.0  0.33216  0.70661  0.62912  1.0000
  C   C17       1.0  0.73856  0.16931  0.31709  1.0000
  C   C18       1.0  0.26144  0.83069  0.68292  1.0000
  C   C19       1.0  0.87370  0.17333  0.20772  1.0000
  C   C20       1.0  0.12630  0.82667  0.79229  1.0000
  C   C21       1.0  0.94168  0.06018  0.15355  1.0000
  C   C22       1.0  0.05832  0.93982  0.84644  1.0000
  C   C23       1.0  0.87277  0.94153  0.20623  1.0000
  C   C24       1.0  0.12723  0.05846  0.79376  1.0000
  C   C25       1.0  0.73724  0.93620  0.31389  1.0000
  C   C26       1.0  0.26276  0.06380  0.68611  1.0000
  C   C27       1.0  0.67056  0.04910  0.37180  1.0000
  C   C28       1.0  0.32944  0.95089  0.62820  1.0000
  C   C29       1.0  0.23466  0.25816  0.39871  1.0000
  C   C30       1.0  0.76534  0.74184  0.60129  1.0000
  C   C31       1.0  0.14926  0.17874  0.36738  1.0000
  C   C32       1.0  0.85074  0.82126  0.63262  1.0000
  C   C33       1.0  0.00045  0.16955  0.44895  1.0000
  C   C34       1.0  0.99956  0.83045  0.55105  1.0000
  C   C35       1.0  0.94178  0.24215  0.55697  1.0000
  C   C36       1.0  0.05823  0.75785  0.44303  1.0000
  C   C37       1.0  0.03352  0.31988  0.58275  1.0000
  C   C38       1.0  0.96649  0.68013  0.41725  1.0000
  C   C39       1.0  0.97351  0.40098  0.69765  1.0000
  C   C40       1.0  0.02649  0.59902  0.30235  1.0000
  C   C41       1.0  0.02908  0.44153  0.88427  1.0000
  C   C42       1.0  0.97091  0.55848  0.11573  1.0000
  C   C43       1.0  0.12540  0.42076  0.95105  1.0000
  C   C44       1.0  0.87460  0.57924  0.04895  1.0000
  C   C45       1.0  0.90285  0.52091  0.93349  1.0000
  C   C46       1.0  0.09715  0.47909  0.06651  1.0000
  N   N1        1.0  0.49658  0.47158  0.95364  1.0000
  N   N2        1.0  0.50343  0.52842  0.04635  1.0000
  N   N3        1.0  0.54584  0.04122  0.49446  1.0000
  N   N4        1.0  0.45416  0.95878  0.50554  1.0000
  N   N5        1.0  0.17814  0.32624  0.50479  1.0000
  N   N6        1.0  0.82186  0.67377  0.49521  1.0000
  O   O1        1.0  0.41054  0.33821  0.71303  1.0000
  O   O2        1.0  0.58947  0.66179  0.28698  1.0000
  O   O3        1.0  0.62717  0.43901  0.65301  1.0000
  O   O4        1.0  0.37284  0.56101  0.34698  1.0000
  O   O5        1.0  0.75529  0.37949  0.36493  1.0000
  O   O6        1.0  0.24472  0.62052  0.63507  1.0000
  O   O7        1.0  0.52846  0.30323  0.41514  1.0000
  O   O8        1.0  0.47156  0.69676  0.58487  1.0000
  O   O9        1.0  0.06742  0.37894  0.77094  1.0000
  O   O10       1.0  0.93258  0.62106  0.22906  1.0000
