data_image0
_chemical_formula_structural       Cd2H40C50N6Cl2O8
_chemical_formula_sum              "Cd2 H40 C50 N6 Cl2 O8"
_cell_length_a       9.90788
_cell_length_b       10.9796
_cell_length_c       11.6579
_cell_angle_alpha    113.675
_cell_angle_beta     97.8507
_cell_angle_gamma    92.4942

_space_group_name_H-M_alt    "P 1"
_space_group_IT_number       1

loop_
  _space_group_symop_operation_xyz
  'x, y, z'

loop_
  _atom_site_type_symbol
  _atom_site_label
  _atom_site_symmetry_multiplicity
  _atom_site_fract_x
  _atom_site_fract_y
  _atom_site_fract_z
  _atom_site_occupancy
  Cd  Cd1       1.0  0.11696  0.52647  0.39833  1.0000
  Cd  Cd2       1.0  0.88304  0.47355  0.60168  1.0000
  H   H1        1.0  0.32607  0.80008  0.25076  1.0000
  H   H2        1.0  0.67394  0.19993  0.74925  1.0000
  H   H3        1.0  0.33635  0.95174  0.14159  1.0000
  H   H4        1.0  0.66364  0.04826  0.85841  1.0000
  H   H5        1.0  0.16701  0.12007  0.16685  1.0000
  H   H6        1.0  0.83298  0.87992  0.83313  1.0000
  H   H7        1.0  0.99878  0.14298  0.31452  1.0000
  H   H8        1.0  0.00121  0.85702  0.68547  1.0000
  H   H9        1.0  0.97867  0.28023  0.13166  1.0000
  H   H10       1.0  0.02134  0.71977  0.86834  1.0000
  H   H11       1.0  0.97147  0.20031  0.89677  1.0000
  H   H12       1.0  0.02854  0.79967  0.10323  1.0000
  H   H13       1.0  0.11896  0.32696  0.81574  1.0000
  H   H14       1.0  0.88103  0.67303  0.18427  1.0000
  H   H15       1.0  0.28326  0.58477  0.20702  1.0000
  H   H16       1.0  0.71674  0.41523  0.79298  1.0000
  H   H17       1.0  0.34854  0.48132  0.87900  1.0000
  H   H18       1.0  0.65146  0.51867  0.12100  1.0000
  H   H19       1.0  0.24922  0.61845  0.93721  1.0000
  H   H20       1.0  0.75078  0.38153  0.06279  1.0000
  H   H21       1.0  0.42795  0.69226  0.87146  1.0000
  H   H22       1.0  0.57204  0.30774  0.12854  1.0000
  H   H23       1.0  0.58522  0.88192  0.88789  1.0000
  H   H24       1.0  0.41477  0.11808  0.11211  1.0000
  H   H25       1.0  0.74345  0.01813  0.09170  1.0000
  H   H26       1.0  0.25656  0.98186  0.90829  1.0000
  H   H27       1.0  0.74611  0.96046  0.27689  1.0000
  H   H28       1.0  0.25390  0.03953  0.72310  1.0000
  H   H29       1.0  0.64521  0.92929  0.43331  1.0000
  H   H30       1.0  0.35480  0.07071  0.56669  1.0000
  H   H31       1.0  0.77830  0.82587  0.38099  1.0000
  H   H32       1.0  0.22170  0.17413  0.61901  1.0000
  H   H33       1.0  0.45769  0.84411  0.52829  1.0000
  H   H34       1.0  0.54231  0.15589  0.47171  1.0000
  H   H35       1.0  0.42152  0.72193  0.66367  1.0000
  H   H36       1.0  0.57847  0.27808  0.33633  1.0000
  H   H37       1.0  0.59507  0.57023  0.68877  1.0000
  H   H38       1.0  0.40494  0.42978  0.31124  1.0000
  H   H39       1.0  0.82340  0.64930  0.44849  1.0000
  H   H40       1.0  0.17660  0.35070  0.55151  1.0000
  C   C1        1.0  0.13810  0.77017  0.38297  1.0000
  C   C2        1.0  0.86190  0.22984  0.61704  1.0000
  C   C3        1.0  0.15807  0.88348  0.34343  1.0000
  C   C4        1.0  0.84193  0.11653  0.65657  1.0000
  C   C5        1.0  0.25571  0.87641  0.26539  1.0000
  C   C6        1.0  0.74429  0.12361  0.73461  1.0000
  C   C7        1.0  0.26014  0.96156  0.20309  1.0000
  C   C8        1.0  0.73986  0.03844  0.79690  1.0000
  C   C9        1.0  0.16509  0.05480  0.21682  1.0000
  C   C10       1.0  0.83490  0.94520  0.78317  1.0000
  C   C11       1.0  0.06997  0.06688  0.29766  1.0000
  C   C12       1.0  0.93003  0.93312  0.70233  1.0000
  C   C13       1.0  0.06943  0.98512  0.36429  1.0000
  C   C14       1.0  0.93057  0.01489  0.63571  1.0000
  C   C15       1.0  0.04526  0.32985  0.09247  1.0000
  C   C16       1.0  0.95475  0.67015  0.90754  1.0000
  C   C17       1.0  0.04078  0.28723  0.96236  1.0000
  C   C18       1.0  0.95923  0.71276  0.03765  1.0000
  C   C19       1.0  0.12522  0.35713  0.91782  1.0000
  C   C20       1.0  0.87479  0.64285  0.08219  1.0000
  C   C21       1.0  0.21474  0.46654  0.00557  1.0000
  C   C22       1.0  0.78526  0.53346  0.99443  1.0000
  C   C23       1.0  0.21432  0.50138  0.13472  1.0000
  C   C24       1.0  0.78568  0.49861  0.86528  1.0000
  C   C25       1.0  0.30709  0.54676  0.96309  1.0000
  C   C26       1.0  0.69291  0.45324  0.03691  1.0000
  C   C27       1.0  0.49772  0.71818  0.06412  1.0000
  C   C28       1.0  0.50228  0.28182  0.93589  1.0000
  C   C29       1.0  0.49766  0.75029  0.96005  1.0000
  C   C30       1.0  0.50234  0.24971  0.03995  1.0000
  C   C31       1.0  0.58712  0.85788  0.96998  1.0000
  C   C32       1.0  0.41288  0.14211  0.03002  1.0000
  C   C33       1.0  0.67489  0.93348  0.08337  1.0000
  C   C34       1.0  0.32511  0.06652  0.91663  1.0000
  C   C35       1.0  0.67609  0.90174  0.18865  1.0000
  C   C36       1.0  0.32392  0.09825  0.81134  1.0000
  C   C37       1.0  0.58911  0.79355  0.17902  1.0000
  C   C38       1.0  0.41089  0.20646  0.82098  1.0000
  C   C39       1.0  0.67031  0.82514  0.39376  1.0000
  C   C40       1.0  0.32970  0.17486  0.60624  1.0000
  C   C41       1.0  0.64462  0.75736  0.47875  1.0000
  C   C42       1.0  0.35537  0.24264  0.52124  1.0000
  C   C43       1.0  0.53156  0.77829  0.54116  1.0000
  C   C44       1.0  0.46844  0.22171  0.45884  1.0000
  C   C45       1.0  0.51095  0.70997  0.61665  1.0000
  C   C46       1.0  0.48904  0.29004  0.38335  1.0000
  C   C47       1.0  0.60581  0.62460  0.62948  1.0000
  C   C48       1.0  0.39419  0.37540  0.37052  1.0000
  C   C49       1.0  0.73353  0.66846  0.49531  1.0000
  C   C50       1.0  0.26647  0.33154  0.50469  1.0000
  N   N1        1.0  0.97768  0.01021  0.45149  1.0000
  N   N2        1.0  0.02231  0.98980  0.54852  1.0000
  N   N3        1.0  0.13025  0.43593  0.17745  1.0000
  N   N4        1.0  0.86975  0.56407  0.82256  1.0000
  N   N5        1.0  0.71524  0.60417  0.56965  1.0000
  N   N6        1.0  0.28476  0.39584  0.43035  1.0000
  Cl  Cl1       1.0  0.88981  0.37408  0.35335  1.0000
  Cl  Cl2       1.0  0.11019  0.62594  0.64666  1.0000
  O   O1        1.0  0.24492  0.72390  0.41683  1.0000
  O   O2        1.0  0.75508  0.27611  0.58318  1.0000
  O   O3        1.0  0.01698  0.71534  0.36716  1.0000
  O   O4        1.0  0.98303  0.28467  0.63284  1.0000
  O   O5        1.0  0.41534  0.61705  0.06733  1.0000
  O   O6        1.0  0.58466  0.38296  0.93267  1.0000
  O   O7        1.0  0.58272  0.75005  0.27327  1.0000
  O   O8        1.0  0.41728  0.24995  0.72673  1.0000
