data_image0
_chemical_formula_structural       Zn2H36C28N4O8
_chemical_formula_sum              "Zn2 H36 C28 N4 O8"
_cell_length_a       6.00458
_cell_length_b       11.2052
_cell_length_c       11.3959
_cell_angle_alpha    87.2557
_cell_angle_beta     81.1029
_cell_angle_gamma    77.3851

_space_group_name_H-M_alt    "P 1"
_space_group_IT_number       1

loop_
  _space_group_symop_operation_xyz
  'x, y, z'

loop_
  _atom_site_type_symbol
  _atom_site_label
  _atom_site_symmetry_multiplicity
  _atom_site_fract_x
  _atom_site_fract_y
  _atom_site_fract_z
  _atom_site_occupancy
  Zn  Zn1       1.0  0.99910  0.15707  0.49572  1.0000
  Zn  Zn2       1.0  0.00090  0.84293  0.50428  1.0000
  H   H1        1.0  0.52146  0.16649  0.59833  1.0000
  H   H2        1.0  0.47853  0.83351  0.40167  1.0000
  H   H3        1.0  0.18856  0.31014  0.71092  1.0000
  H   H4        1.0  0.81144  0.68987  0.28908  1.0000
  H   H5        1.0  0.59800  0.58765  0.65486  1.0000
  H   H6        1.0  0.40201  0.41236  0.34513  1.0000
  H   H7        1.0  0.91560  0.43047  0.55122  1.0000
  H   H8        1.0  0.08440  0.56953  0.44877  1.0000
  H   H9        1.0  0.22023  0.63599  0.77430  1.0000
  H   H10       1.0  0.77978  0.36401  0.22570  1.0000
  H   H11       1.0  0.02452  0.57608  0.70684  1.0000
  H   H12       1.0  0.97549  0.42393  0.29316  1.0000
  H   H13       1.0  0.73147  0.58749  0.86382  1.0000
  H   H14       1.0  0.26853  0.41250  0.13617  1.0000
  H   H15       1.0  0.88143  0.66916  0.94470  1.0000
  H   H16       1.0  0.11857  0.33084  0.05529  1.0000
  H   H17       1.0  0.28267  0.56750  0.97612  1.0000
  H   H18       1.0  0.71734  0.43250  0.02388  1.0000
  H   H19       1.0  0.39923  0.41772  0.91768  1.0000
  H   H20       1.0  0.60077  0.58228  0.08231  1.0000
  H   H21       1.0  0.58190  0.24392  0.23672  1.0000
  H   H22       1.0  0.41810  0.75607  0.76328  1.0000
  H   H23       1.0  0.43944  0.17398  0.14398  1.0000
  H   H24       1.0  0.56055  0.82602  0.85603  1.0000
  H   H25       1.0  0.81042  0.86279  0.14455  1.0000
  H   H26       1.0  0.18957  0.13721  0.85545  1.0000
  H   H27       1.0  0.63262  0.97000  0.06000  1.0000
  H   H28       1.0  0.36738  0.03000  0.94000  1.0000
  H   H29       1.0  0.51275  0.91697  0.20056  1.0000
  H   H30       1.0  0.48725  0.08302  0.79944  1.0000
  H   H31       1.0  0.08278  0.01220  0.11939  1.0000
  H   H32       1.0  0.91721  0.98780  0.88062  1.0000
  H   H33       1.0  0.98442  0.16281  0.17595  1.0000
  H   H34       1.0  0.01558  0.83719  0.82405  1.0000
  H   H35       1.0  0.88921  0.12269  0.04549  1.0000
  H   H36       1.0  0.11079  0.87731  0.95452  1.0000
  C   C1        1.0  0.53000  0.26058  0.61366  1.0000
  C   C2        1.0  0.46999  0.73943  0.38634  1.0000
  C   C3        1.0  0.34521  0.34150  0.67540  1.0000
  C   C4        1.0  0.65479  0.65851  0.32460  1.0000
  C   C5        1.0  0.36392  0.46140  0.69356  1.0000
  C   C6        1.0  0.63608  0.53861  0.30643  1.0000
  C   C7        1.0  0.57142  0.49523  0.64669  1.0000
  C   C8        1.0  0.42859  0.50477  0.35329  1.0000
  C   C9        1.0  0.74983  0.40858  0.58729  1.0000
  C   C10       1.0  0.25017  0.59142  0.41270  1.0000
  C   C11       1.0  0.16510  0.54995  0.76096  1.0000
  C   C12       1.0  0.83491  0.45005  0.23904  1.0000
  C   C13       1.0  0.85641  0.57661  0.92669  1.0000
  C   C14       1.0  0.14359  0.42339  0.07331  1.0000
  C   C15       1.0  0.23913  0.47932  0.95737  1.0000
  C   C16       1.0  0.76087  0.52068  0.04263  1.0000
  C   C17       1.0  0.33680  0.14860  0.32947  1.0000
  C   C18       1.0  0.66321  0.85140  0.67054  1.0000
  C   C19       1.0  0.52125  0.16034  0.22522  1.0000
  C   C20       1.0  0.47875  0.83966  0.77479  1.0000
  C   C21       1.0  0.72636  0.04943  0.20934  1.0000
  C   C22       1.0  0.27364  0.95057  0.79067  1.0000
  C   C23       1.0  0.80478  0.01475  0.33083  1.0000
  C   C24       1.0  0.19522  0.98524  0.66917  1.0000
  C   C25       1.0  0.66668  0.94279  0.15056  1.0000
  C   C26       1.0  0.33332  0.05721  0.84945  1.0000
  C   C27       1.0  0.93362  0.08935  0.13292  1.0000
  C   C28       1.0  0.06637  0.91065  0.86708  1.0000
  N   N1        1.0  0.73114  0.29324  0.57137  1.0000
  N   N2        1.0  0.26885  0.70676  0.42863  1.0000
  N   N3        1.0  0.07307  0.49835  0.87345  1.0000
  N   N4        1.0  0.92693  0.50165  0.12655  1.0000
  O   O1        1.0  0.20661  0.24779  0.37614  1.0000
  O   O2        1.0  0.79340  0.75221  0.62387  1.0000
  O   O3        1.0  0.30917  0.04477  0.36857  1.0000
  O   O4        1.0  0.69083  0.95523  0.63143  1.0000
  O   O5        1.0  0.88722  0.90266  0.35299  1.0000
  O   O6        1.0  0.11277  0.09734  0.64701  1.0000
  O   O7        1.0  0.79188  0.10362  0.39831  1.0000
  O   O8        1.0  0.20813  0.89638  0.60169  1.0000
