data_image0
_chemical_formula_structural       Zn2H56C40N8O12
_chemical_formula_sum              "Zn2 H56 C40 N8 O12"
_cell_length_a       8.96894
_cell_length_b       9.75873
_cell_length_c       12.3107
_cell_angle_alpha    90
_cell_angle_beta     90
_cell_angle_gamma    96.2908

_space_group_name_H-M_alt    "P 1"
_space_group_IT_number       1

loop_
  _space_group_symop_operation_xyz
  'x, y, z'

loop_
  _atom_site_type_symbol
  _atom_site_label
  _atom_site_symmetry_multiplicity
  _atom_site_fract_x
  _atom_site_fract_y
  _atom_site_fract_z
  _atom_site_occupancy
  Zn  Zn1       1.0  1.00000  1.00000  0.00000  1.0000
  Zn  Zn2       1.0  0.50000  1.00000  0.50000  1.0000
  H   H1        1.0  0.91494  0.09896  0.81927  1.0000
  H   H2        1.0  0.58506  0.90104  0.31927  1.0000
  H   H3        1.0  0.08506  0.90104  0.18073  1.0000
  H   H4        1.0  0.41494  0.09896  0.68073  1.0000
  H   H5        1.0  0.08856  0.09489  0.78149  1.0000
  H   H6        1.0  0.41144  0.90511  0.28149  1.0000
  H   H7        1.0  0.91144  0.90511  0.21851  1.0000
  H   H8        1.0  0.58856  0.09489  0.71851  1.0000
  H   H9        1.0  0.19718  0.68902  0.70687  1.0000
  H   H10       1.0  0.30282  0.31098  0.20686  1.0000
  H   H11       1.0  0.80282  0.31098  0.29313  1.0000
  H   H12       1.0  0.69718  0.68902  0.79313  1.0000
  H   H13       1.0  0.19663  0.89828  0.82482  1.0000
  H   H14       1.0  0.30337  0.10172  0.32481  1.0000
  H   H15       1.0  0.80337  0.10172  0.17519  1.0000
  H   H16       1.0  0.69663  0.89828  0.67518  1.0000
  H   H17       1.0  0.85995  0.70778  0.01928  1.0000
  H   H18       1.0  0.64005  0.29221  0.51928  1.0000
  H   H19       1.0  0.14005  0.29221  0.98071  1.0000
  H   H20       1.0  0.35995  0.70778  0.48072  1.0000
  H   H21       1.0  0.94708  0.30181  0.53809  1.0000
  H   H22       1.0  0.55292  0.69819  0.03809  1.0000
  H   H23       1.0  0.05292  0.69819  0.46191  1.0000
  H   H24       1.0  0.44708  0.30181  0.96191  1.0000
  H   H25       1.0  0.14222  0.31979  0.56963  1.0000
  H   H26       1.0  0.35778  0.68022  0.06963  1.0000
  H   H27       1.0  0.85778  0.68022  0.43037  1.0000
  H   H28       1.0  0.64222  0.31979  0.93037  1.0000
  H   H29       1.0  0.84639  0.48994  0.90985  1.0000
  H   H30       1.0  0.65361  0.51006  0.40985  1.0000
  H   H31       1.0  0.15361  0.51005  0.09015  1.0000
  H   H32       1.0  0.34639  0.48994  0.59016  1.0000
  H   H33       1.0  0.09977  0.38157  0.74670  1.0000
  H   H34       1.0  0.40023  0.61843  0.24670  1.0000
  H   H35       1.0  0.90023  0.61843  0.25330  1.0000
  H   H36       1.0  0.59978  0.38157  0.75330  1.0000
  H   H37       1.0  0.90366  0.38393  0.73883  1.0000
  H   H38       1.0  0.59634  0.61607  0.23883  1.0000
  H   H39       1.0  0.09634  0.61607  0.26117  1.0000
  H   H40       1.0  0.40366  0.38393  0.76117  1.0000
  H   H41       1.0  0.54301  0.92685  0.10467  1.0000
  H   H42       1.0  0.95700  0.07316  0.60468  1.0000
  H   H43       1.0  0.45700  0.07316  0.89533  1.0000
  H   H44       1.0  0.04300  0.92685  0.39533  1.0000
  H   H45       1.0  0.53418  0.10520  0.09229  1.0000
  H   H46       1.0  0.96582  0.89481  0.59229  1.0000
  H   H47       1.0  0.46582  0.89481  0.90771  1.0000
  H   H48       1.0  0.03418  0.10520  0.40771  1.0000
  H   H49       1.0  0.90694  0.65791  0.62904  1.0000
  H   H50       1.0  0.59306  0.34210  0.12903  1.0000
  H   H51       1.0  0.09307  0.34210  0.37097  1.0000
  H   H52       1.0  0.40694  0.65791  0.87096  1.0000
  H   H53       1.0  0.80464  0.50685  0.57536  1.0000
  H   H54       1.0  0.69536  0.49315  0.07536  1.0000
  H   H55       1.0  0.19536  0.49315  0.42464  1.0000
  H   H56       1.0  0.30464  0.50685  0.92464  1.0000
  C   C1        1.0  0.31981  0.98877  0.08970  1.0000
  C   C2        1.0  0.18020  0.01123  0.58970  1.0000
  C   C3        1.0  0.68019  0.01123  0.91030  1.0000
  C   C4        1.0  0.81981  0.98877  0.41030  1.0000
  C   C5        1.0  0.12320  0.68822  0.77707  1.0000
  C   C6        1.0  0.37680  0.31177  0.27707  1.0000
  C   C7        1.0  0.87680  0.31178  0.22293  1.0000
  C   C8        1.0  0.62320  0.68822  0.72293  1.0000
  C   C9        1.0  0.12271  0.80452  0.84180  1.0000
  C   C10       1.0  0.37729  0.19548  0.34180  1.0000
  C   C11       1.0  0.87729  0.19548  0.15820  1.0000
  C   C12       1.0  0.62271  0.80452  0.65820  1.0000
  C   C13       1.0  0.93409  0.69736  0.95033  1.0000
  C   C14       1.0  0.56591  0.30264  0.45033  1.0000
  C   C15       1.0  0.06591  0.30264  0.04967  1.0000
  C   C16       1.0  0.43409  0.69736  0.54967  1.0000
  C   C17       1.0  0.05038  0.37611  0.54002  1.0000
  C   C18       1.0  0.44962  0.62389  0.04002  1.0000
  C   C19       1.0  0.94962  0.62389  0.45998  1.0000
  C   C20       1.0  0.55038  0.37611  0.95998  1.0000
  C   C21       1.0  0.92840  0.57676  0.88949  1.0000
  C   C22       1.0  0.57159  0.42324  0.38949  1.0000
  C   C23       1.0  0.07160  0.42324  0.11051  1.0000
  C   C24       1.0  0.42840  0.57676  0.61051  1.0000
  C   C25       1.0  0.02248  0.57163  0.79952  1.0000
  C   C26       1.0  0.47752  0.42837  0.29952  1.0000
  C   C27       1.0  0.97752  0.42837  0.20048  1.0000
  C   C28       1.0  0.52248  0.57163  0.70048  1.0000
  C   C29       1.0  0.01233  0.44826  0.72531  1.0000
  C   C30       1.0  0.48767  0.55174  0.22531  1.0000
  C   C31       1.0  0.98767  0.55174  0.27469  1.0000
  C   C32       1.0  0.51233  0.44826  0.77469  1.0000
  C   C33       1.0  0.48583  0.00394  0.06113  1.0000
  C   C34       1.0  0.01417  0.99606  0.56114  1.0000
  C   C35       1.0  0.51417  0.99606  0.93886  1.0000
  C   C36       1.0  0.98583  0.00395  0.43886  1.0000
  C   C37       1.0  0.91544  0.57046  0.57418  1.0000
  C   C38       1.0  0.58456  0.42955  0.07418  1.0000
  C   C39       1.0  0.08456  0.42955  0.42582  1.0000
  C   C40       1.0  0.41544  0.57046  0.92582  1.0000
  N   N1        1.0  0.02806  0.80990  0.92614  1.0000
  N   N2        1.0  0.47193  0.19009  0.42613  1.0000
  N   N3        1.0  0.97193  0.19009  0.07386  1.0000
  N   N4        1.0  0.52806  0.80990  0.57386  1.0000
  N   N5        1.0  0.03417  0.49137  0.61275  1.0000
  N   N6        1.0  0.46583  0.50863  0.11275  1.0000
  N   N7        1.0  0.96583  0.50863  0.38725  1.0000
  N   N8        1.0  0.53417  0.49137  0.88725  1.0000
  O   O1        1.0  0.23342  0.03777  0.02137  1.0000
  O   O2        1.0  0.26658  0.96223  0.52137  1.0000
  O   O3        1.0  0.76658  0.96223  0.97863  1.0000
  O   O4        1.0  0.73342  0.03777  0.47863  1.0000
  O   O5        1.0  0.27798  0.93013  0.17921  1.0000
  O   O6        1.0  0.22202  0.06987  0.67921  1.0000
  O   O7        1.0  0.72202  0.06987  0.82079  1.0000
  O   O8        1.0  0.77798  0.93013  0.32079  1.0000
  O   O9        1.0  0.02213  0.11441  0.84318  1.0000
  O   O10       1.0  0.47787  0.88559  0.34318  1.0000
  O   O11       1.0  0.97787  0.88559  0.15682  1.0000
  O   O12       1.0  0.52213  0.11441  0.65682  1.0000
