data_image0
_chemical_formula_structural       Zn2H60C46N8O8
_chemical_formula_sum              "Zn2 H60 C46 N8 O8"
_cell_length_a       7.54507
_cell_length_b       9.21187
_cell_length_c       18.1663
_cell_angle_alpha    87.5995
_cell_angle_beta     84.0645
_cell_angle_gamma    65.8214

_space_group_name_H-M_alt    "P 1"
_space_group_IT_number       1

loop_
  _space_group_symop_operation_xyz
  'x, y, z'

loop_
  _atom_site_type_symbol
  _atom_site_label
  _atom_site_symmetry_multiplicity
  _atom_site_fract_x
  _atom_site_fract_y
  _atom_site_fract_z
  _atom_site_occupancy
  Zn  Zn1       1.0  0.17156  0.65701  0.75009  1.0000
  Zn  Zn2       1.0  0.82844  0.34299  0.24991  1.0000
  H   H1        1.0  0.22545  0.32811  0.98645  1.0000
  H   H2        1.0  0.44634  0.32822  0.51350  1.0000
  H   H3        1.0  0.77455  0.67188  0.01355  1.0000
  H   H4        1.0  0.55366  0.67179  0.48650  1.0000
  H   H5        1.0  0.57872  0.52315  0.79313  1.0000
  H   H6        1.0  0.89851  0.52284  0.70716  1.0000
  H   H7        1.0  0.42128  0.47685  0.20687  1.0000
  H   H8        1.0  0.10149  0.47716  0.29284  1.0000
  H   H9        1.0  0.81993  0.05673  0.89119  1.0000
  H   H10       1.0  0.12392  0.05661  0.60871  1.0000
  H   H11       1.0  0.18007  0.94327  0.10881  1.0000
  H   H12       1.0  0.87608  0.94339  0.39129  1.0000
  H   H13       1.0  0.81513  0.92132  0.96373  1.0000
  H   H14       1.0  0.26360  0.92095  0.53611  1.0000
  H   H15       1.0  0.18487  0.07868  0.03628  1.0000
  H   H16       1.0  0.73640  0.07905  0.46389  1.0000
  H   H17       1.0  0.76269  0.35230  0.89342  1.0000
  H   H18       1.0  0.88534  0.35192  0.60683  1.0000
  H   H19       1.0  0.23731  0.64770  0.10658  1.0000
  H   H20       1.0  0.11467  0.64808  0.39317  1.0000
  H   H21       1.0  0.84504  0.98929  0.09282  1.0000
  H   H22       1.0  0.16570  0.98880  0.40714  1.0000
  H   H23       1.0  0.15496  0.01071  0.90718  1.0000
  H   H24       1.0  0.83430  0.01120  0.59286  1.0000
  H   H25       1.0  0.86253  0.17318  0.10691  1.0000
  H   H26       1.0  0.96465  0.17286  0.39305  1.0000
  H   H27       1.0  0.13747  0.82682  0.89309  1.0000
  H   H28       1.0  0.03535  0.82714  0.60695  1.0000
  H   H29       1.0  0.54823  0.19523  0.68473  1.0000
  H   H30       1.0  0.25666  0.19536  0.81551  1.0000
  H   H31       1.0  0.45177  0.80477  0.31527  1.0000
  H   H32       1.0  0.74335  0.80464  0.18449  1.0000
  H   H33       1.0  0.76149  0.04888  0.72078  1.0000
  H   H34       1.0  0.18954  0.04913  0.77943  1.0000
  H   H35       1.0  0.23851  0.95112  0.27922  1.0000
  H   H36       1.0  0.81046  0.95087  0.22057  1.0000
  H   H37       1.0  0.58286  0.19667  0.77974  1.0000
  H   H38       1.0  0.22056  0.19682  0.72053  1.0000
  H   H39       1.0  0.41714  0.80333  0.22026  1.0000
  H   H40       1.0  0.77944  0.80318  0.27947  1.0000
  H   H41       1.0  0.45686  0.98364  0.63594  1.0000
  H   H42       1.0  0.55953  0.98369  0.86422  1.0000
  H   H43       1.0  0.54314  0.01636  0.36406  1.0000
  H   H44       1.0  0.44047  0.01631  0.13578  1.0000
  H   H45       1.0  0.68515  0.85119  0.66402  1.0000
  H   H46       1.0  0.46342  0.85138  0.83613  1.0000
  H   H47       1.0  0.31485  0.14881  0.33598  1.0000
  H   H48       1.0  0.53658  0.14862  0.16387  1.0000
  H   H49       1.0  0.05937  0.50511  0.88253  1.0000
  H   H50       1.0  0.43555  0.50512  0.61754  1.0000
  H   H51       1.0  0.94064  0.49489  0.11747  1.0000
  H   H52       1.0  0.56445  0.49488  0.38247  1.0000
  H   H53       1.0  0.57101  0.29741  0.05960  1.0000
  H   H54       1.0  0.13185  0.29724  0.44044  1.0000
  H   H55       1.0  0.42899  0.70259  0.94040  1.0000
  H   H56       1.0  0.86815  0.70276  0.55956  1.0000
  H   H57       1.0  0.53734  0.13600  0.02461  1.0000
  H   H58       1.0  0.32695  0.13589  0.47542  1.0000
  H   H59       1.0  0.46266  0.86400  0.97539  1.0000
  H   H60       1.0  0.67305  0.86411  0.52458  1.0000
  C   C1        1.0  0.49420  0.01163  0.75009  1.0000
  C   C2        1.0  0.50580  0.98837  0.24991  1.0000
  C   C3        1.0  0.30874  0.36925  0.94453  1.0000
  C   C4        1.0  0.32206  0.36923  0.55551  1.0000
  C   C5        1.0  0.69127  0.63075  0.05547  1.0000
  C   C6        1.0  0.67794  0.63077  0.44449  1.0000
  C   C7        1.0  0.50935  0.32372  0.94778  1.0000
  C   C8        1.0  0.16703  0.32358  0.55231  1.0000
  C   C9        1.0  0.49065  0.67628  0.05222  1.0000
  C   C10       1.0  0.83297  0.67642  0.44769  1.0000
  C   C11       1.0  0.45745  0.77261  0.68966  1.0000
  C   C12       1.0  0.76979  0.77256  0.81047  1.0000
  C   C13       1.0  0.54254  0.22739  0.31034  1.0000
  C   C14       1.0  0.23021  0.22744  0.18953  1.0000
  C   C15       1.0  0.50570  0.47739  0.83691  1.0000
  C   C16       1.0  0.01718  0.47715  0.66329  1.0000
  C   C17       1.0  0.49431  0.52261  0.16309  1.0000
  C   C18       1.0  0.98282  0.52285  0.33671  1.0000
  C   C19       1.0  0.87677  0.00908  0.94441  1.0000
  C   C20       1.0  0.11438  0.00894  0.55553  1.0000
  C   C21       1.0  0.12323  0.99092  0.05559  1.0000
  C   C22       1.0  0.88562  0.99105  0.44447  1.0000
  C   C23       1.0  0.60769  0.38137  0.89283  1.0000
  C   C24       1.0  0.01117  0.38111  0.60734  1.0000
  C   C25       1.0  0.39231  0.61863  0.10717  1.0000
  C   C26       1.0  0.98883  0.61889  0.39266  1.0000
  C   C27       1.0  0.90265  0.07496  0.06758  1.0000
  C   C28       1.0  0.02253  0.07473  0.43240  1.0000
  C   C29       1.0  0.09735  0.92504  0.93242  1.0000
  C   C30       1.0  0.97747  0.92527  0.56760  1.0000
  C   C31       1.0  0.60443  0.11876  0.73248  1.0000
  C   C32       1.0  0.27683  0.11891  0.76774  1.0000
  C   C33       1.0  0.39557  0.88124  0.26752  1.0000
  C   C34       1.0  0.72317  0.88109  0.23226  1.0000
  C   C35       1.0  0.52850  0.90603  0.68153  1.0000
  C   C36       1.0  0.56538  0.90606  0.81862  1.0000
  C   C37       1.0  0.47150  0.09397  0.31847  1.0000
  C   C38       1.0  0.43462  0.09394  0.18138  1.0000
  C   C39       1.0  0.21522  0.46670  0.88777  1.0000
  C   C40       1.0  0.31815  0.46667  0.61232  1.0000
  C   C41       1.0  0.78479  0.53330  0.11223  1.0000
  C   C42       1.0  0.68184  0.53334  0.38768  1.0000
  C   C43       1.0  0.60741  0.22031  0.01057  1.0000
  C   C44       1.0  0.17249  0.22016  0.48945  1.0000
  C   C45       1.0  0.39259  0.77969  0.98943  1.0000
  C   C46       1.0  0.82751  0.77984  0.51055  1.0000
  N   N1        1.0  0.31285  0.51930  0.83413  1.0000
  N   N2        1.0  0.16804  0.51916  0.66603  1.0000
  N   N3        1.0  0.68716  0.48070  0.16587  1.0000
  N   N4        1.0  0.83196  0.48084  0.33397  1.0000
  N   N5        1.0  0.81818  0.13843  0.99799  1.0000
  N   N6        1.0  0.04367  0.13825  0.50198  1.0000
  N   N7        1.0  0.18182  0.86156  0.00201  1.0000
  N   N8        1.0  0.95633  0.86175  0.49802  1.0000
  O   O1        1.0  0.27991  0.81292  0.71940  1.0000
  O   O2        1.0  0.90706  0.81276  0.78069  1.0000
  O   O3        1.0  0.72009  0.18708  0.28059  1.0000
  O   O4        1.0  0.09294  0.18724  0.21931  1.0000
  O   O5        1.0  0.56852  0.63496  0.66764  1.0000
  O   O6        1.0  0.79636  0.63497  0.83251  1.0000
  O   O7        1.0  0.43148  0.36503  0.33236  1.0000
  O   O8        1.0  0.20364  0.36503  0.16749  1.0000
