data_image0
_chemical_formula_structural       Cd2H68C52N8O8
_chemical_formula_sum              "Cd2 H68 C52 N8 O8"
_cell_length_a       11.4083
_cell_length_b       11.3534
_cell_length_c       13.0247
_cell_angle_alpha    76.9534
_cell_angle_beta     80.7195
_cell_angle_gamma    65.1014

_space_group_name_H-M_alt    "P 1"
_space_group_IT_number       1

loop_
  _space_group_symop_operation_xyz
  'x, y, z'

loop_
  _atom_site_type_symbol
  _atom_site_label
  _atom_site_symmetry_multiplicity
  _atom_site_fract_x
  _atom_site_fract_y
  _atom_site_fract_z
  _atom_site_occupancy
  Cd  Cd1       1.0  0.65984  0.61838  0.18119  1.0000
  Cd  Cd2       1.0  0.34016  0.38161  0.81881  1.0000
  H   H1        1.0  0.50733  0.53711  0.40544  1.0000
  H   H2        1.0  0.49269  0.46287  0.59457  1.0000
  H   H3        1.0  0.43757  0.32254  0.46437  1.0000
  H   H4        1.0  0.56244  0.67745  0.53563  1.0000
  H   H5        1.0  0.69306  0.36972  0.08367  1.0000
  H   H6        1.0  0.30694  0.63028  0.91634  1.0000
  H   H7        1.0  0.56479  0.31774  0.08106  1.0000
  H   H8        1.0  0.43520  0.68227  0.91895  1.0000
  H   H9        1.0  0.71120  0.20509  0.13821  1.0000
  H   H10       1.0  0.28880  0.79492  0.86179  1.0000
  H   H11       1.0  0.57800  0.11885  0.24506  1.0000
  H   H12       1.0  0.42200  0.88114  0.75494  1.0000
  H   H13       1.0  0.41050  0.20870  0.26303  1.0000
  H   H14       1.0  0.58949  0.79130  0.73698  1.0000
  H   H15       1.0  0.75788  0.92110  0.30711  1.0000
  H   H16       1.0  0.24211  0.07890  0.69290  1.0000
  H   H17       1.0  0.82724  0.91848  0.42048  1.0000
  H   H18       1.0  0.17275  0.08152  0.57953  1.0000
  H   H19       1.0  0.74498  0.07029  0.34020  1.0000
  H   H20       1.0  0.25502  0.92971  0.65980  1.0000
  H   H21       1.0  0.19375  0.18467  0.40271  1.0000
  H   H22       1.0  0.80624  0.81533  0.59729  1.0000
  H   H23       1.0  0.27365  0.29345  0.37327  1.0000
  H   H24       1.0  0.72634  0.70655  0.62674  1.0000
  H   H25       1.0  0.20267  0.26389  0.50124  1.0000
  H   H26       1.0  0.79732  0.73611  0.49876  1.0000
  H   H27       1.0  0.54429  0.84713  0.33734  1.0000
  H   H28       1.0  0.45571  0.15287  0.66266  1.0000
  H   H29       1.0  0.28392  0.96599  0.40777  1.0000
  H   H30       1.0  0.71609  0.03401  0.59223  1.0000
  H   H31       1.0  0.39575  0.68227  0.10106  1.0000
  H   H32       1.0  0.60425  0.31773  0.89893  1.0000
  H   H33       1.0  0.23494  0.80612  0.10115  1.0000
  H   H34       1.0  0.76506  0.19388  0.89885  1.0000
  H   H35       1.0  0.27243  0.65776  0.19520  1.0000
  H   H36       1.0  0.72758  0.34224  0.80479  1.0000
  H   H37       1.0  0.09898  0.83097  0.29213  1.0000
  H   H38       1.0  0.90102  0.16903  0.70786  1.0000
  H   H39       1.0  0.08009  0.99334  0.23365  1.0000
  H   H40       1.0  0.91991  0.00666  0.76635  1.0000
  H   H41       1.0  0.19542  0.69838  0.41759  1.0000
  H   H42       1.0  0.80458  0.30162  0.58241  1.0000
  H   H43       1.0  0.08826  0.66100  0.52112  1.0000
  H   H44       1.0  0.91174  0.33900  0.47888  1.0000
  H   H45       1.0  0.22500  0.67597  0.55072  1.0000
  H   H46       1.0  0.77500  0.32403  0.44928  1.0000
  H   H47       1.0  0.07225  0.17581  0.25927  1.0000
  H   H48       1.0  0.92775  0.82419  0.74073  1.0000
  H   H49       1.0  0.94304  0.29688  0.32136  1.0000
  H   H50       1.0  0.05696  0.70312  0.67864  1.0000
  H   H51       1.0  0.91056  0.19735  0.25421  1.0000
  H   H52       1.0  0.08944  0.80265  0.74579  1.0000
  H   H53       1.0  0.94909  0.63565  0.40177  1.0000
  H   H54       1.0  0.05091  0.36434  0.59823  1.0000
  H   H55       1.0  0.96710  0.74089  0.28188  1.0000
  H   H56       1.0  0.03290  0.25911  0.71812  1.0000
  H   H57       1.0  0.07337  0.43865  0.32188  1.0000
  H   H58       1.0  0.92663  0.56135  0.67812  1.0000
  H   H59       1.0  0.16674  0.53082  0.31737  1.0000
  H   H60       1.0  0.83326  0.46918  0.68263  1.0000
  H   H61       1.0  0.03196  0.52606  0.13179  1.0000
  H   H62       1.0  0.96804  0.47394  0.86821  1.0000
  H   H63       1.0  0.11360  0.62908  0.12452  1.0000
  H   H64       1.0  0.88640  0.37092  0.87548  1.0000
  H   H65       1.0  0.23454  0.32628  0.17914  1.0000
  H   H66       1.0  0.76547  0.67372  0.82086  1.0000
  H   H67       1.0  0.31900  0.42640  0.17458  1.0000
  H   H68       1.0  0.68100  0.57360  0.82542  1.0000
  C   C1        1.0  0.52166  0.46021  0.36238  1.0000
  C   C2        1.0  0.47834  0.53979  0.63763  1.0000
  C   C3        1.0  0.48500  0.35610  0.39210  1.0000
  C   C4        1.0  0.51501  0.64389  0.60791  1.0000
  C   C5        1.0  0.58654  0.35165  0.23063  1.0000
  C   C6        1.0  0.41346  0.64835  0.76938  1.0000
  C   C7        1.0  0.64171  0.30896  0.12749  1.0000
  C   C8        1.0  0.35829  0.69104  0.87251  1.0000
  C   C9        1.0  0.50181  0.17385  0.29991  1.0000
  C   C10       1.0  0.49819  0.82614  0.70009  1.0000
  C   C11       1.0  0.50005  0.08630  0.40535  1.0000
  C   C12       1.0  0.49994  0.91370  0.59466  1.0000
  C   C13       1.0  0.61805  0.98533  0.43856  1.0000
  C   C14       1.0  0.38194  0.01467  0.56145  1.0000
  C   C15       1.0  0.74320  0.97309  0.37328  1.0000
  C   C16       1.0  0.25679  0.02692  0.62673  1.0000
  C   C17       1.0  0.38244  0.10377  0.46684  1.0000
  C   C18       1.0  0.61756  0.89624  0.53317  1.0000
  C   C19       1.0  0.25769  0.21668  0.43385  1.0000
  C   C20       1.0  0.74231  0.78332  0.56615  1.0000
  C   C21       1.0  0.45873  0.84451  0.31376  1.0000
  C   C22       1.0  0.54128  0.15549  0.68624  1.0000
  C   C23       1.0  0.33103  0.90516  0.34815  1.0000
  C   C24       1.0  0.66897  0.09484  0.65185  1.0000
  C   C25       1.0  0.34711  0.79055  0.22488  1.0000
  C   C26       1.0  0.65289  0.20946  0.77512  1.0000
  C   C27       1.0  0.31015  0.73117  0.15175  1.0000
  C   C28       1.0  0.68985  0.26883  0.84825  1.0000
  C   C29       1.0  0.11984  0.91421  0.30054  1.0000
  C   C30       1.0  0.88017  0.08579  0.69945  1.0000
  C   C31       1.0  0.05859  0.95908  0.40445  1.0000
  C   C32       1.0  0.94141  0.04092  0.59555  1.0000
  C   C33       1.0  0.07078  0.86351  0.49724  1.0000
  C   C34       1.0  0.92921  0.13649  0.50275  1.0000
  C   C35       1.0  0.14824  0.71847  0.49550  1.0000
  C   C36       1.0  0.85176  0.28153  0.50450  1.0000
  C   C37       1.0  0.98957  0.09512  0.40615  1.0000
  C   C38       1.0  0.01043  0.90487  0.59385  1.0000
  C   C39       1.0  0.97870  0.19609  0.30602  1.0000
  C   C40       1.0  0.02130  0.80391  0.69397  1.0000
  C   C41       1.0  0.84136  0.64558  0.27704  1.0000
  C   C42       1.0  0.15863  0.35443  0.72296  1.0000
  C   C43       1.0  0.96059  0.64573  0.31509  1.0000
  C   C44       1.0  0.03941  0.35427  0.68490  1.0000
  C   C45       1.0  0.08343  0.53122  0.28401  1.0000
  C   C46       1.0  0.91657  0.46878  0.71599  1.0000
  C   C47       1.0  0.11077  0.53383  0.16486  1.0000
  C   C48       1.0  0.88924  0.46617  0.83514  1.0000
  C   C49       1.0  0.23887  0.42171  0.14066  1.0000
  C   C50       1.0  0.76114  0.57830  0.85934  1.0000
  C   C51       1.0  0.27916  0.41177  0.02493  1.0000
  C   C52       1.0  0.72085  0.58823  0.97507  1.0000
  N   N1        1.0  0.58470  0.45632  0.26253  1.0000
  N   N2        1.0  0.41532  0.54367  0.73748  1.0000
  N   N3        1.0  0.52636  0.28829  0.30813  1.0000
  N   N4        1.0  0.47363  0.71171  0.69187  1.0000
  N   N5        1.0  0.46735  0.77380  0.23755  1.0000
  N   N6        1.0  0.53265  0.22620  0.76245  1.0000
  N   N7        1.0  0.26154  0.87051  0.29155  1.0000
  N   N8        1.0  0.73846  0.12949  0.70845  1.0000
  O   O1        1.0  0.77160  0.74606  0.21448  1.0000
  O   O2        1.0  0.22840  0.25395  0.78551  1.0000
  O   O3        1.0  0.81860  0.54151  0.30722  1.0000
  O   O4        1.0  0.18140  0.45850  0.69278  1.0000
  O   O5        1.0  0.19668  0.47810  0.95616  1.0000
  O   O6        1.0  0.80333  0.52190  0.04384  1.0000
  O   O7        1.0  0.39546  0.33473  0.00094  1.0000
  O   O8        1.0  0.60455  0.66528  0.99906  1.0000
