data_image0
_chemical_formula_structural       La4H36C64O32
_chemical_formula_sum              "La4 H36 C64 O32"
_cell_length_a       7.93802
_cell_length_b       11.2977
_cell_length_c       16.8714
_cell_angle_alpha    90
_cell_angle_beta     90
_cell_angle_gamma    98.1229

_space_group_name_H-M_alt    "P 1"
_space_group_IT_number       1

loop_
  _space_group_symop_operation_xyz
  'x, y, z'

loop_
  _atom_site_type_symbol
  _atom_site_label
  _atom_site_symmetry_multiplicity
  _atom_site_fract_x
  _atom_site_fract_y
  _atom_site_fract_z
  _atom_site_occupancy
  La  La1       1.0  0.98716  0.70188  0.20644  1.0000
  La  La2       1.0  0.51284  0.29812  0.70644  1.0000
  La  La3       1.0  0.01284  0.29812  0.79356  1.0000
  La  La4       1.0  0.48716  0.70188  0.29356  1.0000
  H   H1        1.0  0.16193  0.96030  0.12172  1.0000
  H   H2        1.0  0.33806  0.03970  0.62172  1.0000
  H   H3        1.0  0.83807  0.03970  0.87828  1.0000
  H   H4        1.0  0.66194  0.96030  0.37828  1.0000
  H   H5        1.0  0.23348  0.05090  0.93075  1.0000
  H   H6        1.0  0.26652  0.94911  0.43075  1.0000
  H   H7        1.0  0.76652  0.94910  0.06925  1.0000
  H   H8        1.0  0.73348  0.05090  0.56925  1.0000
  H   H9        1.0  0.19827  0.85123  0.71318  1.0000
  H   H10       1.0  0.30172  0.14877  0.21318  1.0000
  H   H11       1.0  0.80172  0.14877  0.28682  1.0000
  H   H12       1.0  0.69828  0.85123  0.78682  1.0000
  H   H13       1.0  0.06416  0.66885  0.78594  1.0000
  H   H14       1.0  0.43584  0.33115  0.28594  1.0000
  H   H15       1.0  0.93584  0.33115  0.21407  1.0000
  H   H16       1.0  0.56416  0.66885  0.71406  1.0000
  H   H17       1.0  0.01775  0.67856  0.93143  1.0000
  H   H18       1.0  0.48225  0.32144  0.43143  1.0000
  H   H19       1.0  0.98225  0.32144  0.06857  1.0000
  H   H20       1.0  0.51775  0.67856  0.56857  1.0000
  H   H21       1.0  0.21523  0.50672  0.97596  1.0000
  H   H22       1.0  0.28477  0.49328  0.47596  1.0000
  H   H23       1.0  0.78477  0.49328  0.02404  1.0000
  H   H24       1.0  0.71523  0.50672  0.52404  1.0000
  H   H25       1.0  0.66518  0.66028  0.85084  1.0000
  H   H26       1.0  0.83482  0.33972  0.35084  1.0000
  H   H27       1.0  0.33482  0.33971  0.14916  1.0000
  H   H28       1.0  0.16518  0.66028  0.64916  1.0000
  H   H29       1.0  0.73832  0.80612  0.96153  1.0000
  H   H30       1.0  0.76168  0.19388  0.46153  1.0000
  H   H31       1.0  0.26168  0.19387  0.03847  1.0000
  H   H32       1.0  0.23832  0.80612  0.53847  1.0000
  H   H33       1.0  0.55549  0.79305  0.08221  1.0000
  H   H34       1.0  0.94451  0.20694  0.58221  1.0000
  H   H35       1.0  0.44451  0.20694  0.91779  1.0000
  H   H36       1.0  0.05549  0.79306  0.41779  1.0000
  C   C1        1.0  0.12657  0.86474  0.94049  1.0000
  C   C2        1.0  0.37342  0.13526  0.44049  1.0000
  C   C3        1.0  0.87343  0.13526  0.05951  1.0000
  C   C4        1.0  0.62657  0.86474  0.55951  1.0000
  C   C5        1.0  0.19789  0.96707  0.89937  1.0000
  C   C6        1.0  0.30211  0.03293  0.39937  1.0000
  C   C7        1.0  0.80211  0.03293  0.10063  1.0000
  C   C8        1.0  0.69790  0.96707  0.60063  1.0000
  C   C9        1.0  0.22213  0.96255  0.81756  1.0000
  C   C10       1.0  0.27787  0.03745  0.31756  1.0000
  C   C11       1.0  0.77786  0.03745  0.18245  1.0000
  C   C12       1.0  0.72214  0.96255  0.68244  1.0000
  C   C13       1.0  0.17693  0.85439  0.77692  1.0000
  C   C14       1.0  0.32307  0.14561  0.27692  1.0000
  C   C15       1.0  0.82307  0.14561  0.22308  1.0000
  C   C16       1.0  0.67693  0.85439  0.72308  1.0000
  C   C17       1.0  0.10160  0.75277  0.81751  1.0000
  C   C18       1.0  0.39840  0.24723  0.31751  1.0000
  C   C19       1.0  0.89840  0.24723  0.18249  1.0000
  C   C20       1.0  0.60161  0.75277  0.68249  1.0000
  C   C21       1.0  0.07544  0.75770  0.89919  1.0000
  C   C22       1.0  0.42456  0.24231  0.39919  1.0000
  C   C23       1.0  0.92456  0.24230  0.10081  1.0000
  C   C24       1.0  0.57545  0.75770  0.60081  1.0000
  C   C25       1.0  0.10334  0.86901  0.02736  1.0000
  C   C26       1.0  0.39665  0.13099  0.52736  1.0000
  C   C27       1.0  0.89665  0.13098  0.97265  1.0000
  C   C28       1.0  0.60335  0.86901  0.47264  1.0000
  C   C29       1.0  0.29559  0.07401  0.77581  1.0000
  C   C30       1.0  0.20441  0.92599  0.27581  1.0000
  C   C31       1.0  0.70440  0.92599  0.22419  1.0000
  C   C32       1.0  0.79560  0.07401  0.72419  1.0000
  C   C33       1.0  0.37508  0.64900  0.03683  1.0000
  C   C34       1.0  0.12492  0.35100  0.53683  1.0000
  C   C35       1.0  0.62492  0.35100  0.96317  1.0000
  C   C36       1.0  0.87507  0.64900  0.46317  1.0000
  C   C37       1.0  0.32959  0.57227  0.97290  1.0000
  C   C38       1.0  0.17041  0.42773  0.47290  1.0000
  C   C39       1.0  0.67041  0.42773  0.02710  1.0000
  C   C40       1.0  0.82958  0.57227  0.52710  1.0000
  C   C41       1.0  0.43380  0.57764  0.90593  1.0000
  C   C42       1.0  0.06620  0.42236  0.40593  1.0000
  C   C43       1.0  0.56620  0.42236  0.09407  1.0000
  C   C44       1.0  0.93380  0.57764  0.59407  1.0000
  C   C45       1.0  0.58239  0.66099  0.90231  1.0000
  C   C46       1.0  0.91761  0.33901  0.40231  1.0000
  C   C47       1.0  0.41762  0.33901  0.09769  1.0000
  C   C48       1.0  0.08239  0.66099  0.59769  1.0000
  C   C49       1.0  0.62409  0.74053  0.96462  1.0000
  C   C50       1.0  0.87591  0.25947  0.46462  1.0000
  C   C51       1.0  0.37591  0.25947  0.03538  1.0000
  C   C52       1.0  0.12409  0.74053  0.53538  1.0000
  C   C53       1.0  0.52133  0.73420  0.03196  1.0000
  C   C54       1.0  0.97867  0.26580  0.53196  1.0000
  C   C55       1.0  0.47867  0.26579  0.96804  1.0000
  C   C56       1.0  0.02133  0.73420  0.46804  1.0000
  C   C57       1.0  0.26713  0.63985  0.10922  1.0000
  C   C58       1.0  0.23287  0.36015  0.60922  1.0000
  C   C59       1.0  0.73286  0.36015  0.89078  1.0000
  C   C60       1.0  0.76713  0.63985  0.39078  1.0000
  C   C61       1.0  0.39121  0.48987  0.84051  1.0000
  C   C62       1.0  0.10879  0.51013  0.34051  1.0000
  C   C63       1.0  0.60879  0.51013  0.15949  1.0000
  C   C64       1.0  0.89121  0.48987  0.65949  1.0000
  O   O1        1.0  0.18565  0.96561  0.06254  1.0000
  O   O2        1.0  0.31434  0.03439  0.56254  1.0000
  O   O3        1.0  0.81435  0.03439  0.93746  1.0000
  O   O4        1.0  0.68566  0.96561  0.43746  1.0000
  O   O5        1.0  0.01308  0.78843  0.06441  1.0000
  O   O6        1.0  0.48692  0.21158  0.56441  1.0000
  O   O7        1.0  0.98693  0.21158  0.93559  1.0000
  O   O8        1.0  0.51308  0.78842  0.43559  1.0000
  O   O9        1.0  0.38284  0.06833  0.71229  1.0000
  O   O10       1.0  0.11715  0.93167  0.21229  1.0000
  O   O11       1.0  0.61715  0.93167  0.28771  1.0000
  O   O12       1.0  0.88285  0.06833  0.78771  1.0000
  O   O13       1.0  0.27708  0.17532  0.80602  1.0000
  O   O14       1.0  0.22292  0.82468  0.30602  1.0000
  O   O15       1.0  0.72292  0.82468  0.19398  1.0000
  O   O16       1.0  0.77709  0.17532  0.69398  1.0000
  O   O17       1.0  0.12940  0.56875  0.11191  1.0000
  O   O18       1.0  0.37059  0.43125  0.61191  1.0000
  O   O19       1.0  0.87059  0.43125  0.88808  1.0000
  O   O20       1.0  0.62941  0.56875  0.38809  1.0000
  O   O21       1.0  0.31179  0.71208  0.16845  1.0000
  O   O22       1.0  0.18820  0.28792  0.66845  1.0000
  O   O23       1.0  0.68820  0.28791  0.83155  1.0000
  O   O24       1.0  0.81180  0.71208  0.33155  1.0000
  O   O25       1.0  0.49877  0.48295  0.78546  1.0000
  O   O26       1.0  0.00123  0.51705  0.28546  1.0000
  O   O27       1.0  0.50123  0.51705  0.21454  1.0000
  O   O28       1.0  0.99877  0.48295  0.71454  1.0000
  O   O29       1.0  0.24825  0.42239  0.84417  1.0000
  O   O30       1.0  0.25175  0.57761  0.34417  1.0000
  O   O31       1.0  0.75175  0.57760  0.15583  1.0000
  O   O32       1.0  0.74825  0.42240  0.65583  1.0000
