data_image0
_chemical_formula_structural       Zn4B16H40C12N8O28
_chemical_formula_sum              "Zn4 B16 H40 C12 N8 O28"
_cell_length_a       8.60357
_cell_length_b       8.60352
_cell_length_c       12.6425
_cell_angle_alpha    90
_cell_angle_beta     89.9999
_cell_angle_gamma    90.0001

_space_group_name_H-M_alt    "P 1"
_space_group_IT_number       1

loop_
  _space_group_symop_operation_xyz
  'x, y, z'

loop_
  _atom_site_type_symbol
  _atom_site_label
  _atom_site_symmetry_multiplicity
  _atom_site_fract_x
  _atom_site_fract_y
  _atom_site_fract_z
  _atom_site_occupancy
  Zn  Zn1       1.0  0.57250  0.57250  0.00000  1.0000
  Zn  Zn2       1.0  0.42750  0.42750  0.50000  1.0000
  Zn  Zn3       1.0  0.92750  0.07250  0.75000  1.0000
  Zn  Zn4       1.0  0.07250  0.92750  0.25000  1.0000
  B   B1        1.0  0.54117  0.75040  0.21041  1.0000
  B   B2        1.0  0.45884  0.24961  0.71041  1.0000
  B   B3        1.0  0.74960  0.04117  0.96041  1.0000
  B   B4        1.0  0.25039  0.95884  0.46041  1.0000
  B   B5        1.0  0.95883  0.25040  0.53959  1.0000
  B   B6        1.0  0.04116  0.74961  0.03959  1.0000
  B   B7        1.0  0.75040  0.54116  0.78959  1.0000
  B   B8        1.0  0.24960  0.45883  0.28959  1.0000
  B   B9        1.0  0.77611  0.83038  0.09347  1.0000
  B   B10       1.0  0.22389  0.16962  0.59347  1.0000
  B   B11       1.0  0.66962  0.27611  0.84347  1.0000
  B   B12       1.0  0.33038  0.72389  0.34347  1.0000
  B   B13       1.0  0.72389  0.33038  0.65653  1.0000
  B   B14       1.0  0.27611  0.66962  0.15653  1.0000
  B   B15       1.0  0.83038  0.77611  0.90653  1.0000
  B   B16       1.0  0.16962  0.22389  0.40653  1.0000
  H   H1        1.0  0.60246  0.29244  0.05289  1.0000
  H   H2        1.0  0.39755  0.70756  0.55289  1.0000
  H   H3        1.0  0.20757  0.10246  0.80288  1.0000
  H   H4        1.0  0.79242  0.89754  0.30288  1.0000
  H   H5        1.0  0.89754  0.79243  0.69711  1.0000
  H   H6        1.0  0.10246  0.20757  0.19711  1.0000
  H   H7        1.0  0.29243  0.60246  0.94712  1.0000
  H   H8        1.0  0.70757  0.39754  0.44712  1.0000
  H   H9        1.0  0.49119  0.38658  0.14220  1.0000
  H   H10       1.0  0.50881  0.61342  0.64220  1.0000
  H   H11       1.0  0.11342  0.99120  0.89219  1.0000
  H   H12       1.0  0.88658  0.00879  0.39219  1.0000
  H   H13       1.0  0.00880  0.88658  0.60780  1.0000
  H   H14       1.0  0.99119  0.11342  0.10780  1.0000
  H   H15       1.0  0.38658  0.49120  0.85781  1.0000
  H   H16       1.0  0.61342  0.50880  0.35781  1.0000
  H   H17       1.0  0.84664  0.26934  0.29314  1.0000
  H   H18       1.0  0.15336  0.73066  0.79314  1.0000
  H   H19       1.0  0.23066  0.34664  0.04314  1.0000
  H   H20       1.0  0.76934  0.65336  0.54314  1.0000
  H   H21       1.0  0.65336  0.76934  0.45686  1.0000
  H   H22       1.0  0.34664  0.23066  0.95686  1.0000
  H   H23       1.0  0.26934  0.84664  0.70686  1.0000
  H   H24       1.0  0.73066  0.15336  0.20686  1.0000
  H   H25       1.0  0.73560  0.51102  0.20777  1.0000
  H   H26       1.0  0.26440  0.48898  0.70777  1.0000
  H   H27       1.0  0.98898  0.23560  0.95777  1.0000
  H   H28       1.0  0.01102  0.76440  0.45777  1.0000
  H   H29       1.0  0.76440  0.01102  0.54223  1.0000
  H   H30       1.0  0.23560  0.98898  0.04223  1.0000
  H   H31       1.0  0.51102  0.73559  0.79223  1.0000
  H   H32       1.0  0.48897  0.26441  0.29223  1.0000
  H   H33       1.0  0.83350  0.39133  0.11782  1.0000
  H   H34       1.0  0.16650  0.60867  0.61782  1.0000
  H   H35       1.0  0.10868  0.33350  0.86782  1.0000
  H   H36       1.0  0.89132  0.66650  0.36782  1.0000
  H   H37       1.0  0.66650  0.89132  0.63218  1.0000
  H   H38       1.0  0.33350  0.10868  0.13218  1.0000
  H   H39       1.0  0.39133  0.83350  0.88218  1.0000
  H   H40       1.0  0.60867  0.16650  0.38218  1.0000
  C   C1        1.0  0.73561  0.26439  0.25000  1.0000
  C   C2        1.0  0.26439  0.73561  0.75000  1.0000
  C   C3        1.0  0.23562  0.23562  0.00000  1.0000
  C   C4        1.0  0.76438  0.76438  0.50000  1.0000
  C   C5        1.0  0.73094  0.39626  0.16957  1.0000
  C   C6        1.0  0.26906  0.60374  0.66957  1.0000
  C   C7        1.0  0.10374  0.23094  0.91957  1.0000
  C   C8        1.0  0.89625  0.76906  0.41957  1.0000
  C   C9        1.0  0.76906  0.89626  0.58043  1.0000
  C   C10       1.0  0.23094  0.10374  0.08043  1.0000
  C   C11       1.0  0.39626  0.73094  0.83043  1.0000
  C   C12       1.0  0.60374  0.26906  0.33043  1.0000
  N   N1        1.0  0.59261  0.39058  0.09958  1.0000
  N   N2        1.0  0.40738  0.60942  0.59958  1.0000
  N   N3        1.0  0.10941  0.09260  0.84959  1.0000
  N   N4        1.0  0.89059  0.90740  0.34959  1.0000
  N   N5        1.0  0.90739  0.89058  0.65042  1.0000
  N   N6        1.0  0.09261  0.10942  0.15042  1.0000
  N   N7        1.0  0.39059  0.59261  0.90041  1.0000
  N   N8        1.0  0.60941  0.40740  0.40041  1.0000
  O   O1        1.0  0.44343  0.70361  0.12949  1.0000
  O   O2        1.0  0.55656  0.29639  0.62949  1.0000
  O   O3        1.0  0.79639  0.94343  0.87949  1.0000
  O   O4        1.0  0.20361  0.05656  0.37949  1.0000
  O   O5        1.0  0.05657  0.20361  0.62051  1.0000
  O   O6        1.0  0.94344  0.79639  0.12051  1.0000
  O   O7        1.0  0.70361  0.44343  0.87051  1.0000
  O   O8        1.0  0.29639  0.55657  0.37051  1.0000
  O   O9        1.0  0.73345  0.73345  1.00000  1.0000
  O   O10       1.0  0.26655  0.26655  0.50000  1.0000
  O   O11       1.0  0.76655  0.23345  0.75000  1.0000
  O   O12       1.0  0.23345  0.76655  0.25000  1.0000
  O   O13       1.0  0.49600  0.74252  0.31460  1.0000
  O   O14       1.0  0.50400  0.25748  0.81460  1.0000
  O   O15       1.0  0.75748  0.99600  0.06460  1.0000
  O   O16       1.0  0.24252  0.00400  0.56460  1.0000
  O   O17       1.0  0.00400  0.24252  0.43540  1.0000
  O   O18       1.0  0.99600  0.75748  0.93540  1.0000
  O   O19       1.0  0.74252  0.49600  0.68540  1.0000
  O   O20       1.0  0.25748  0.50400  0.18540  1.0000
  O   O21       1.0  0.68968  0.79743  0.18936  1.0000
  O   O22       1.0  0.31031  0.20257  0.68936  1.0000
  O   O23       1.0  0.70257  0.18969  0.93936  1.0000
  O   O24       1.0  0.29743  0.81031  0.43936  1.0000
  O   O25       1.0  0.81032  0.29743  0.56064  1.0000
  O   O26       1.0  0.18969  0.70257  0.06064  1.0000
  O   O27       1.0  0.79743  0.68969  0.81064  1.0000
  O   O28       1.0  0.20257  0.31032  0.31064  1.0000
