data_image0
_chemical_formula_structural       Co6H12C24O18
_chemical_formula_sum              "Co6 H12 C24 O18"
_cell_length_a       6.66784
_cell_length_b       15.1151
_cell_length_c       15.1152
_cell_angle_alpha    117.894
_cell_angle_beta     98.4342
_cell_angle_gamma    98.4353

_space_group_name_H-M_alt    "P 1"
_space_group_IT_number       1

loop_
  _space_group_symop_operation_xyz
  'x, y, z'

loop_
  _atom_site_type_symbol
  _atom_site_label
  _atom_site_symmetry_multiplicity
  _atom_site_fract_x
  _atom_site_fract_y
  _atom_site_fract_z
  _atom_site_occupancy
  Co  Co1       1.0  0.81208  0.41881  0.69760  1.0000
  Co  Co2       1.0  0.39341  0.27891  0.58128  1.0000
  Co  Co3       1.0  0.11489  0.30231  0.72124  1.0000
  Co  Co4       1.0  0.11490  0.72124  0.30231  1.0000
  Co  Co5       1.0  0.39340  0.58128  0.27891  1.0000
  Co  Co6       1.0  0.81207  0.69761  0.41881  1.0000
  H   H1        1.0  0.77386  0.51727  0.76775  1.0000
  H   H2        1.0  0.25684  0.25061  0.48287  1.0000
  H   H3        1.0  0.00705  0.23228  0.74974  1.0000
  H   H4        1.0  0.00704  0.74974  0.23227  1.0000
  H   H5        1.0  0.25684  0.48287  0.25060  1.0000
  H   H6        1.0  0.77385  0.76775  0.51727  1.0000
  H   H7        1.0  0.73396  0.47972  0.47971  1.0000
  H   H8        1.0  0.25430  0.99983  0.52014  1.0000
  H   H9        1.0  0.25431  0.52013  0.99983  1.0000
  H   H10       1.0  0.08840  0.57662  0.57662  1.0000
  H   H11       1.0  0.51216  0.00007  0.42352  1.0000
  H   H12       1.0  0.51216  0.42352  0.00007  1.0000
  C   C1        1.0  0.50093  0.46478  0.55970  1.0000
  C   C2        1.0  0.03629  0.09485  0.53526  1.0000
  C   C3        1.0  0.94142  0.44021  0.90497  1.0000
  C   C4        1.0  0.94141  0.90497  0.44021  1.0000
  C   C5        1.0  0.03630  0.53526  0.09485  1.0000
  C   C6        1.0  0.50092  0.55971  0.46477  1.0000
  C   C7        1.0  0.59340  0.50213  0.50212  1.0000
  C   C8        1.0  0.09140  0.99988  0.49781  1.0000
  C   C9        1.0  0.09140  0.49780  0.99987  1.0000
  C   C10       1.0  0.31424  0.49326  0.58785  1.0000
  C   C11       1.0  0.82125  0.09458  0.50685  1.0000
  C   C12       1.0  0.72669  0.41211  0.90538  1.0000
  C   C13       1.0  0.72668  0.90537  0.41211  1.0000
  C   C14       1.0  0.82124  0.50685  0.09458  1.0000
  C   C15       1.0  0.31424  0.58784  0.49325  1.0000
  C   C16       1.0  0.19897  0.45773  0.64520  1.0000
  C   C17       1.0  0.74147  0.18752  0.54238  1.0000
  C   C18       1.0  0.55411  0.35477  0.81252  1.0000
  C   C19       1.0  0.55410  0.81252  0.35476  1.0000
  C   C20       1.0  0.74147  0.54238  0.18752  1.0000
  C   C21       1.0  0.19895  0.64520  0.45772  1.0000
  C   C22       1.0  0.22989  0.55504  0.55505  1.0000
  C   C23       1.0  0.67517  0.00002  0.44503  1.0000
  C   C24       1.0  0.67516  0.44503  0.00001  1.0000
  O   O1        1.0  0.58488  0.39948  0.58096  1.0000
  O   O2        1.0  0.18545  0.18139  0.60053  1.0000
  O   O3        1.0  0.00389  0.41882  0.81831  1.0000
  O   O4        1.0  0.00389  0.81830  0.41882  1.0000
  O   O5        1.0  0.18545  0.60053  0.18139  1.0000
  O   O6        1.0  0.58487  0.58096  0.39948  1.0000
  O   O7        1.0  0.25840  0.39017  0.66591  1.0000
  O   O8        1.0  0.86832  0.27575  0.60994  1.0000
  O   O9        1.0  0.59273  0.33409  0.72426  1.0000
  O   O10       1.0  0.59271  0.72426  0.33409  1.0000
  O   O11       1.0  0.86833  0.60994  0.27575  1.0000
  O   O12       1.0  0.25840  0.66591  0.39017  1.0000
  O   O13       1.0  0.04393  0.49399  0.67370  1.0000
  O   O14       1.0  0.55037  0.17979  0.50602  1.0000
  O   O15       1.0  0.37073  0.32622  0.82033  1.0000
  O   O16       1.0  0.37072  0.82033  0.32622  1.0000
  O   O17       1.0  0.55037  0.50602  0.17979  1.0000
  O   O18       1.0  0.04391  0.67369  0.49399  1.0000
