data_image0
_chemical_formula_structural       Co6H6C24O18
_chemical_formula_sum              "Co6 H6 C24 O18"
_cell_length_a       6.59749
_cell_length_b       15.2049
_cell_length_c       15.205
_cell_angle_alpha    117.95
_cell_angle_beta     98.3236
_cell_angle_gamma    98.3236

_space_group_name_H-M_alt    "P 1"
_space_group_IT_number       1

loop_
  _space_group_symop_operation_xyz
  'x, y, z'

loop_
  _atom_site_type_symbol
  _atom_site_label
  _atom_site_symmetry_multiplicity
  _atom_site_fract_x
  _atom_site_fract_y
  _atom_site_fract_z
  _atom_site_occupancy
  Co  Co1       1.0  0.81616  0.40572  0.69144  1.0000
  Co  Co2       1.0  0.41064  0.28572  0.59421  1.0000
  Co  Co3       1.0  0.12474  0.30872  0.71441  1.0000
  Co  Co4       1.0  0.12475  0.71441  0.30872  1.0000
  Co  Co5       1.0  0.41064  0.59420  0.28572  1.0000
  Co  Co6       1.0  0.81617  0.69143  0.40573  1.0000
  H   H1        1.0  0.73418  0.47732  0.47733  1.0000
  H   H2        1.0  0.25670  0.00012  0.52247  1.0000
  H   H3        1.0  0.25666  0.52248  0.00011  1.0000
  H   H4        1.0  0.09866  0.58673  0.58673  1.0000
  H   H5        1.0  0.51162  0.00008  0.41333  1.0000
  H   H6        1.0  0.51162  0.41332  0.00008  1.0000
  C   C1        1.0  0.50690  0.46855  0.56316  1.0000
  C   C2        1.0  0.03829  0.09473  0.53129  1.0000
  C   C3        1.0  0.94346  0.43686  0.90547  1.0000
  C   C4        1.0  0.94348  0.90548  0.43686  1.0000
  C   C5        1.0  0.03826  0.53129  0.09471  1.0000
  C   C6        1.0  0.50690  0.56316  0.46856  1.0000
  C   C7        1.0  0.59693  0.50302  0.50302  1.0000
  C   C8        1.0  0.09374  0.00011  0.49691  1.0000
  C   C9        1.0  0.09372  0.49693  0.00012  1.0000
  C   C10       1.0  0.32297  0.50092  0.59472  1.0000
  C   C11       1.0  0.82193  0.09389  0.49894  1.0000
  C   C12       1.0  0.72792  0.40529  0.90623  1.0000
  C   C13       1.0  0.72793  0.90623  0.40529  1.0000
  C   C14       1.0  0.82191  0.49894  0.09388  1.0000
  C   C15       1.0  0.32300  0.59471  0.50092  1.0000
  C   C16       1.0  0.20644  0.46566  0.65149  1.0000
  C   C17       1.0  0.74072  0.18590  0.53420  1.0000
  C   C18       1.0  0.55474  0.34845  0.81417  1.0000
  C   C19       1.0  0.55475  0.81418  0.34846  1.0000
  C   C20       1.0  0.74072  0.53421  0.18590  1.0000
  C   C21       1.0  0.20645  0.65148  0.46566  1.0000
  C   C22       1.0  0.23933  0.56344  0.56345  1.0000
  C   C23       1.0  0.67564  0.00006  0.43650  1.0000
  C   C24       1.0  0.67562  0.43650  0.00006  1.0000
  O   O1        1.0  0.58803  0.40278  0.58430  1.0000
  O   O2        1.0  0.18513  0.18169  0.59698  1.0000
  O   O3        1.0  0.00347  0.41577  0.81855  1.0000
  O   O4        1.0  0.00348  0.81856  0.41577  1.0000
  O   O5        1.0  0.18514  0.59699  0.18169  1.0000
  O   O6        1.0  0.58805  0.58429  0.40279  1.0000
  O   O7        1.0  0.27380  0.40025  0.67343  1.0000
  O   O8        1.0  0.87342  0.27322  0.59977  1.0000
  O   O9        1.0  0.60012  0.32655  0.72685  1.0000
  O   O10       1.0  0.60013  0.72685  0.32656  1.0000
  O   O11       1.0  0.87341  0.59977  0.27321  1.0000
  O   O12       1.0  0.27380  0.67342  0.40026  1.0000
  O   O13       1.0  0.04371  0.49643  0.67699  1.0000
  O   O14       1.0  0.54725  0.18063  0.50334  1.0000
  O   O15       1.0  0.36649  0.32281  0.81940  1.0000
  O   O16       1.0  0.36651  0.81941  0.32284  1.0000
  O   O17       1.0  0.54725  0.50334  0.18064  1.0000
  O   O18       1.0  0.04372  0.67698  0.49642  1.0000
