data_image0
_chemical_formula_structural       Co6H12C24O18
_chemical_formula_sum              "Co6 H12 C24 O18"
_cell_length_a       6.48632
_cell_length_b       14.923
_cell_length_c       14.9545
_cell_angle_alpha    117.991
_cell_angle_beta     98.2589
_cell_angle_gamma    98.3554

_space_group_name_H-M_alt    "P 1"
_space_group_IT_number       1

loop_
  _space_group_symop_operation_xyz
  'x, y, z'

loop_
  _atom_site_type_symbol
  _atom_site_label
  _atom_site_symmetry_multiplicity
  _atom_site_fract_x
  _atom_site_fract_y
  _atom_site_fract_z
  _atom_site_occupancy
  Co  Co1       1.0  0.46423  0.27270  0.58359  1.0000
  Co  Co2       1.0  0.19161  0.31101  0.72812  1.0000
  Co  Co3       1.0  0.88128  0.41769  0.68994  1.0000
  Co  Co4       1.0  0.53605  0.72769  0.41667  1.0000
  Co  Co5       1.0  0.80813  0.68848  0.27175  1.0000
  Co  Co6       1.0  0.11895  0.58229  0.31073  1.0000
  H   H1        1.0  0.32701  0.22294  0.47970  1.0000
  H   H2        1.0  0.10369  0.25661  0.77773  1.0000
  H   H3        1.0  0.84830  0.52190  0.74426  1.0000
  H   H4        1.0  0.67305  0.77831  0.52071  1.0000
  H   H5        1.0  0.89551  0.74217  0.22143  1.0000
  H   H6        1.0  0.15192  0.47804  0.25693  1.0000
  H   H7        1.0  0.83461  0.44410  0.46588  1.0000
  H   H8        1.0  0.39045  0.02152  0.55519  1.0000
  H   H9        1.0  0.36872  0.53432  0.97851  1.0000
  H   H10       1.0  0.16522  0.55612  0.53471  1.0000
  H   H11       1.0  0.60963  0.97850  0.44232  1.0000
  H   H12       1.0  0.63082  0.46561  0.02193  1.0000
  C   C1        1.0  0.24770  0.43498  0.61235  1.0000
  C   C2        1.0  0.81318  0.17755  0.56547  1.0000
  C   C3        1.0  0.63553  0.38886  0.82320  1.0000
  C   C4        1.0  0.75273  0.56554  0.38862  1.0000
  C   C5        1.0  0.18687  0.82255  0.43347  1.0000
  C   C6        1.0  0.36424  0.61054  0.17706  1.0000
  C   C7        1.0  0.37893  0.46589  0.55420  1.0000
  C   C8        1.0  0.91336  0.08831  0.53372  1.0000
  C   C9        1.0  0.82479  0.44670  0.91219  1.0000
  C   C10       1.0  0.62128  0.53463  0.44667  1.0000
  C   C11       1.0  0.08656  0.91169  0.46439  1.0000
  C   C12       1.0  0.17484  0.55286  0.08819  1.0000
  C   C13       1.0  0.57223  0.43371  0.53541  1.0000
  C   C14       1.0  0.13861  0.10161  0.56621  1.0000
  C   C15       1.0  0.03690  0.46546  0.89879  1.0000
  C   C16       1.0  0.42803  0.56684  0.46545  1.0000
  C   C17       1.0  0.86119  0.89834  0.43212  1.0000
  C   C18       1.0  0.96277  0.53407  0.10160  1.0000
  C   C19       1.0  0.68829  0.46920  0.48177  1.0000
  C   C20       1.0  0.21909  0.01236  0.53015  1.0000
  C   C21       1.0  0.20655  0.51844  0.98777  1.0000
  C   C22       1.0  0.31180  0.53123  0.51898  1.0000
  C   C23       1.0  0.78089  0.98765  0.46767  1.0000
  C   C24       1.0  0.79305  0.48125  0.01264  1.0000
  O   O1        1.0  0.30224  0.37001  0.63974  1.0000
  O   O2        1.0  0.93253  0.26994  0.63117  1.0000
  O   O3        1.0  0.66294  0.36169  0.73100  1.0000
  O   O4        1.0  0.69877  0.63065  0.36132  1.0000
  O   O5        1.0  0.06755  0.72997  0.36855  1.0000
  O   O6        1.0  0.33742  0.63759  0.26931  1.0000
  O   O7        1.0  0.08628  0.47218  0.63593  1.0000
  O   O8        1.0  0.61467  0.16414  0.52849  1.0000
  O   O9        1.0  0.45035  0.36504  0.83657  1.0000
  O   O10       1.0  0.91401  0.52819  0.36503  1.0000
  O   O11       1.0  0.38540  0.83624  0.47067  1.0000
  O   O12       1.0  0.54925  0.63427  0.16349  1.0000
  O   O13       1.0  0.65187  0.36893  0.56410  1.0000
  O   O14       1.0  0.28300  0.19512  0.63183  1.0000
  O   O15       1.0  0.08802  0.43716  0.80546  1.0000
  O   O16       1.0  0.34858  0.63169  0.43677  1.0000
  O   O17       1.0  0.71670  0.80467  0.36738  1.0000
  O   O18       1.0  0.91181  0.56228  0.19496  1.0000
