data_image0
_chemical_formula_structural       Ni6H6C24O18
_chemical_formula_sum              "Ni6 H6 C24 O18"
_cell_length_a       6.80032
_cell_length_b       15.2962
_cell_length_c       15.296
_cell_angle_alpha    117.852
_cell_angle_beta     98.5247
_cell_angle_gamma    98.524

_space_group_name_H-M_alt    "P 1"
_space_group_IT_number       1

loop_
  _space_group_symop_operation_xyz
  'x, y, z'

loop_
  _atom_site_type_symbol
  _atom_site_label
  _atom_site_symmetry_multiplicity
  _atom_site_fract_x
  _atom_site_fract_y
  _atom_site_fract_z
  _atom_site_occupancy
  Ni  Ni1       1.0  0.82763  0.41672  0.69554  1.0000
  Ni  Ni2       1.0  0.41105  0.27885  0.58318  1.0000
  Ni  Ni3       1.0  0.13217  0.30449  0.72105  1.0000
  Ni  Ni4       1.0  0.13216  0.72107  0.30449  1.0000
  Ni  Ni5       1.0  0.41104  0.58318  0.27886  1.0000
  Ni  Ni6       1.0  0.82764  0.69555  0.41673  1.0000
  H   H1        1.0  0.72491  0.47081  0.47081  1.0000
  H   H2        1.0  0.25399  0.99996  0.52918  1.0000
  H   H3        1.0  0.25397  0.52919  0.99996  1.0000
  H   H4        1.0  0.09075  0.56402  0.56402  1.0000
  H   H5        1.0  0.52661  0.00009  0.43580  1.0000
  H   H6        1.0  0.52660  0.43581  0.00010  1.0000
  C   C1        1.0  0.49707  0.45454  0.54912  1.0000
  C   C2        1.0  0.04251  0.09461  0.54544  1.0000
  C   C3        1.0  0.94772  0.45091  0.90543  1.0000
  C   C4        1.0  0.94773  0.90543  0.45092  1.0000
  C   C5        1.0  0.04249  0.54544  0.09461  1.0000
  C   C6        1.0  0.49709  0.54912  0.45455  1.0000
  C   C7        1.0  0.58679  0.49261  0.49261  1.0000
  C   C8        1.0  0.09407  0.99999  0.50743  1.0000
  C   C9        1.0  0.09405  0.50742  0.99999  1.0000
  C   C10       1.0  0.31249  0.48262  0.57647  1.0000
  C   C11       1.0  0.82979  0.09389  0.51729  1.0000
  C   C12       1.0  0.73573  0.42356  0.90619  1.0000
  C   C13       1.0  0.73571  0.90618  0.42356  1.0000
  C   C14       1.0  0.82975  0.51730  0.09390  1.0000
  C   C15       1.0  0.31246  0.57647  0.48262  1.0000
  C   C16       1.0  0.18991  0.44527  0.62884  1.0000
  C   C17       1.0  0.74460  0.18364  0.55464  1.0000
  C   C18       1.0  0.56076  0.37123  0.81640  1.0000
  C   C19       1.0  0.56076  0.81639  0.37123  1.0000
  C   C20       1.0  0.74460  0.55466  0.18365  1.0000
  C   C21       1.0  0.18992  0.62885  0.44527  1.0000
  C   C22       1.0  0.23088  0.54376  0.54376  1.0000
  C   C23       1.0  0.68694  0.00004  0.45614  1.0000
  C   C24       1.0  0.68692  0.45615  0.00005  1.0000
  O   O1        1.0  0.58234  0.39124  0.57028  1.0000
  O   O2        1.0  0.19109  0.17910  0.60867  1.0000
  O   O3        1.0  0.01167  0.42975  0.82095  1.0000
  O   O4        1.0  0.01169  0.82094  0.42976  1.0000
  O   O5        1.0  0.19109  0.60868  0.17910  1.0000
  O   O6        1.0  0.58235  0.57028  0.39124  1.0000
  O   O7        1.0  0.22579  0.36834  0.63770  1.0000
  O   O8        1.0  0.85731  0.26938  0.63172  1.0000
  O   O9        1.0  0.58776  0.36237  0.73062  1.0000
  O   O10       1.0  0.58775  0.73063  0.36239  1.0000
  O   O11       1.0  0.85731  0.63173  0.26940  1.0000
  O   O12       1.0  0.22579  0.63771  0.36836  1.0000
  O   O13       1.0  0.04474  0.48488  0.66078  1.0000
  O   O14       1.0  0.55989  0.17598  0.51493  1.0000
  O   O15       1.0  0.38364  0.33932  0.82410  1.0000
  O   O16       1.0  0.38367  0.82410  0.33932  1.0000
  O   O17       1.0  0.55989  0.51495  0.17599  1.0000
  O   O18       1.0  0.04476  0.66078  0.48488  1.0000
