data_image0
_chemical_formula_structural       Lu4H60C44O24
_chemical_formula_sum              "Lu4 H60 C44 O24"
_cell_length_a       8.01491
_cell_length_b       10.6788
_cell_length_c       14.7134
_cell_angle_alpha    89.9996
_cell_angle_beta     90
_cell_angle_gamma    90.0001

_space_group_name_H-M_alt    "P 1"
_space_group_IT_number       1

loop_
  _space_group_symop_operation_xyz
  'x, y, z'

loop_
  _atom_site_type_symbol
  _atom_site_label
  _atom_site_symmetry_multiplicity
  _atom_site_fract_x
  _atom_site_fract_y
  _atom_site_fract_z
  _atom_site_occupancy
  Lu  Lu1       1.0  0.92292  0.79833  0.00188  1.0000
  Lu  Lu2       1.0  0.57709  0.20168  0.50189  1.0000
  Lu  Lu3       1.0  0.07709  0.29832  0.49811  1.0000
  Lu  Lu4       1.0  0.42292  0.70167  0.99812  1.0000
  H   H1        1.0  0.23336  0.67492  0.69916  1.0000
  H   H2        1.0  0.26664  0.32508  0.19915  1.0000
  H   H3        1.0  0.76664  0.17492  0.80084  1.0000
  H   H4        1.0  0.73336  0.82508  0.30084  1.0000
  H   H5        1.0  0.56076  0.98733  0.89673  1.0000
  H   H6        1.0  0.93925  0.01268  0.39672  1.0000
  H   H7        1.0  0.43924  0.48732  0.60328  1.0000
  H   H8        1.0  0.06076  0.51267  0.10328  1.0000
  H   H9        1.0  0.97012  0.69507  0.64057  1.0000
  H   H10       1.0  0.52988  0.30494  0.14057  1.0000
  H   H11       1.0  0.02988  0.19506  0.85943  1.0000
  H   H12       1.0  0.47012  0.80493  0.35943  1.0000
  H   H13       1.0  0.90424  0.79303  0.73039  1.0000
  H   H14       1.0  0.59576  0.20697  0.23040  1.0000
  H   H15       1.0  0.09576  0.29303  0.76961  1.0000
  H   H16       1.0  0.40424  0.70696  0.26961  1.0000
  H   H17       1.0  0.97398  0.97906  0.65005  1.0000
  H   H18       1.0  0.52603  0.02095  0.15006  1.0000
  H   H19       1.0  0.02602  0.47905  0.84995  1.0000
  H   H20       1.0  0.47398  0.52094  0.34995  1.0000
  H   H21       1.0  0.94587  0.88391  0.55388  1.0000
  H   H22       1.0  0.55413  0.11610  0.05388  1.0000
  H   H23       1.0  0.05413  0.38390  0.94613  1.0000
  H   H24       1.0  0.44588  0.61609  0.44613  1.0000
  H   H25       1.0  0.49193  0.75300  0.64502  1.0000
  H   H26       1.0  0.00807  0.24700  0.14502  1.0000
  H   H27       1.0  0.50807  0.25300  0.85498  1.0000
  H   H28       1.0  0.99193  0.74701  0.35498  1.0000
  H   H29       1.0  0.51497  0.80903  0.75742  1.0000
  H   H30       1.0  0.98503  0.19097  0.25741  1.0000
  H   H31       1.0  0.48502  0.30903  0.74258  1.0000
  H   H32       1.0  0.01497  0.69097  0.24258  1.0000
  H   H33       1.0  0.55009  0.91180  0.66340  1.0000
  H   H34       1.0  0.94992  0.08819  0.16340  1.0000
  H   H35       1.0  0.44991  0.41181  0.83660  1.0000
  H   H36       1.0  0.05009  0.58820  0.33660  1.0000
  H   H37       1.0  0.14177  0.01991  0.76217  1.0000
  H   H38       1.0  0.35823  0.98009  0.26217  1.0000
  H   H39       1.0  0.85823  0.51991  0.73783  1.0000
  H   H40       1.0  0.64177  0.48009  0.23783  1.0000
  H   H41       1.0  0.34793  0.06550  0.73096  1.0000
  H   H42       1.0  0.15207  0.93450  0.23096  1.0000
  H   H43       1.0  0.65207  0.56551  0.76904  1.0000
  H   H44       1.0  0.84793  0.43450  0.26904  1.0000
  H   H45       1.0  0.31447  0.96413  0.82463  1.0000
  H   H46       1.0  0.18553  0.03587  0.32463  1.0000
  H   H47       1.0  0.68553  0.46414  0.67537  1.0000
  H   H48       1.0  0.81447  0.53587  0.17537  1.0000
  H   H49       1.0  0.39253  0.81522  0.50959  1.0000
  H   H50       1.0  0.10747  0.18478  0.00959  1.0000
  H   H51       1.0  0.60747  0.31523  0.99041  1.0000
  H   H52       1.0  0.89253  0.68477  0.49041  1.0000
  H   H53       1.0  0.19211  0.82911  0.45965  1.0000
  H   H54       1.0  0.30789  0.17089  0.95965  1.0000
  H   H55       1.0  0.80788  0.32912  0.04035  1.0000
  H   H56       1.0  0.69212  0.67088  0.54034  1.0000
  H   H57       1.0  0.22741  0.71264  0.54326  1.0000
  H   H58       1.0  0.27259  0.28736  0.04325  1.0000
  H   H59       1.0  0.77258  0.21264  0.95675  1.0000
  H   H60       1.0  0.72742  0.78735  0.45675  1.0000
  C   C1        1.0  0.17245  0.75074  0.82650  1.0000
  C   C2        1.0  0.32754  0.24925  0.32650  1.0000
  C   C3        1.0  0.82754  0.25075  0.67350  1.0000
  C   C4        1.0  0.67246  0.74926  0.17350  1.0000
  C   C5        1.0  0.17451  0.76125  0.72425  1.0000
  C   C6        1.0  0.32549  0.23876  0.22425  1.0000
  C   C7        1.0  0.82549  0.26125  0.77575  1.0000
  C   C8        1.0  0.67451  0.73875  0.27575  1.0000
  C   C9        1.0  0.66561  0.93327  0.92546  1.0000
  C   C10       1.0  0.83440  0.06673  0.42546  1.0000
  C   C11       1.0  0.33440  0.43327  0.57454  1.0000
  C   C12       1.0  0.16560  0.56673  0.07454  1.0000
  C   C13       1.0  0.00215  0.77952  0.67932  1.0000
  C   C14       1.0  0.49785  0.22049  0.17932  1.0000
  C   C15       1.0  0.99785  0.27952  0.82068  1.0000
  C   C16       1.0  0.50215  0.72048  0.32068  1.0000
  C   C17       1.0  0.28860  0.87364  0.69217  1.0000
  C   C18       1.0  0.21140  0.12636  0.19217  1.0000
  C   C19       1.0  0.71140  0.37364  0.80783  1.0000
  C   C20       1.0  0.78860  0.62636  0.30783  1.0000
  C   C21       1.0  0.01884  0.89363  0.61646  1.0000
  C   C22       1.0  0.48116  0.10638  0.11646  1.0000
  C   C23       1.0  0.98116  0.39362  0.88354  1.0000
  C   C24       1.0  0.51885  0.60637  0.38354  1.0000
  C   C25       1.0  0.47240  0.83484  0.68896  1.0000
  C   C26       1.0  0.02760  0.16516  0.18895  1.0000
  C   C27       1.0  0.52760  0.33484  0.81105  1.0000
  C   C28       1.0  0.97240  0.66516  0.31105  1.0000
  C   C29       1.0  0.20689  0.90405  0.59714  1.0000
  C   C30       1.0  0.29311  0.09594  0.09714  1.0000
  C   C31       1.0  0.79311  0.40406  0.90286  1.0000
  C   C32       1.0  0.70690  0.59595  0.40286  1.0000
  C   C33       1.0  0.27113  0.98745  0.75576  1.0000
  C   C34       1.0  0.22887  0.01255  0.25576  1.0000
  C   C35       1.0  0.72887  0.48746  0.74424  1.0000
  C   C36       1.0  0.77113  0.51255  0.24424  1.0000
  C   C37       1.0  0.25845  0.80894  0.52341  1.0000
  C   C38       1.0  0.24155  0.19105  0.02341  1.0000
  C   C39       1.0  0.74154  0.30895  0.97659  1.0000
  C   C40       1.0  0.75846  0.69105  0.47659  1.0000
  C   C41       1.0  0.25726  0.03081  0.55865  1.0000
  C   C42       1.0  0.24274  0.96918  0.05865  1.0000
  C   C43       1.0  0.74274  0.53082  0.94135  1.0000
  C   C44       1.0  0.75726  0.46918  0.44135  1.0000
  O   O1        1.0  0.14395  0.68446  0.05806  1.0000
  O   O2        1.0  0.35605  0.31553  0.55807  1.0000
  O   O3        1.0  0.85604  0.18446  0.44194  1.0000
  O   O4        1.0  0.64395  0.81554  0.94193  1.0000
  O   O5        1.0  0.04731  0.79143  0.87064  1.0000
  O   O6        1.0  0.45268  0.20855  0.37065  1.0000
  O   O7        1.0  0.95269  0.29144  0.62936  1.0000
  O   O8        1.0  0.54731  0.70856  0.12936  1.0000
  O   O9        1.0  0.30364  0.51557  0.05872  1.0000
  O   O10       1.0  0.19636  0.48442  0.55872  1.0000
  O   O11       1.0  0.69635  0.01559  0.44127  1.0000
  O   O12       1.0  0.80364  0.98442  0.94128  1.0000
  O   O13       1.0  0.35635  0.89852  0.02636  1.0000
  O   O14       1.0  0.14365  0.10148  0.52635  1.0000
  O   O15       1.0  0.64365  0.39852  0.47365  1.0000
  O   O16       1.0  0.85635  0.60149  0.97364  1.0000
  O   O17       1.0  0.58817  0.55713  0.94444  1.0000
  O   O18       1.0  0.91183  0.44287  0.44444  1.0000
  O   O19       1.0  0.41183  0.05712  0.55556  1.0000
  O   O20       1.0  0.08817  0.94287  0.05556  1.0000
  O   O21       1.0  0.30091  0.70388  0.86525  1.0000
  O   O22       1.0  0.19908  0.29612  0.36525  1.0000
  O   O23       1.0  0.69909  0.20388  0.63474  1.0000
  O   O24       1.0  0.80090  0.79612  0.13474  1.0000
