data_image0
_chemical_formula_structural       Y4H60C44O24
_chemical_formula_sum              "Y4 H60 C44 O24"
_cell_length_a       8.15456
_cell_length_b       10.692
_cell_length_c       14.7666
_cell_angle_alpha    89.9999
_cell_angle_beta     90.0002
_cell_angle_gamma    90

_space_group_name_H-M_alt    "P 1"
_space_group_IT_number       1

loop_
  _space_group_symop_operation_xyz
  'x, y, z'

loop_
  _atom_site_type_symbol
  _atom_site_label
  _atom_site_symmetry_multiplicity
  _atom_site_fract_x
  _atom_site_fract_y
  _atom_site_fract_z
  _atom_site_occupancy
  Y   Y1        1.0  0.92129  0.69945  0.49801  1.0000
  Y   Y2        1.0  0.57870  0.30055  0.99801  1.0000
  Y   Y3        1.0  0.07870  0.19945  0.00198  1.0000
  Y   Y4        1.0  0.42130  0.80055  0.50199  1.0000
  H   H1        1.0  0.72726  0.67107  0.19657  1.0000
  H   H2        1.0  0.77273  0.32893  0.69657  1.0000
  H   H3        1.0  0.27274  0.17107  0.30343  1.0000
  H   H4        1.0  0.22726  0.82893  0.80343  1.0000
  H   H5        1.0  0.40682  0.79278  0.22992  1.0000
  H   H6        1.0  0.09317  0.20722  0.72993  1.0000
  H   H7        1.0  0.59318  0.29278  0.27007  1.0000
  H   H8        1.0  0.90682  0.70723  0.77008  1.0000
  H   H9        1.0  0.46780  0.69463  0.13991  1.0000
  H   H10       1.0  0.03219  0.30537  0.63992  1.0000
  H   H11       1.0  0.53220  0.19463  0.36008  1.0000
  H   H12       1.0  0.96781  0.80537  0.86009  1.0000
  H   H13       1.0  0.64664  0.01654  0.26027  1.0000
  H   H14       1.0  0.85336  0.98346  0.76027  1.0000
  H   H15       1.0  0.35336  0.51654  0.23973  1.0000
  H   H16       1.0  0.14664  0.48346  0.73973  1.0000
  H   H17       1.0  0.85027  0.05913  0.22837  1.0000
  H   H18       1.0  0.64973  0.94088  0.72838  1.0000
  H   H19       1.0  0.14972  0.55913  0.27163  1.0000
  H   H20       1.0  0.35027  0.44087  0.77163  1.0000
  H   H21       1.0  0.81621  0.95837  0.32172  1.0000
  H   H22       1.0  0.68379  0.04164  0.82172  1.0000
  H   H23       1.0  0.18378  0.45837  0.17828  1.0000
  H   H24       1.0  0.31621  0.54163  0.67828  1.0000
  H   H25       1.0  0.55774  0.51196  0.60684  1.0000
  H   H26       1.0  0.94226  0.48805  0.10683  1.0000
  H   H27       1.0  0.44226  0.01196  0.89315  1.0000
  H   H28       1.0  0.05774  0.98804  0.39316  1.0000
  H   H29       1.0  0.00887  0.80179  0.25331  1.0000
  H   H30       1.0  0.49113  0.19821  0.75331  1.0000
  H   H31       1.0  0.99112  0.30180  0.24670  1.0000
  H   H32       1.0  0.50887  0.69820  0.74669  1.0000
  H   H33       1.0  0.04343  0.90229  0.15873  1.0000
  H   H34       1.0  0.45658  0.09771  0.65873  1.0000
  H   H35       1.0  0.95658  0.40229  0.34127  1.0000
  H   H36       1.0  0.54342  0.59771  0.84127  1.0000
  H   H37       1.0  0.98037  0.74460  0.14203  1.0000
  H   H38       1.0  0.51963  0.25540  0.64202  1.0000
  H   H39       1.0  0.01963  0.24460  0.35797  1.0000
  H   H40       1.0  0.48037  0.75540  0.85797  1.0000
  H   H41       1.0  0.44598  0.88458  0.05439  1.0000
  H   H42       1.0  0.05402  0.11542  0.55440  1.0000
  H   H43       1.0  0.55402  0.38458  0.44561  1.0000
  H   H44       1.0  0.94598  0.61542  0.94561  1.0000
  H   H45       1.0  0.47815  0.97830  0.15030  1.0000
  H   H46       1.0  0.02186  0.02170  0.65031  1.0000
  H   H47       1.0  0.52186  0.47830  0.34970  1.0000
  H   H48       1.0  0.97814  0.52170  0.84970  1.0000
  H   H49       1.0  0.88297  0.80966  0.00711  1.0000
  H   H50       1.0  0.61703  0.19034  0.50711  1.0000
  H   H51       1.0  0.11703  0.30966  0.49288  1.0000
  H   H52       1.0  0.38298  0.69034  0.99289  1.0000
  H   H53       1.0  0.68553  0.82666  0.95861  1.0000
  H   H54       1.0  0.81447  0.17334  0.45861  1.0000
  H   H55       1.0  0.31448  0.32666  0.54138  1.0000
  H   H56       1.0  0.18553  0.67334  0.04139  1.0000
  H   H57       1.0  0.71927  0.70956  0.04164  1.0000
  H   H58       1.0  0.78073  0.29044  0.54164  1.0000
  H   H59       1.0  0.28074  0.20956  0.45836  1.0000
  H   H60       1.0  0.21927  0.79044  0.95836  1.0000
  C   C1        1.0  0.67149  0.74719  0.32415  1.0000
  C   C2        1.0  0.82850  0.25281  0.82415  1.0000
  C   C3        1.0  0.32851  0.24719  0.17585  1.0000
  C   C4        1.0  0.17148  0.75280  0.67585  1.0000
  C   C5        1.0  0.67175  0.75782  0.22222  1.0000
  C   C6        1.0  0.82824  0.24218  0.72222  1.0000
  C   C7        1.0  0.32825  0.25783  0.27778  1.0000
  C   C8        1.0  0.17175  0.74217  0.77778  1.0000
  C   C9        1.0  0.50192  0.77846  0.17849  1.0000
  C   C10       1.0  0.99808  0.22154  0.67849  1.0000
  C   C11       1.0  0.49809  0.27846  0.32151  1.0000
  C   C12       1.0  0.00192  0.72155  0.82152  1.0000
  C   C13       1.0  0.77293  0.98240  0.25338  1.0000
  C   C14       1.0  0.72707  0.01760  0.75338  1.0000
  C   C15       1.0  0.22707  0.48241  0.24662  1.0000
  C   C16       1.0  0.27292  0.51759  0.74662  1.0000
  C   C17       1.0  0.66188  0.56496  0.57833  1.0000
  C   C18       1.0  0.83813  0.43505  0.07833  1.0000
  C   C19       1.0  0.33813  0.06496  0.92166  1.0000
  C   C20       1.0  0.16188  0.93503  0.42166  1.0000
  C   C21       1.0  0.78587  0.86879  0.18980  1.0000
  C   C22       1.0  0.71412  0.13121  0.68980  1.0000
  C   C23       1.0  0.21413  0.36879  0.31020  1.0000
  C   C24       1.0  0.28587  0.63121  0.81020  1.0000
  C   C25       1.0  0.96530  0.82723  0.18535  1.0000
  C   C26       1.0  0.53470  0.17277  0.68535  1.0000
  C   C27       1.0  0.03470  0.32723  0.31465  1.0000
  C   C28       1.0  0.46530  0.67277  0.81465  1.0000
  C   C29       1.0  0.51965  0.89271  0.11616  1.0000
  C   C30       1.0  0.98035  0.10729  0.61617  1.0000
  C   C31       1.0  0.48036  0.39271  0.38383  1.0000
  C   C32       1.0  0.01964  0.60729  0.88384  1.0000
  C   C33       1.0  0.70446  0.90078  0.09568  1.0000
  C   C34       1.0  0.79554  0.09922  0.59568  1.0000
  C   C35       1.0  0.29555  0.40078  0.40432  1.0000
  C   C36       1.0  0.20446  0.59922  0.90432  1.0000
  C   C37       1.0  0.75136  0.80539  0.02172  1.0000
  C   C38       1.0  0.74863  0.19461  0.52172  1.0000
  C   C39       1.0  0.24864  0.30539  0.47828  1.0000
  C   C40       1.0  0.25137  0.69461  0.97828  1.0000
  C   C41       1.0  0.75662  0.02679  0.05727  1.0000
  C   C42       1.0  0.74338  0.97321  0.55727  1.0000
  C   C43       1.0  0.24339  0.52679  0.44274  1.0000
  C   C44       1.0  0.25661  0.47321  0.94274  1.0000
  O   O1        1.0  0.79683  0.69801  0.36215  1.0000
  O   O2        1.0  0.70317  0.30199  0.86215  1.0000
  O   O3        1.0  0.20318  0.19801  0.13785  1.0000
  O   O4        1.0  0.29682  0.80198  0.63785  1.0000
  O   O5        1.0  0.64187  0.68258  0.56172  1.0000
  O   O6        1.0  0.85813  0.31743  0.06172  1.0000
  O   O7        1.0  0.35813  0.18258  0.93828  1.0000
  O   O8        1.0  0.14187  0.81742  0.43828  1.0000
  O   O9        1.0  0.79664  0.51212  0.56303  1.0000
  O   O10       1.0  0.70336  0.48789  0.06302  1.0000
  O   O11       1.0  0.20335  0.01212  0.93697  1.0000
  O   O12       1.0  0.29664  0.98787  0.43697  1.0000
  O   O13       1.0  0.55060  0.78983  0.36900  1.0000
  O   O14       1.0  0.94940  0.21016  0.86900  1.0000
  O   O15       1.0  0.44939  0.28985  0.13100  1.0000
  O   O16       1.0  0.05059  0.71015  0.63100  1.0000
  O   O17       1.0  0.64652  0.09867  0.02499  1.0000
  O   O18       1.0  0.85348  0.90133  0.52499  1.0000
  O   O19       1.0  0.35348  0.59868  0.47501  1.0000
  O   O20       1.0  0.14652  0.40133  0.97501  1.0000
  O   O21       1.0  0.90914  0.05132  0.05404  1.0000
  O   O22       1.0  0.59086  0.94869  0.55404  1.0000
  O   O23       1.0  0.09086  0.55131  0.44597  1.0000
  O   O24       1.0  0.40914  0.44869  0.94597  1.0000
