data_image0
_chemical_formula_structural       Yb4H60C44O24
_chemical_formula_sum              "Yb4 H60 C44 O24"
_cell_length_a       8.05534
_cell_length_b       10.6504
_cell_length_c       14.724
_cell_angle_alpha    90.0003
_cell_angle_beta     90.0002
_cell_angle_gamma    89.9998

_space_group_name_H-M_alt    "P 1"
_space_group_IT_number       1

loop_
  _space_group_symop_operation_xyz
  'x, y, z'

loop_
  _atom_site_type_symbol
  _atom_site_label
  _atom_site_symmetry_multiplicity
  _atom_site_fract_x
  _atom_site_fract_y
  _atom_site_fract_z
  _atom_site_occupancy
  Yb  Yb1       1.0  0.92287  0.29912  0.00175  1.0000
  Yb  Yb2       1.0  0.57713  0.70089  0.50174  1.0000
  Yb  Yb3       1.0  0.07713  0.79912  0.49825  1.0000
  Yb  Yb4       1.0  0.42287  0.20088  0.99825  1.0000
  H   H1        1.0  0.23113  0.17288  0.69829  1.0000
  H   H2        1.0  0.26887  0.82712  0.19828  1.0000
  H   H3        1.0  0.76887  0.67288  0.80171  1.0000
  H   H4        1.0  0.73112  0.32712  0.30171  1.0000
  H   H5        1.0  0.31531  0.46316  0.82337  1.0000
  H   H6        1.0  0.18469  0.53684  0.32336  1.0000
  H   H7        1.0  0.68469  0.96316  0.67664  1.0000
  H   H8        1.0  0.81531  0.03683  0.17663  1.0000
  H   H9        1.0  0.14247  0.51900  0.76177  1.0000
  H   H10       1.0  0.35753  0.48100  0.26177  1.0000
  H   H11       1.0  0.85753  0.01901  0.73823  1.0000
  H   H12       1.0  0.64247  0.98099  0.23822  1.0000
  H   H13       1.0  0.34697  0.56468  0.72955  1.0000
  H   H14       1.0  0.15303  0.43532  0.22955  1.0000
  H   H15       1.0  0.65302  0.06468  0.77045  1.0000
  H   H16       1.0  0.84697  0.93532  0.27045  1.0000
  H   H17       1.0  0.56141  0.48706  0.89452  1.0000
  H   H18       1.0  0.93860  0.51295  0.39453  1.0000
  H   H19       1.0  0.43859  0.98705  0.60548  1.0000
  H   H20       1.0  0.06140  0.01295  0.10547  1.0000
  H   H21       1.0  0.90543  0.29364  0.73108  1.0000
  H   H22       1.0  0.59457  0.70637  0.23109  1.0000
  H   H23       1.0  0.09457  0.79363  0.76892  1.0000
  H   H24       1.0  0.40543  0.20636  0.26891  1.0000
  H   H25       1.0  0.96804  0.19431  0.64132  1.0000
  H   H26       1.0  0.53197  0.80569  0.14133  1.0000
  H   H27       1.0  0.03196  0.69431  0.85868  1.0000
  H   H28       1.0  0.46803  0.30569  0.35867  1.0000
  H   H29       1.0  0.94551  0.38335  0.55398  1.0000
  H   H30       1.0  0.55450  0.61665  0.05398  1.0000
  H   H31       1.0  0.05450  0.88335  0.94602  1.0000
  H   H32       1.0  0.44549  0.11665  0.44602  1.0000
  H   H33       1.0  0.97518  0.47902  0.64980  1.0000
  H   H34       1.0  0.52483  0.52098  0.14980  1.0000
  H   H35       1.0  0.02482  0.97902  0.85021  1.0000
  H   H36       1.0  0.47517  0.02098  0.35020  1.0000
  H   H37       1.0  0.18955  0.32763  0.45909  1.0000
  H   H38       1.0  0.31045  0.67237  0.95909  1.0000
  H   H39       1.0  0.81045  0.82763  0.04091  1.0000
  H   H40       1.0  0.68954  0.17237  0.54091  1.0000
  H   H41       1.0  0.22340  0.21045  0.54249  1.0000
  H   H42       1.0  0.27660  0.78955  0.04249  1.0000
  H   H43       1.0  0.77660  0.71045  0.95751  1.0000
  H   H44       1.0  0.72340  0.28955  0.45751  1.0000
  H   H45       1.0  0.38892  0.31217  0.50880  1.0000
  H   H46       1.0  0.11109  0.68782  0.00880  1.0000
  H   H47       1.0  0.61108  0.81217  0.99120  1.0000
  H   H48       1.0  0.88891  0.18782  0.49120  1.0000
  H   H49       1.0  0.51344  0.30780  0.75592  1.0000
  H   H50       1.0  0.98656  0.69220  0.25591  1.0000
  H   H51       1.0  0.48656  0.80780  0.74409  1.0000
  H   H52       1.0  0.01343  0.19220  0.24409  1.0000
  H   H53       1.0  0.54705  0.40982  0.66136  1.0000
  H   H54       1.0  0.95296  0.59018  0.16135  1.0000
  H   H55       1.0  0.45295  0.90982  0.83864  1.0000
  H   H56       1.0  0.04704  0.09018  0.33865  1.0000
  H   H57       1.0  0.48905  0.25051  0.64411  1.0000
  H   H58       1.0  0.01096  0.74949  0.14410  1.0000
  H   H59       1.0  0.51096  0.75051  0.85589  1.0000
  H   H60       1.0  0.98903  0.24949  0.35590  1.0000
  C   C1        1.0  0.17368  0.25971  0.72364  1.0000
  C   C2        1.0  0.32632  0.74028  0.22364  1.0000
  C   C3        1.0  0.82632  0.75972  0.77636  1.0000
  C   C4        1.0  0.67367  0.24028  0.27636  1.0000
  C   C5        1.0  0.17309  0.24933  0.82583  1.0000
  C   C6        1.0  0.32690  0.75066  0.32583  1.0000
  C   C7        1.0  0.82690  0.74934  0.67417  1.0000
  C   C8        1.0  0.67309  0.25066  0.17417  1.0000
  C   C9        1.0  0.27102  0.48641  0.75475  1.0000
  C   C10       1.0  0.22899  0.51359  0.25475  1.0000
  C   C11       1.0  0.72898  0.98641  0.74525  1.0000
  C   C12       1.0  0.77101  0.01359  0.24525  1.0000
  C   C13       1.0  0.66574  0.43346  0.92396  1.0000
  C   C14       1.0  0.83427  0.56656  0.42395  1.0000
  C   C15       1.0  0.33426  0.93345  0.57604  1.0000
  C   C16       1.0  0.16573  0.06656  0.07605  1.0000
  C   C17       1.0  0.28742  0.37207  0.69125  1.0000
  C   C18       1.0  0.21258  0.62793  0.19124  1.0000
  C   C19       1.0  0.71258  0.87207  0.80876  1.0000
  C   C20       1.0  0.78742  0.12793  0.30875  1.0000
  C   C21       1.0  0.00165  0.27899  0.67955  1.0000
  C   C22       1.0  0.49836  0.72101  0.17956  1.0000
  C   C23       1.0  0.99835  0.77899  0.82045  1.0000
  C   C24       1.0  0.50164  0.22101  0.32044  1.0000
  C   C25       1.0  0.01863  0.39297  0.61633  1.0000
  C   C26       1.0  0.48138  0.60703  0.11633  1.0000
  C   C27       1.0  0.98137  0.89297  0.88367  1.0000
  C   C28       1.0  0.51862  0.10703  0.38367  1.0000
  C   C29       1.0  0.20555  0.40249  0.59645  1.0000
  C   C30       1.0  0.29447  0.59751  0.09645  1.0000
  C   C31       1.0  0.79446  0.90249  0.90355  1.0000
  C   C32       1.0  0.70553  0.09751  0.40355  1.0000
  C   C33       1.0  0.25627  0.52927  0.55776  1.0000
  C   C34       1.0  0.24375  0.47073  0.05776  1.0000
  C   C35       1.0  0.74373  0.02927  0.94224  1.0000
  C   C36       1.0  0.75625  0.97073  0.44224  1.0000
  C   C37       1.0  0.25547  0.30682  0.52271  1.0000
  C   C38       1.0  0.24453  0.69318  0.02271  1.0000
  C   C39       1.0  0.74453  0.80682  0.97729  1.0000
  C   C40       1.0  0.75547  0.19318  0.47729  1.0000
  C   C41       1.0  0.47006  0.33298  0.68761  1.0000
  C   C42       1.0  0.02994  0.66701  0.18760  1.0000
  C   C43       1.0  0.52994  0.83299  0.81239  1.0000
  C   C44       1.0  0.97006  0.16701  0.31240  1.0000
  O   O1        1.0  0.04875  0.28972  0.87029  1.0000
  O   O2        1.0  0.45123  0.71028  0.37029  1.0000
  O   O3        1.0  0.95125  0.78972  0.62971  1.0000
  O   O4        1.0  0.54875  0.21027  0.12971  1.0000
  O   O5        1.0  0.80286  0.48528  0.93966  1.0000
  O   O6        1.0  0.69712  0.51473  0.43965  1.0000
  O   O7        1.0  0.19714  0.98527  0.56034  1.0000
  O   O8        1.0  0.30287  0.01474  0.06035  1.0000
  O   O9        1.0  0.64427  0.31568  0.94132  1.0000
  O   O10       1.0  0.85573  0.68433  0.44131  1.0000
  O   O11       1.0  0.35573  0.81567  0.55868  1.0000
  O   O12       1.0  0.14427  0.18433  0.05869  1.0000
  O   O13       1.0  0.30166  0.20302  0.86431  1.0000
  O   O14       1.0  0.19832  0.79697  0.36430  1.0000
  O   O15       1.0  0.69834  0.70303  0.63569  1.0000
  O   O16       1.0  0.80167  0.29696  0.13570  1.0000
  O   O17       1.0  0.14338  0.60054  0.52578  1.0000
  O   O18       1.0  0.35662  0.39946  0.02578  1.0000
  O   O19       1.0  0.85662  0.10054  0.97422  1.0000
  O   O20       1.0  0.64338  0.89947  0.47422  1.0000
  O   O21       1.0  0.41024  0.55498  0.55418  1.0000
  O   O22       1.0  0.08977  0.44502  0.05418  1.0000
  O   O23       1.0  0.58977  0.05498  0.94582  1.0000
  O   O24       1.0  0.91023  0.94502  0.44582  1.0000
