data_image0
_chemical_formula_structural       Tm4H60C44O24
_chemical_formula_sum              "Tm4 H60 C44 O24"
_cell_length_a       8.06546
_cell_length_b       10.6638
_cell_length_c       14.7365
_cell_angle_alpha    90
_cell_angle_beta     90
_cell_angle_gamma    89.9999

_space_group_name_H-M_alt    "P 1"
_space_group_IT_number       1

loop_
  _space_group_symop_operation_xyz
  'x, y, z'

loop_
  _atom_site_type_symbol
  _atom_site_label
  _atom_site_symmetry_multiplicity
  _atom_site_fract_x
  _atom_site_fract_y
  _atom_site_fract_z
  _atom_site_occupancy
  Tm  Tm1       1.0  0.07836  0.79943  0.49850  1.0000
  Tm  Tm2       1.0  0.42164  0.20058  0.99850  1.0000
  Tm  Tm3       1.0  0.92164  0.29942  0.00150  1.0000
  Tm  Tm4       1.0  0.57836  0.70058  0.50150  1.0000
  H   H1        1.0  0.15219  0.43690  0.22926  1.0000
  H   H2        1.0  0.34782  0.56310  0.72926  1.0000
  H   H3        1.0  0.84781  0.93690  0.27074  1.0000
  H   H4        1.0  0.65219  0.06310  0.77074  1.0000
  H   H5        1.0  0.18480  0.53818  0.32294  1.0000
  H   H6        1.0  0.31520  0.46182  0.82295  1.0000
  H   H7        1.0  0.81520  0.03818  0.17706  1.0000
  H   H8        1.0  0.68481  0.96182  0.67706  1.0000
  H   H9        1.0  0.35686  0.48228  0.26092  1.0000
  H   H10       1.0  0.14315  0.51772  0.76092  1.0000
  H   H11       1.0  0.64315  0.98228  0.23908  1.0000
  H   H12       1.0  0.85686  0.01772  0.73908  1.0000
  H   H13       1.0  0.26915  0.82761  0.19760  1.0000
  H   H14       1.0  0.23084  0.17239  0.69760  1.0000
  H   H15       1.0  0.73083  0.32761  0.30240  1.0000
  H   H16       1.0  0.76916  0.67239  0.80239  1.0000
  H   H17       1.0  0.44103  0.98696  0.60532  1.0000
  H   H18       1.0  0.05898  0.01304  0.10532  1.0000
  H   H19       1.0  0.55897  0.48696  0.89468  1.0000
  H   H20       1.0  0.94102  0.51305  0.39468  1.0000
  H   H21       1.0  0.59410  0.70714  0.23057  1.0000
  H   H22       1.0  0.90590  0.29287  0.73057  1.0000
  H   H23       1.0  0.40589  0.20713  0.26943  1.0000
  H   H24       1.0  0.09411  0.79286  0.76944  1.0000
  H   H25       1.0  0.53177  0.80604  0.14073  1.0000
  H   H26       1.0  0.96822  0.19396  0.64074  1.0000
  H   H27       1.0  0.46822  0.30604  0.35927  1.0000
  H   H28       1.0  0.03177  0.69395  0.85927  1.0000
  H   H29       1.0  0.95212  0.59210  0.16172  1.0000
  H   H30       1.0  0.54788  0.40789  0.66172  1.0000
  H   H31       1.0  0.04788  0.09211  0.33828  1.0000
  H   H32       1.0  0.45213  0.90789  0.83828  1.0000
  H   H33       1.0  0.01132  0.75093  0.14369  1.0000
  H   H34       1.0  0.48868  0.24907  0.64369  1.0000
  H   H35       1.0  0.98867  0.25094  0.35631  1.0000
  H   H36       1.0  0.51132  0.74906  0.85631  1.0000
  H   H37       1.0  0.98729  0.69450  0.25569  1.0000
  H   H38       1.0  0.51270  0.30550  0.75570  1.0000
  H   H39       1.0  0.01270  0.19451  0.24430  1.0000
  H   H40       1.0  0.48730  0.80549  0.74430  1.0000
  H   H41       1.0  0.11128  0.68910  0.00891  1.0000
  H   H42       1.0  0.38872  0.31090  0.50891  1.0000
  H   H43       1.0  0.88871  0.18910  0.49109  1.0000
  H   H44       1.0  0.61128  0.81090  0.99109  1.0000
  H   H45       1.0  0.31008  0.67346  0.95901  1.0000
  H   H46       1.0  0.18993  0.32654  0.45901  1.0000
  H   H47       1.0  0.68992  0.17346  0.54099  1.0000
  H   H48       1.0  0.81008  0.82654  0.04099  1.0000
  H   H49       1.0  0.27683  0.79010  0.04274  1.0000
  H   H50       1.0  0.22317  0.20990  0.54274  1.0000
  H   H51       1.0  0.72316  0.29010  0.45727  1.0000
  H   H52       1.0  0.77684  0.70990  0.95727  1.0000
  H   H53       1.0  0.55423  0.61702  0.05386  1.0000
  H   H54       1.0  0.94577  0.38299  0.55386  1.0000
  H   H55       1.0  0.44576  0.11701  0.44614  1.0000
  H   H56       1.0  0.05423  0.88298  0.94614  1.0000
  H   H57       1.0  0.52433  0.52145  0.14957  1.0000
  H   H58       1.0  0.97567  0.47855  0.64957  1.0000
  H   H59       1.0  0.47566  0.02145  0.35043  1.0000
  H   H60       1.0  0.02433  0.97855  0.85043  1.0000
  C   C1        1.0  0.22844  0.51491  0.25429  1.0000
  C   C2        1.0  0.27156  0.48509  0.75430  1.0000
  C   C3        1.0  0.77156  0.01491  0.24570  1.0000
  C   C4        1.0  0.72844  0.98509  0.74571  1.0000
  C   C5        1.0  0.32722  0.75194  0.32526  1.0000
  C   C6        1.0  0.17277  0.24806  0.82526  1.0000
  C   C7        1.0  0.67276  0.25194  0.17474  1.0000
  C   C8        1.0  0.82724  0.74806  0.67474  1.0000
  C   C9        1.0  0.32631  0.74095  0.22314  1.0000
  C   C10       1.0  0.17369  0.25905  0.72314  1.0000
  C   C11       1.0  0.67369  0.24095  0.27686  1.0000
  C   C12       1.0  0.82631  0.75905  0.77686  1.0000
  C   C13       1.0  0.21220  0.62899  0.19088  1.0000
  C   C14       1.0  0.28780  0.37101  0.69088  1.0000
  C   C15       1.0  0.78779  0.12899  0.30912  1.0000
  C   C16       1.0  0.71221  0.87100  0.80912  1.0000
  C   C17       1.0  0.33640  0.93310  0.57670  1.0000
  C   C18       1.0  0.16360  0.06690  0.07670  1.0000
  C   C19       1.0  0.66360  0.43310  0.92330  1.0000
  C   C20       1.0  0.83639  0.56691  0.42330  1.0000
  C   C21       1.0  0.49801  0.72149  0.17902  1.0000
  C   C22       1.0  0.00198  0.27851  0.67903  1.0000
  C   C23       1.0  0.50198  0.22149  0.32098  1.0000
  C   C24       1.0  0.99802  0.77851  0.82098  1.0000
  C   C25       1.0  0.02989  0.66871  0.18740  1.0000
  C   C26       1.0  0.47011  0.33129  0.68740  1.0000
  C   C27       1.0  0.97011  0.16872  0.31260  1.0000
  C   C28       1.0  0.52989  0.83128  0.81260  1.0000
  C   C29       1.0  0.29396  0.59815  0.09622  1.0000
  C   C30       1.0  0.20604  0.40185  0.59622  1.0000
  C   C31       1.0  0.70603  0.09815  0.40378  1.0000
  C   C32       1.0  0.79396  0.90185  0.90378  1.0000
  C   C33       1.0  0.24263  0.47167  0.05743  1.0000
  C   C34       1.0  0.25738  0.52833  0.55743  1.0000
  C   C35       1.0  0.75737  0.97167  0.44257  1.0000
  C   C36       1.0  0.74263  0.02833  0.94256  1.0000
  C   C37       1.0  0.24456  0.69402  0.02271  1.0000
  C   C38       1.0  0.25544  0.30598  0.52271  1.0000
  C   C39       1.0  0.75543  0.19402  0.47729  1.0000
  C   C40       1.0  0.74456  0.80598  0.97729  1.0000
  C   C41       1.0  0.48089  0.60737  0.11607  1.0000
  C   C42       1.0  0.01911  0.39263  0.61607  1.0000
  C   C43       1.0  0.51911  0.10737  0.38392  1.0000
  C   C44       1.0  0.98089  0.89262  0.88393  1.0000
  O   O1        1.0  0.35753  0.81540  0.55942  1.0000
  O   O2        1.0  0.14248  0.18459  0.05942  1.0000
  O   O3        1.0  0.64248  0.31541  0.94058  1.0000
  O   O4        1.0  0.85752  0.68461  0.44058  1.0000
  O   O5        1.0  0.45086  0.71093  0.36986  1.0000
  O   O6        1.0  0.04914  0.28907  0.86987  1.0000
  O   O7        1.0  0.54913  0.21093  0.13014  1.0000
  O   O8        1.0  0.95087  0.78907  0.63014  1.0000
  O   O9        1.0  0.19964  0.79952  0.36361  1.0000
  O   O10       1.0  0.30036  0.20047  0.86361  1.0000
  O   O11       1.0  0.80034  0.29952  0.13639  1.0000
  O   O12       1.0  0.69965  0.70048  0.63639  1.0000
  O   O13       1.0  0.19926  0.98493  0.56171  1.0000
  O   O14       1.0  0.30075  0.01507  0.06171  1.0000
  O   O15       1.0  0.80075  0.48493  0.93829  1.0000
  O   O16       1.0  0.69925  0.51509  0.43829  1.0000
  O   O17       1.0  0.35488  0.40036  0.02507  1.0000
  O   O18       1.0  0.14512  0.59964  0.52507  1.0000
  O   O19       1.0  0.64511  0.90036  0.47493  1.0000
  O   O20       1.0  0.85489  0.09964  0.97493  1.0000
  O   O21       1.0  0.08874  0.44614  0.05414  1.0000
  O   O22       1.0  0.41126  0.55386  0.55414  1.0000
  O   O23       1.0  0.91125  0.94615  0.44587  1.0000
  O   O24       1.0  0.58875  0.05386  0.94586  1.0000
