data_image0
_chemical_formula_structural       Zn6H56C48N28O8
_chemical_formula_sum              "Zn6 H56 C48 N28 O8"
_cell_length_a       10.6794
_cell_length_b       11.7026
_cell_length_c       12.1884
_cell_angle_alpha    103.768
_cell_angle_beta     90.0002
_cell_angle_gamma    90.0001

_space_group_name_H-M_alt    "P 1"
_space_group_IT_number       1

loop_
  _space_group_symop_operation_xyz
  'x, y, z'

loop_
  _atom_site_type_symbol
  _atom_site_label
  _atom_site_symmetry_multiplicity
  _atom_site_fract_x
  _atom_site_fract_y
  _atom_site_fract_z
  _atom_site_occupancy
  Zn  Zn1       1.0  0.38663  0.90737  0.50259  1.0000
  Zn  Zn2       1.0  0.38663  0.09263  0.99741  1.0000
  Zn  Zn3       1.0  0.61336  0.09263  0.49740  1.0000
  Zn  Zn4       1.0  0.61336  0.90737  0.00260  1.0000
  Zn  Zn5       1.0  0.55788  1.00000  0.75000  1.0000
  Zn  Zn6       1.0  0.44212  1.00000  0.25000  1.0000
  H   H1        1.0  0.48308  0.30277  0.57627  1.0000
  H   H2        1.0  0.48308  0.69723  0.92373  1.0000
  H   H3        1.0  0.51692  0.69723  0.42373  1.0000
  H   H4        1.0  0.51692  0.30277  0.07627  1.0000
  H   H5        1.0  0.33846  0.47048  0.62880  1.0000
  H   H6        1.0  0.33846  0.52952  0.87120  1.0000
  H   H7        1.0  0.66154  0.52952  0.37120  1.0000
  H   H8        1.0  0.66154  0.47048  0.12880  1.0000
  H   H9        1.0  0.11402  0.43617  0.67627  1.0000
  H   H10       1.0  0.11401  0.56383  0.82373  1.0000
  H   H11       1.0  0.88599  0.56383  0.32373  1.0000
  H   H12       1.0  0.88599  0.43617  0.17627  1.0000
  H   H13       1.0  0.04391  0.23422  0.67365  1.0000
  H   H14       1.0  0.04391  0.76578  0.82636  1.0000
  H   H15       1.0  0.95609  0.76578  0.32636  1.0000
  H   H16       1.0  0.95609  0.23422  0.17365  1.0000
  H   H17       1.0  0.06485  0.04491  0.64296  1.0000
  H   H18       1.0  0.06485  0.95509  0.85704  1.0000
  H   H19       1.0  0.93515  0.95509  0.35705  1.0000
  H   H20       1.0  0.93515  0.04491  0.14296  1.0000
  H   H21       1.0  0.06119  0.84707  0.63387  1.0000
  H   H22       1.0  0.06119  0.15293  0.86613  1.0000
  H   H23       1.0  0.93881  0.15293  0.36613  1.0000
  H   H24       1.0  0.93881  0.84707  0.13387  1.0000
  H   H25       1.0  0.07396  0.82201  0.48459  1.0000
  H   H26       1.0  0.07396  0.17799  0.01541  1.0000
  H   H27       1.0  0.92604  0.17799  0.51541  1.0000
  H   H28       1.0  0.92604  0.82201  0.98459  1.0000
  H   H29       1.0  0.25158  0.72750  0.63867  1.0000
  H   H30       1.0  0.25159  0.27250  0.86133  1.0000
  H   H31       1.0  0.74842  0.27250  0.36133  1.0000
  H   H32       1.0  0.74841  0.72750  0.13867  1.0000
  H   H33       1.0  0.15021  0.54833  0.57114  1.0000
  H   H34       1.0  0.15021  0.45168  0.92886  1.0000
  H   H35       1.0  0.84979  0.45167  0.42886  1.0000
  H   H36       1.0  0.84979  0.54833  0.07114  1.0000
  H   H37       1.0  0.02605  0.62848  0.52847  1.0000
  H   H38       1.0  0.02605  0.37152  0.97153  1.0000
  H   H39       1.0  0.97395  0.37152  0.47153  1.0000
  H   H40       1.0  0.97395  0.62848  0.02847  1.0000
  H   H41       1.0  0.10887  0.59780  0.33858  1.0000
  H   H42       1.0  0.10887  0.40220  0.16142  1.0000
  H   H43       1.0  0.89113  0.40220  0.66142  1.0000
  H   H44       1.0  0.89113  0.59780  0.83858  1.0000
  H   H45       1.0  0.15833  0.46386  0.37073  1.0000
  H   H46       1.0  0.15834  0.53614  0.12927  1.0000
  H   H47       1.0  0.84166  0.53614  0.62927  1.0000
  H   H48       1.0  0.84166  0.46386  0.87073  1.0000
  H   H49       1.0  0.36592  0.54383  0.42644  1.0000
  H   H50       1.0  0.36592  0.45617  0.07357  1.0000
  H   H51       1.0  0.63408  0.45617  0.57357  1.0000
  H   H52       1.0  0.63408  0.54383  0.92643  1.0000
  H   H53       1.0  0.33385  0.61231  0.31267  1.0000
  H   H54       1.0  0.33385  0.38768  0.18733  1.0000
  H   H55       1.0  0.66615  0.38768  0.68733  1.0000
  H   H56       1.0  0.66615  0.61232  0.81267  1.0000
  C   C1        1.0  0.34869  0.17122  0.59221  1.0000
  C   C2        1.0  0.34869  0.82878  0.90778  1.0000
  C   C3        1.0  0.65131  0.82878  0.40779  1.0000
  C   C4        1.0  0.65131  0.17122  0.09222  1.0000
  C   C5        1.0  0.38625  0.28795  0.59665  1.0000
  C   C6        1.0  0.38625  0.71206  0.90335  1.0000
  C   C7        1.0  0.61375  0.71205  0.40335  1.0000
  C   C8        1.0  0.61375  0.28794  0.09665  1.0000
  C   C9        1.0  0.30422  0.38188  0.62591  1.0000
  C   C10       1.0  0.30422  0.61812  0.87409  1.0000
  C   C11       1.0  0.69578  0.61812  0.37409  1.0000
  C   C12       1.0  0.69578  0.38188  0.12591  1.0000
  C   C13       1.0  0.17945  0.36319  0.65333  1.0000
  C   C14       1.0  0.17945  0.63682  0.84666  1.0000
  C   C15       1.0  0.82055  0.63682  0.34667  1.0000
  C   C16       1.0  0.82055  0.36318  0.15333  1.0000
  C   C17       1.0  0.14003  0.25014  0.65087  1.0000
  C   C18       1.0  0.14003  0.74986  0.84912  1.0000
  C   C19       1.0  0.85997  0.74986  0.34913  1.0000
  C   C20       1.0  0.85997  0.25014  0.15087  1.0000
  C   C21       1.0  0.22095  0.15206  0.61943  1.0000
  C   C22       1.0  0.22095  0.84794  0.88057  1.0000
  C   C23       1.0  0.77905  0.84794  0.38057  1.0000
  C   C24       1.0  0.77905  0.15206  0.11943  1.0000
  C   C25       1.0  0.16279  0.03943  0.61306  1.0000
  C   C26       1.0  0.16278  0.96057  0.88693  1.0000
  C   C27       1.0  0.83722  0.96057  0.38694  1.0000
  C   C28       1.0  0.83722  0.03943  0.11306  1.0000
  C   C29       1.0  0.12841  0.83414  0.56337  1.0000
  C   C30       1.0  0.12841  0.16586  0.93663  1.0000
  C   C31       1.0  0.87159  0.16586  0.43663  1.0000
  C   C32       1.0  0.87159  0.83414  0.06337  1.0000
  C   C33       1.0  0.20449  0.72300  0.55749  1.0000
  C   C34       1.0  0.20450  0.27700  0.94251  1.0000
  C   C35       1.0  0.79551  0.27700  0.44251  1.0000
  C   C36       1.0  0.79550  0.72300  0.05749  1.0000
  C   C37       1.0  0.12686  0.61020  0.51964  1.0000
  C   C38       1.0  0.12686  0.38980  0.98036  1.0000
  C   C39       1.0  0.87314  0.38980  0.48036  1.0000
  C   C40       1.0  0.87314  0.61020  0.01964  1.0000
  C   C41       1.0  0.16597  0.56012  0.39619  1.0000
  C   C42       1.0  0.16597  0.43988  0.10381  1.0000
  C   C43       1.0  0.83403  0.43989  0.60381  1.0000
  C   C44       1.0  0.83403  0.56012  0.89619  1.0000
  C   C45       1.0  0.30071  0.60178  0.39495  1.0000
  C   C46       1.0  0.30072  0.39822  0.10505  1.0000
  C   C47       1.0  0.69929  0.39822  0.60505  1.0000
  C   C48       1.0  0.69928  0.60178  0.89495  1.0000
  N   N1        1.0  0.21002  0.93614  0.57278  1.0000
  N   N2        1.0  0.21002  0.06387  0.92722  1.0000
  N   N3        1.0  0.78998  0.06386  0.42723  1.0000
  N   N4        1.0  0.78998  0.93613  0.07278  1.0000
  N   N5        1.0  0.47228  0.86496  0.64713  1.0000
  N   N6        1.0  0.47228  0.13504  0.85286  1.0000
  N   N7        1.0  0.52772  0.13504  0.35287  1.0000
  N   N8        1.0  0.52772  0.86496  0.14713  1.0000
  N   N9        1.0  0.49631  0.76468  0.65211  1.0000
  N   N10       1.0  0.49631  0.23531  0.84789  1.0000
  N   N11       1.0  0.50369  0.23531  0.34789  1.0000
  N   N12       1.0  0.50369  0.76468  0.15211  1.0000
  N   N13       1.0  0.51582  0.66812  0.65484  1.0000
  N   N14       1.0  0.51582  0.33188  0.84516  1.0000
  N   N15       1.0  0.48418  0.33188  0.34516  1.0000
  N   N16       1.0  0.48418  0.66812  0.15484  1.0000
  N   N17       1.0  0.32456  0.91672  0.33760  1.0000
  N   N18       1.0  0.32456  0.08328  0.16240  1.0000
  N   N19       1.0  0.67544  0.08328  0.66240  1.0000
  N   N20       1.0  0.67544  0.91672  0.83760  1.0000
  N   N21       1.0  0.22761  0.87339  0.29594  1.0000
  N   N22       1.0  0.22760  0.12662  0.20406  1.0000
  N   N23       1.0  0.77240  0.12662  0.70406  1.0000
  N   N24       1.0  0.77239  0.87339  0.79594  1.0000
  N   N25       1.0  0.13419  0.83124  0.25717  1.0000
  N   N26       1.0  0.13421  0.16875  0.24283  1.0000
  N   N27       1.0  0.86580  0.16875  0.74283  1.0000
  N   N28       1.0  0.86581  0.83124  0.75717  1.0000
  O   O1        1.0  0.43136  0.08455  0.56543  1.0000
  O   O2        1.0  0.43136  0.91545  0.93456  1.0000
  O   O3        1.0  0.56864  0.91544  0.43457  1.0000
  O   O4        1.0  0.56864  0.08455  0.06544  1.0000
  O   O5        1.0  0.30076  0.71775  0.47144  1.0000
  O   O6        1.0  0.30076  0.28225  0.02856  1.0000
  O   O7        1.0  0.69924  0.28225  0.52856  1.0000
  O   O8        1.0  0.69924  0.71775  0.97144  1.0000
