data_image0
_chemical_formula_structural       Ni2H44C46N8O10
_chemical_formula_sum              "Ni2 H44 C46 N8 O10"
_cell_length_a       9.61667
_cell_length_b       10.3425
_cell_length_c       11.018
_cell_angle_alpha    94.042
_cell_angle_beta     96.2535
_cell_angle_gamma    105.206

_space_group_name_H-M_alt    "P 1"
_space_group_IT_number       1

loop_
  _space_group_symop_operation_xyz
  'x, y, z'

loop_
  _atom_site_type_symbol
  _atom_site_label
  _atom_site_symmetry_multiplicity
  _atom_site_fract_x
  _atom_site_fract_y
  _atom_site_fract_z
  _atom_site_occupancy
  Ni  Ni1       1.0  0.82703  0.34399  0.33916  1.0000
  Ni  Ni2       1.0  0.17297  0.65601  0.66084  1.0000
  H   H1        1.0  0.88067  0.81997  0.36738  1.0000
  H   H2        1.0  0.11933  0.18003  0.63262  1.0000
  H   H3        1.0  0.61464  0.81270  0.86149  1.0000
  H   H4        1.0  0.38536  0.18730  0.13851  1.0000
  H   H5        1.0  0.46505  0.82937  0.93486  1.0000
  H   H6        1.0  0.53495  0.17063  0.06514  1.0000
  H   H7        1.0  0.48473  0.66721  0.89625  1.0000
  H   H8        1.0  0.51528  0.33279  0.10375  1.0000
  H   H9        1.0  0.66734  0.99612  0.08829  1.0000
  H   H10       1.0  0.33266  0.00388  0.91171  1.0000
  H   H11       1.0  0.62498  0.57006  0.04837  1.0000
  H   H12       1.0  0.37502  0.42993  0.95163  1.0000
  H   H13       1.0  0.54364  0.08163  0.29486  1.0000
  H   H14       1.0  0.45636  0.91837  0.70514  1.0000
  H   H15       1.0  0.34669  0.28894  0.54094  1.0000
  H   H16       1.0  0.65331  0.71106  0.45906  1.0000
  H   H17       1.0  0.12757  0.07565  0.20048  1.0000
  H   H18       1.0  0.87243  0.92435  0.79952  1.0000
  H   H19       1.0  0.18979  0.06360  0.43188  1.0000
  H   H20       1.0  0.81021  0.93640  0.56812  1.0000
  H   H21       1.0  0.30954  0.96779  0.47962  1.0000
  H   H22       1.0  0.69046  0.03221  0.52038  1.0000
  H   H23       1.0  0.35510  0.80041  0.34391  1.0000
  H   H24       1.0  0.64490  0.19959  0.65608  1.0000
  H   H25       1.0  0.62114  0.45153  0.51152  1.0000
  H   H26       1.0  0.37886  0.54847  0.48848  1.0000
  H   H27       1.0  0.06960  0.93760  0.99761  1.0000
  H   H28       1.0  0.93040  0.06240  0.00239  1.0000
  H   H29       1.0  0.15534  0.73346  0.96689  1.0000
  H   H30       1.0  0.84465  0.26654  0.03311  1.0000
  H   H31       1.0  0.29102  0.58815  0.04036  1.0000
  H   H32       1.0  0.70898  0.41186  0.95964  1.0000
  H   H33       1.0  0.41833  0.63908  0.17670  1.0000
  H   H34       1.0  0.58167  0.36092  0.82330  1.0000
  H   H35       1.0  0.01718  0.57898  0.19016  1.0000
  H   H36       1.0  0.98282  0.42102  0.80984  1.0000
  H   H37       1.0  0.36589  0.40457  0.25467  1.0000
  H   H38       1.0  0.63411  0.59543  0.74533  1.0000
  H   H39       1.0  0.12602  0.25801  0.35584  1.0000
  H   H40       1.0  0.87399  0.74199  0.64415  1.0000
  H   H41       1.0  0.00671  0.35518  0.54599  1.0000
  H   H42       1.0  0.99329  0.64482  0.45401  1.0000
  H   H43       1.0  0.92825  0.20891  0.47683  1.0000
  H   H44       1.0  0.07175  0.79109  0.52317  1.0000
  C   C1        1.0  0.75208  0.68076  0.21396  1.0000
  C   C2        1.0  0.24792  0.31924  0.78604  1.0000
  C   C3        1.0  0.81124  0.80779  0.28008  1.0000
  C   C4        1.0  0.18876  0.19221  0.71993  1.0000
  C   C5        1.0  0.54514  0.77106  0.93016  1.0000
  C   C6        1.0  0.45486  0.22894  0.06984  1.0000
  C   C7        1.0  0.69177  0.90670  0.12135  1.0000
  C   C8        1.0  0.30823  0.09330  0.87866  1.0000
  C   C9        1.0  0.78152  0.92132  0.23292  1.0000
  C   C10       1.0  0.21848  0.07868  0.76708  1.0000
  C   C11       1.0  0.66791  0.66955  0.09926  1.0000
  C   C12       1.0  0.33209  0.33045  0.90074  1.0000
  C   C13       1.0  0.77509  0.55570  0.26261  1.0000
  C   C14       1.0  0.22491  0.44431  0.73738  1.0000
  C   C15       1.0  0.52950  0.16052  0.35838  1.0000
  C   C16       1.0  0.47050  0.83948  0.64162  1.0000
  C   C17       1.0  0.63572  0.78164  0.05178  1.0000
  C   C18       1.0  0.36428  0.21836  0.94822  1.0000
  C   C19       1.0  0.84298  0.05933  0.30135  1.0000
  C   C20       1.0  0.15702  0.94067  0.69865  1.0000
  C   C21       1.0  0.42893  0.27101  0.48705  1.0000
  C   C22       1.0  0.57107  0.72899  0.51295  1.0000
  C   C23       1.0  0.16635  0.98620  0.18707  1.0000
  C   C24       1.0  0.83365  0.01380  0.81293  1.0000
  C   C25       1.0  0.28413  0.03062  0.40862  1.0000
  C   C26       1.0  0.71587  0.96938  0.59138  1.0000
  C   C27       1.0  0.24880  0.94902  0.28490  1.0000
  C   C28       1.0  0.75120  0.05098  0.71510  1.0000
  C   C29       1.0  0.29516  0.83272  0.26718  1.0000
  C   C30       1.0  0.70484  0.16728  0.73282  1.0000
  C   C31       1.0  0.56375  0.35045  0.47112  1.0000
  C   C32       1.0  0.43625  0.64955  0.52888  1.0000
  C   C33       1.0  0.13305  0.90866  0.07375  1.0000
  C   C34       1.0  0.86695  0.09134  0.92625  1.0000
  C   C35       1.0  0.26140  0.75411  0.15348  1.0000
  C   C36       1.0  0.73860  0.24590  0.84651  1.0000
  C   C37       1.0  0.18070  0.79299  0.05628  1.0000
  C   C38       1.0  0.81929  0.20701  0.94372  1.0000
  C   C39       1.0  0.30445  0.62452  0.13833  1.0000
  C   C40       1.0  0.69555  0.37548  0.86167  1.0000
  C   C41       1.0  0.07618  0.50948  0.22199  1.0000
  C   C42       1.0  0.92382  0.49051  0.77801  1.0000
  C   C43       1.0  0.25768  0.41699  0.25606  1.0000
  C   C44       1.0  0.74232  0.58301  0.74393  1.0000
  C   C45       1.0  0.13919  0.34582  0.30571  1.0000
  C   C46       1.0  0.86081  0.65417  0.69429  1.0000
  N   N1        1.0  0.62487  0.28052  0.39058  1.0000
  N   N2        1.0  0.37513  0.71948  0.60942  1.0000
  N   N3        1.0  0.40855  0.15109  0.41457  1.0000
  N   N4        1.0  0.59145  0.84891  0.58543  1.0000
  N   N5        1.0  0.21570  0.52057  0.20356  1.0000
  N   N6        1.0  0.78430  0.47943  0.79644  1.0000
  N   N7        1.0  0.02680  0.40475  0.28408  1.0000
  N   N8        1.0  0.97320  0.59525  0.71592  1.0000
  O   O1        1.0  0.74601  0.44739  0.19056  1.0000
  O   O2        1.0  0.25399  0.55261  0.80944  1.0000
  O   O3        1.0  0.79676  0.15347  0.25564  1.0000
  O   O4        1.0  0.20324  0.84653  0.74436  1.0000
  O   O5        1.0  0.82420  0.55694  0.37628  1.0000
  O   O6        1.0  0.17580  0.44306  0.62372  1.0000
  O   O7        1.0  0.93231  0.07278  0.39798  1.0000
  O   O8        1.0  0.06768  0.92722  0.60202  1.0000
  O   O9        1.0  0.91033  0.29674  0.50838  1.0000
  O   O10       1.0  0.08968  0.70326  0.49162  1.0000
