data_image0
_chemical_formula_structural       Mn2H36C28N4O16F8
_chemical_formula_sum              "Mn2 H36 C28 N4 O16 F8"
_cell_length_a       5.16578
_cell_length_b       10.3673
_cell_length_c       16.9667
_cell_angle_alpha    90.0002
_cell_angle_beta     91.5256
_cell_angle_gamma    89.9994

_space_group_name_H-M_alt    "P 1"
_space_group_IT_number       1

loop_
  _space_group_symop_operation_xyz
  'x, y, z'

loop_
  _atom_site_type_symbol
  _atom_site_label
  _atom_site_symmetry_multiplicity
  _atom_site_fract_x
  _atom_site_fract_y
  _atom_site_fract_z
  _atom_site_occupancy
  Mn  Mn1       1.0  0.99999  1.00000  1.00000  1.0000
  Mn  Mn2       1.0  0.49999  0.50000  0.50000  1.0000
  H   H1        1.0  0.08438  0.77822  0.12028  1.0000
  H   H2        1.0  0.41563  0.27821  0.37972  1.0000
  H   H3        1.0  0.91561  0.22180  0.87972  1.0000
  H   H4        1.0  0.58437  0.72179  0.62028  1.0000
  H   H5        1.0  0.23891  0.70969  0.30209  1.0000
  H   H6        1.0  0.26111  0.20969  0.19791  1.0000
  H   H7        1.0  0.76106  0.29032  0.69791  1.0000
  H   H8        1.0  0.73890  0.79031  0.80209  1.0000
  H   H9        1.0  0.48010  0.62480  0.25034  1.0000
  H   H10       1.0  0.01992  0.12480  0.24966  1.0000
  H   H11       1.0  0.51988  0.37520  0.74966  1.0000
  H   H12       1.0  0.98009  0.87519  0.75034  1.0000
  H   H13       1.0  0.15900  0.63473  0.20928  1.0000
  H   H14       1.0  0.34102  0.13473  0.29072  1.0000
  H   H15       1.0  0.84097  0.36528  0.79072  1.0000
  H   H16       1.0  0.65900  0.86527  0.70928  1.0000
  H   H17       1.0  0.60000  0.97393  0.21006  1.0000
  H   H18       1.0  0.90001  0.47393  0.28994  1.0000
  H   H19       1.0  0.40002  0.02607  0.78994  1.0000
  H   H20       1.0  0.10000  0.52607  0.71006  1.0000
  H   H21       1.0  0.77643  0.82792  0.22321  1.0000
  H   H22       1.0  0.72358  0.32793  0.27680  1.0000
  H   H23       1.0  0.22357  0.17207  0.77679  1.0000
  H   H24       1.0  0.27642  0.67207  0.72320  1.0000
  H   H25       1.0  0.57481  0.88255  0.30000  1.0000
  H   H26       1.0  0.92520  0.38255  0.20001  1.0000
  H   H27       1.0  0.42519  0.11745  0.70001  1.0000
  H   H28       1.0  0.07480  0.61745  0.79999  1.0000
  H   H29       1.0  0.77216  0.17031  0.08607  1.0000
  H   H30       1.0  0.72784  0.67030  0.41393  1.0000
  H   H31       1.0  0.22784  0.82969  0.91393  1.0000
  H   H32       1.0  0.27216  0.32970  0.58607  1.0000
  H   H33       1.0  0.56823  0.04733  0.08930  1.0000
  H   H34       1.0  0.93178  0.54732  0.41071  1.0000
  H   H35       1.0  0.43178  0.95267  0.91070  1.0000
  H   H36       1.0  0.06822  0.45267  0.58930  1.0000
  C   C1        1.0  0.86772  0.71132  0.97162  1.0000
  C   C2        1.0  0.63229  0.21133  0.52838  1.0000
  C   C3        1.0  0.13228  0.28867  0.02838  1.0000
  C   C4        1.0  0.36772  0.78867  0.47162  1.0000
  C   C5        1.0  0.68227  0.60088  0.98623  1.0000
  C   C6        1.0  0.81774  0.10088  0.51377  1.0000
  C   C7        1.0  0.31774  0.39912  0.01377  1.0000
  C   C8        1.0  0.18227  0.89912  0.48623  1.0000
  C   C9        1.0  0.62841  0.55879  0.06201  1.0000
  C   C10       1.0  0.87159  0.05879  0.43799  1.0000
  C   C11       1.0  0.37158  0.44121  0.93799  1.0000
  C   C12       1.0  0.12842  0.94121  0.56201  1.0000
  C   C13       1.0  0.45068  0.46111  0.07547  1.0000
  C   C14       1.0  0.04931  0.96111  0.42453  1.0000
  C   C15       1.0  0.54932  0.53888  0.92453  1.0000
  C   C16       1.0  0.95069  0.03889  0.57547  1.0000
  C   C17       1.0  0.24381  0.84329  0.13816  1.0000
  C   C18       1.0  0.25620  0.34329  0.36184  1.0000
  C   C19       1.0  0.75619  0.15673  0.86183  1.0000
  C   C20       1.0  0.74380  0.65670  0.63816  1.0000
  C   C21       1.0  0.30891  0.68674  0.24324  1.0000
  C   C22       1.0  0.19111  0.18674  0.25676  1.0000
  C   C23       1.0  0.69107  0.31327  0.75676  1.0000
  C   C24       1.0  0.80890  0.81326  0.74324  1.0000
  C   C25       1.0  0.59430  0.87756  0.23594  1.0000
  C   C26       1.0  0.90570  0.37757  0.26407  1.0000
  C   C27       1.0  0.40570  0.12244  0.76406  1.0000
  C   C28       1.0  0.09430  0.62243  0.73594  1.0000
  N   N1        1.0  0.37706  0.80519  0.20224  1.0000
  N   N2        1.0  0.12295  0.30518  0.29776  1.0000
  N   N3        1.0  0.62293  0.19482  0.79776  1.0000
  N   N4        1.0  0.87706  0.69481  0.70224  1.0000
  O   O1        1.0  0.81092  0.81675  0.00598  1.0000
  O   O2        1.0  0.68908  0.31675  0.49402  1.0000
  O   O3        1.0  0.18908  0.18325  0.99402  1.0000
  O   O4        1.0  0.31092  0.68325  0.50598  1.0000
  O   O5        1.0  0.05587  0.69036  0.92787  1.0000
  O   O6        1.0  0.44413  0.19037  0.57213  1.0000
  O   O7        1.0  0.94412  0.30963  0.07213  1.0000
  O   O8        1.0  0.55589  0.80963  0.42787  1.0000
  O   O9        1.0  0.28405  0.94478  0.09917  1.0000
  O   O10       1.0  0.21596  0.44477  0.40083  1.0000
  O   O11       1.0  0.71596  0.05523  0.90083  1.0000
  O   O12       1.0  0.78403  0.55523  0.59917  1.0000
  O   O13       1.0  0.75131  0.07469  0.09067  1.0000
  O   O14       1.0  0.74869  0.57468  0.40933  1.0000
  O   O15       1.0  0.24870  0.92531  0.90933  1.0000
  O   O16       1.0  0.25131  0.42531  0.59067  1.0000
  F   F1        1.0  0.76050  0.60995  0.12518  1.0000
  F   F2        1.0  0.73948  0.10995  0.37483  1.0000
  F   F3        1.0  0.23948  0.39006  0.87483  1.0000
  F   F4        1.0  0.26053  0.89005  0.62517  1.0000
  F   F5        1.0  0.41731  0.42151  0.15093  1.0000
  F   F6        1.0  0.08268  0.92151  0.34907  1.0000
  F   F7        1.0  0.58270  0.57848  0.84908  1.0000
  F   F8        1.0  0.91731  0.07848  0.65093  1.0000
