data_image0
_chemical_formula_structural       Co2H36C52N12O10
_chemical_formula_sum              "Co2 H36 C52 N12 O10"
_cell_length_a       9.91493
_cell_length_b       12.7398
_cell_length_c       12.2864
_cell_angle_alpha    62.786
_cell_angle_beta     84.3597
_cell_angle_gamma    70.0063

_space_group_name_H-M_alt    "P 1"
_space_group_IT_number       1

loop_
  _space_group_symop_operation_xyz
  'x, y, z'

loop_
  _atom_site_type_symbol
  _atom_site_label
  _atom_site_symmetry_multiplicity
  _atom_site_fract_x
  _atom_site_fract_y
  _atom_site_fract_z
  _atom_site_occupancy
  Co  Co1       1.0  0.88658  0.87544  0.59833  1.0000
  Co  Co2       1.0  0.11341  0.12456  0.40166  1.0000
  H   H1        1.0  0.23365  0.63141  0.81819  1.0000
  H   H2        1.0  0.76634  0.36859  0.18181  1.0000
  H   H3        1.0  0.42312  0.91987  0.63173  1.0000
  H   H4        1.0  0.57688  0.08014  0.36827  1.0000
  H   H5        1.0  0.69632  0.53697  0.83950  1.0000
  H   H6        1.0  0.30367  0.46304  0.16050  1.0000
  H   H7        1.0  0.79835  0.12070  0.02627  1.0000
  H   H8        1.0  0.20166  0.87931  0.97372  1.0000
  H   H9        1.0  0.77457  0.91140  0.16956  1.0000
  H   H10       1.0  0.22545  0.08860  0.83043  1.0000
  H   H11       1.0  0.32980  0.06331  0.13622  1.0000
  H   H12       1.0  0.67022  0.93668  0.86378  1.0000
  H   H13       1.0  0.33339  0.27600  0.00005  1.0000
  H   H14       1.0  0.66662  0.72400  0.99996  1.0000
  H   H15       1.0  0.01537  0.60437  0.37004  1.0000
  H   H16       1.0  0.98463  0.39563  0.62997  1.0000
  H   H17       1.0  0.81087  0.80121  0.40256  1.0000
  H   H18       1.0  0.18913  0.19879  0.59744  1.0000
  H   H19       1.0  0.16758  0.64636  0.65310  1.0000
  H   H20       1.0  0.83242  0.35362  0.34691  1.0000
  H   H21       1.0  0.24499  0.42509  0.74036  1.0000
  H   H22       1.0  0.75503  0.57490  0.25965  1.0000
  H   H23       1.0  0.47168  0.24201  0.79232  1.0000
  H   H24       1.0  0.52834  0.75799  0.20769  1.0000
  H   H25       1.0  0.75888  0.21401  0.74948  1.0000
  H   H26       1.0  0.24112  0.78598  0.25052  1.0000
  H   H27       1.0  0.96506  0.99827  0.75415  1.0000
  H   H28       1.0  0.03495  0.00172  0.24584  1.0000
  H   H29       1.0  0.59468  0.08849  0.54260  1.0000
  H   H30       1.0  0.40532  0.91151  0.45740  1.0000
  H   H31       1.0  0.52140  0.34858  0.40879  1.0000
  H   H32       1.0  0.47858  0.65141  0.59121  1.0000
  H   H33       1.0  0.29479  0.52935  0.35480  1.0000
  H   H34       1.0  0.70520  0.47064  0.64522  1.0000
  H   H35       1.0  0.39478  0.42683  0.96203  1.0000
  H   H36       1.0  0.60523  0.57317  0.03798  1.0000
  C   C1        1.0  0.46677  0.56888  0.83585  1.0000
  C   C2        1.0  0.53322  0.43113  0.16415  1.0000
  C   C3        1.0  0.32949  0.65889  0.79435  1.0000
  C   C4        1.0  0.67051  0.34112  0.20566  1.0000
  C   C5        1.0  0.31378  0.78533  0.71927  1.0000
  C   C6        1.0  0.68622  0.21467  0.28073  1.0000
  C   C7        1.0  0.43586  0.82165  0.69043  1.0000
  C   C8        1.0  0.56414  0.17836  0.30957  1.0000
  C   C9        1.0  0.57241  0.73229  0.73462  1.0000
  C   C10       1.0  0.42758  0.26772  0.26538  1.0000
  C   C11       1.0  0.58905  0.60558  0.80742  1.0000
  C   C12       1.0  0.41094  0.39443  0.19258  1.0000
  C   C13       1.0  0.17106  0.88028  0.65564  1.0000
  C   C14       1.0  0.82893  0.11972  0.34435  1.0000
  C   C15       1.0  0.70294  0.77111  0.70318  1.0000
  C   C16       1.0  0.29705  0.22890  0.29682  1.0000
  C   C17       1.0  0.58759  0.33868  0.91546  1.0000
  C   C18       1.0  0.41240  0.66132  0.08453  1.0000
  C   C19       1.0  0.56886  0.21570  0.00122  1.0000
  C   C20       1.0  0.43114  0.78431  0.99877  1.0000
  C   C21       1.0  0.69322  0.11032  0.04979  1.0000
  C   C22       1.0  0.30679  0.88968  0.95020  1.0000
  C   C23       1.0  0.67895  0.99469  0.12846  1.0000
  C   C24       1.0  0.32106  0.00532  0.87154  1.0000
  C   C25       1.0  0.43268  0.07869  0.11098  1.0000
  C   C26       1.0  0.56733  0.92131  0.88903  1.0000
  C   C27       1.0  0.43557  0.19907  0.03340  1.0000
  C   C28       1.0  0.56444  0.80093  0.96660  1.0000
  C   C29       1.0  0.01532  0.64310  0.43219  1.0000
  C   C30       1.0  0.98468  0.35689  0.56782  1.0000
  C   C31       1.0  0.91542  0.73906  0.44952  1.0000
  C   C32       1.0  0.08457  0.26093  0.55048  1.0000
  C   C33       1.0  0.09568  0.66037  0.58350  1.0000
  C   C34       1.0  0.90431  0.33962  0.41651  1.0000
  C   C35       1.0  0.25660  0.48853  0.54479  1.0000
  C   C36       1.0  0.74340  0.51146  0.45522  1.0000
  C   C37       1.0  0.30740  0.40918  0.66786  1.0000
  C   C38       1.0  0.69261  0.59081  0.33214  1.0000
  C   C39       1.0  0.43435  0.30819  0.69740  1.0000
  C   C40       1.0  0.56566  0.69181  0.30261  1.0000
  C   C41       1.0  0.51060  0.28692  0.60363  1.0000
  C   C42       1.0  0.48940  0.71308  0.39637  1.0000
  C   C43       1.0  0.75748  0.15486  0.70844  1.0000
  C   C44       1.0  0.24252  0.84514  0.29156  1.0000
  C   C45       1.0  0.85716  0.04778  0.71087  1.0000
  C   C46       1.0  0.14284  0.95222  0.28912  1.0000
  C   C47       1.0  0.67040  0.09289  0.59667  1.0000
  C   C48       1.0  0.32959  0.90711  0.40332  1.0000
  C   C49       1.0  0.45969  0.36526  0.48102  1.0000
  C   C50       1.0  0.54030  0.63473  0.51899  1.0000
  C   C51       1.0  0.33197  0.46651  0.45093  1.0000
  C   C52       1.0  0.66802  0.53348  0.54908  1.0000
  N   N1        1.0  0.55150  0.97760  0.15857  1.0000
  N   N2        1.0  0.44852  0.02240  0.84142  1.0000
  N   N3        1.0  0.47702  0.44231  0.90762  1.0000
  N   N4        1.0  0.52298  0.55769  0.09239  1.0000
  N   N5        1.0  0.96798  0.74920  0.54338  1.0000
  N   N6        1.0  0.03201  0.25079  0.45662  1.0000
  N   N7        1.0  0.12910  0.59320  0.51861  1.0000
  N   N8        1.0  0.87090  0.40679  0.48141  1.0000
  N   N9        1.0  0.64043  0.18323  0.63434  1.0000
  N   N10       1.0  0.35956  0.81677  0.36565  1.0000
  N   N11       1.0  0.80180  0.00994  0.64095  1.0000
  N   N12       1.0  0.19819  0.99006  0.35904  1.0000
  O   O1        1.0  0.07431  0.83141  0.66330  1.0000
  O   O2        1.0  0.92569  0.16859  0.33670  1.0000
  O   O3        1.0  0.15997  0.99408  0.59778  1.0000
  O   O4        1.0  0.84003  0.00593  0.40221  1.0000
  O   O5        1.0  0.69778  0.86189  0.59429  1.0000
  O   O6        1.0  0.30222  0.13812  0.40570  1.0000
  O   O7        1.0  0.80986  0.71749  0.77921  1.0000
  O   O8        1.0  0.19013  0.28253  0.22078  1.0000
  O   O9        1.0  0.69651  0.34288  0.85670  1.0000
  O   O10       1.0  0.30348  0.65713  0.14328  1.0000
