data_image0
_chemical_formula_structural       Cu4H38C26S2I4N6O2
_chemical_formula_sum              "Cu4 H38 C26 S2 I4 N6 O2"
_cell_length_a       8.69445
_cell_length_b       9.62376
_cell_length_c       11.7385
_cell_angle_alpha    93.4016
_cell_angle_beta     110.12
_cell_angle_gamma    96.991

_space_group_name_H-M_alt    "P 1"
_space_group_IT_number       1

loop_
  _space_group_symop_operation_xyz
  'x, y, z'

loop_
  _atom_site_type_symbol
  _atom_site_label
  _atom_site_symmetry_multiplicity
  _atom_site_fract_x
  _atom_site_fract_y
  _atom_site_fract_z
  _atom_site_occupancy
  Cu  Cu1       1.0  0.87499  0.08547  0.23811  1.0000
  Cu  Cu2       1.0  0.12500  0.91454  0.76188  1.0000
  Cu  Cu3       1.0  0.57011  0.93884  0.09630  1.0000
  Cu  Cu4       1.0  0.42989  0.06116  0.90370  1.0000
  H   H1        1.0  0.47639  0.31127  0.20991  1.0000
  H   H2        1.0  0.52361  0.68873  0.79009  1.0000
  H   H3        1.0  0.39835  0.67929  0.14609  1.0000
  H   H4        1.0  0.60165  0.32071  0.85391  1.0000
  H   H5        1.0  0.83754  0.78080  0.08382  1.0000
  H   H6        1.0  0.16245  0.21919  0.91618  1.0000
  H   H7        1.0  0.91241  0.53834  0.12089  1.0000
  H   H8        1.0  0.08759  0.46166  0.87910  1.0000
  H   H9        1.0  0.71585  0.36121  0.17098  1.0000
  H   H10       1.0  0.28415  0.63879  0.82902  1.0000
  H   H11       1.0  0.26574  0.19679  0.23662  1.0000
  H   H12       1.0  0.73426  0.80321  0.76338  1.0000
  H   H13       1.0  0.09678  0.22670  0.10922  1.0000
  H   H14       1.0  0.90322  0.77330  0.89078  1.0000
  H   H15       1.0  0.03186  0.18036  0.50795  1.0000
  H   H16       1.0  0.96814  0.81964  0.49205  1.0000
  H   H17       1.0  0.97526  0.35146  0.49427  1.0000
  H   H18       1.0  0.02474  0.64853  0.50573  1.0000
  H   H19       1.0  0.15123  0.32297  0.61916  1.0000
  H   H20       1.0  0.84877  0.67702  0.38084  1.0000
  H   H21       1.0  0.39593  0.24655  0.57579  1.0000
  H   H22       1.0  0.60408  0.75345  0.42421  1.0000
  H   H23       1.0  0.41430  0.25284  0.43017  1.0000
  H   H24       1.0  0.58570  0.74716  0.56983  1.0000
  H   H25       1.0  0.27177  0.11834  0.45462  1.0000
  H   H26       1.0  0.72823  0.88166  0.54537  1.0000
  H   H27       1.0  0.17886  0.55014  0.45255  1.0000
  H   H28       1.0  0.82113  0.44986  0.54745  1.0000
  H   H29       1.0  0.35411  0.50478  0.42262  1.0000
  H   H30       1.0  0.64589  0.49522  0.57738  1.0000
  H   H31       1.0  0.34915  0.50443  0.57259  1.0000
  H   H32       1.0  0.65086  0.49557  0.42741  1.0000
  H   H33       1.0  0.36604  0.86958  0.31315  1.0000
  H   H34       1.0  0.63395  0.13042  0.68685  1.0000
  H   H35       1.0  0.23117  0.70368  0.27743  1.0000
  H   H36       1.0  0.76881  0.29632  0.72256  1.0000
  H   H37       1.0  0.30965  0.79163  0.43063  1.0000
  H   H38       1.0  0.69035  0.20838  0.56937  1.0000
  C   C1        1.0  0.51158  0.64505  0.14341  1.0000
  C   C2        1.0  0.48842  0.35495  0.85659  1.0000
  C   C3        1.0  0.75730  0.70032  0.10718  1.0000
  C   C4        1.0  0.24270  0.29968  0.89282  1.0000
  C   C5        1.0  0.79760  0.56605  0.12754  1.0000
  C   C6        1.0  0.20240  0.43395  0.87246  1.0000
  C   C7        1.0  0.68903  0.46790  0.15601  1.0000
  C   C8        1.0  0.31097  0.53210  0.84399  1.0000
  C   C9        1.0  0.54225  0.50706  0.16356  1.0000
  C   C10       1.0  0.45776  0.49294  0.83644  1.0000
  C   C11       1.0  0.27390  0.41196  0.18294  1.0000
  C   C12       1.0  0.72611  0.58804  0.81706  1.0000
  C   C13       1.0  0.18337  0.27402  0.20005  1.0000
  C   C14       1.0  0.81663  0.72598  0.79995  1.0000
  C   C15       1.0  0.19378  0.32582  0.44856  1.0000
  C   C16       1.0  0.80622  0.67418  0.55144  1.0000
  C   C17       1.0  0.08072  0.29303  0.52149  1.0000
  C   C18       1.0  0.91928  0.70697  0.47851  1.0000
  C   C19       1.0  0.32589  0.22981  0.47699  1.0000
  C   C20       1.0  0.67412  0.77019  0.52301  1.0000
  C   C21       1.0  0.27328  0.48045  0.47509  1.0000
  C   C22       1.0  0.72672  0.51955  0.52491  1.0000
  C   C23       1.0  0.12590  0.88062  0.30601  1.0000
  C   C24       1.0  0.87408  0.11939  0.69399  1.0000
  C   C25       1.0  0.26566  0.80633  0.33318  1.0000
  C   C26       1.0  0.73434  0.19367  0.66683  1.0000
  S   S1        1.0  0.04983  0.29638  0.28623  1.0000
  S   S2        1.0  0.95017  0.70363  0.71377  1.0000
  I   I1        1.0  0.76050  0.07464  0.99269  1.0000
  I   I2        1.0  0.23950  0.92536  0.00731  1.0000
  I   I3        1.0  0.62462  0.09656  0.31023  1.0000
  I   I4        1.0  0.37538  0.90345  0.68977  1.0000
  N   N1        1.0  0.61775  0.73953  0.11597  1.0000
  N   N2        1.0  0.38226  0.26047  0.88403  1.0000
  N   N3        1.0  0.43336  0.40526  0.19021  1.0000
  N   N4        1.0  0.56665  0.59473  0.80979  1.0000
  N   N5        1.0  0.01454  0.94324  0.28485  1.0000
  N   N6        1.0  0.98547  0.05676  0.71516  1.0000
  O   O1        1.0  0.20553  0.51771  0.16010  1.0000
  O   O2        1.0  0.79448  0.48229  0.83990  1.0000
