data_image0
_chemical_formula_structural       Hg4H4C28N16
_chemical_formula_sum              "Hg4 H4 C28 N16"
_cell_length_a       5.6806
_cell_length_b       9.87517
_cell_length_c       13.5348
_cell_angle_alpha    91.6893
_cell_angle_beta     90.0026
_cell_angle_gamma    89.9968

_space_group_name_H-M_alt    "P 1"
_space_group_IT_number       1

loop_
  _space_group_symop_operation_xyz
  'x, y, z'

loop_
  _atom_site_type_symbol
  _atom_site_label
  _atom_site_symmetry_multiplicity
  _atom_site_fract_x
  _atom_site_fract_y
  _atom_site_fract_z
  _atom_site_occupancy
  Hg  Hg1       1.0  0.89284  0.88591  0.99199  1.0000
  Hg  Hg2       1.0  0.39282  0.61408  0.50799  1.0000
  Hg  Hg3       1.0  0.10716  0.11409  0.00800  1.0000
  Hg  Hg4       1.0  0.60716  0.38592  0.49200  1.0000
  H   H1        1.0  0.39392  0.33701  0.77874  1.0000
  H   H2        1.0  0.89382  0.16295  0.72124  1.0000
  H   H3        1.0  0.60610  0.66297  0.22127  1.0000
  H   H4        1.0  0.10616  0.83707  0.27875  1.0000
  C   C1        1.0  0.61656  0.61193  0.90761  1.0000
  C   C2        1.0  0.11654  0.88802  0.59239  1.0000
  C   C3        1.0  0.38344  0.38806  0.09240  1.0000
  C   C4        1.0  0.88343  0.11198  0.40761  1.0000
  C   C5        1.0  0.74411  0.38416  0.89570  1.0000
  C   C6        1.0  0.24404  0.11578  0.60429  1.0000
  C   C7        1.0  0.25591  0.61583  0.10432  1.0000
  C   C8        1.0  0.75594  0.88421  0.39570  1.0000
  C   C9        1.0  0.04039  0.45801  0.70441  1.0000
  C   C10       1.0  0.54036  0.04196  0.79557  1.0000
  C   C11       1.0  0.95966  0.54199  0.29559  1.0000
  C   C12       1.0  0.45963  0.95806  0.20443  1.0000
  C   C13       1.0  0.16891  0.65811  0.79649  1.0000
  C   C14       1.0  0.66891  0.84187  0.70349  1.0000
  C   C15       1.0  0.83113  0.34189  0.20351  1.0000
  C   C16       1.0  0.33107  0.15815  0.29651  1.0000
  C   C17       1.0  0.20694  0.52079  0.76855  1.0000
  C   C18       1.0  0.70690  0.97918  0.73142  1.0000
  C   C19       1.0  0.79311  0.47920  0.23145  1.0000
  C   C20       1.0  0.29308  0.02084  0.26858  1.0000
  C   C21       1.0  0.39240  0.44326  0.80325  1.0000
  C   C22       1.0  0.89233  0.05671  0.69672  1.0000
  C   C23       1.0  0.60762  0.55672  0.19676  1.0000
  C   C24       1.0  0.10764  0.94331  0.30328  1.0000
  C   C25       1.0  0.57700  0.48158  0.86733  1.0000
  C   C26       1.0  0.07693  0.01837  0.63264  1.0000
  C   C27       1.0  0.42301  0.51840  0.13268  1.0000
  C   C28       1.0  0.92304  0.98163  0.36735  1.0000
  N   N1        1.0  0.65801  0.71632  0.94670  1.0000
  N   N2        1.0  0.15801  0.78362  0.55331  1.0000
  N   N3        1.0  0.34201  0.28366  0.05331  1.0000
  N   N4        1.0  0.84198  0.21638  0.44669  1.0000
  N   N5        1.0  0.88671  0.30547  0.91839  1.0000
  N   N6        1.0  0.38664  0.19448  0.58162  1.0000
  N   N7        1.0  0.11330  0.69451  0.08161  1.0000
  N   N8        1.0  0.61334  0.80551  0.41837  1.0000
  N   N9        1.0  0.90425  0.40186  0.65283  1.0000
  N   N10       1.0  0.40422  0.09811  0.84715  1.0000
  N   N11       1.0  0.09576  0.59815  0.34716  1.0000
  N   N12       1.0  0.59576  0.90191  0.15285  1.0000
  N   N13       1.0  0.13643  0.77152  0.82016  1.0000
  N   N14       1.0  0.63639  0.72844  0.67984  1.0000
  N   N15       1.0  0.86358  0.22846  0.17983  1.0000
  N   N16       1.0  0.36361  0.27158  0.32017  1.0000
