data_image0
_chemical_formula_structural       Cu2H40C40S2N8O8
_chemical_formula_sum              "Cu2 H40 C40 S2 N8 O8"
_cell_length_a       9.85952
_cell_length_b       9.85932
_cell_length_c       14.0457
_cell_angle_alpha    96.6535
_cell_angle_beta     96.654
_cell_angle_gamma    116.76

_space_group_name_H-M_alt    "P 1"
_space_group_IT_number       1

loop_
  _space_group_symop_operation_xyz
  'x, y, z'

loop_
  _atom_site_type_symbol
  _atom_site_label
  _atom_site_symmetry_multiplicity
  _atom_site_fract_x
  _atom_site_fract_y
  _atom_site_fract_z
  _atom_site_occupancy
  Cu  Cu1       1.0  0.92533  0.07467  0.24999  1.0000
  Cu  Cu2       1.0  0.07467  0.92533  0.75001  1.0000
  H   H1        1.0  0.41100  0.94133  0.12221  1.0000
  H   H2        1.0  0.05868  0.58900  0.37779  1.0000
  H   H3        1.0  0.58896  0.05865  0.87780  1.0000
  H   H4        1.0  0.94135  0.41107  0.62221  1.0000
  H   H5        1.0  0.43303  0.94393  0.24926  1.0000
  H   H6        1.0  0.05609  0.56699  0.25075  1.0000
  H   H7        1.0  0.56695  0.05605  0.75075  1.0000
  H   H8        1.0  0.94393  0.43307  0.74925  1.0000
  H   H9        1.0  0.36019  0.66561  0.08945  1.0000
  H   H10       1.0  0.33441  0.63982  0.41057  1.0000
  H   H11       1.0  0.63978  0.33438  0.91055  1.0000
  H   H12       1.0  0.66560  0.36018  0.58944  1.0000
  H   H13       1.0  0.21900  0.68742  0.14766  1.0000
  H   H14       1.0  0.31259  0.78102  0.35236  1.0000
  H   H15       1.0  0.78100  0.31256  0.85236  1.0000
  H   H16       1.0  0.68745  0.21900  0.64764  1.0000
  H   H17       1.0  0.23093  0.29170  0.15618  1.0000
  H   H18       1.0  0.70828  0.76905  0.34381  1.0000
  H   H19       1.0  0.76904  0.70827  0.84382  1.0000
  H   H20       1.0  0.29172  0.23096  0.65618  1.0000
  H   H21       1.0  0.20531  0.84338  0.92568  1.0000
  H   H22       1.0  0.15660  0.79469  0.57432  1.0000
  H   H23       1.0  0.79471  0.15665  0.07432  1.0000
  H   H24       1.0  0.84338  0.20529  0.42567  1.0000
  H   H25       1.0  0.00379  0.57808  0.92796  1.0000
  H   H26       1.0  0.42190  0.99621  0.57203  1.0000
  H   H27       1.0  0.99627  0.42193  0.07204  1.0000
  H   H28       1.0  0.57809  0.00377  0.42797  1.0000
  H   H29       1.0  0.82945  0.52908  0.04791  1.0000
  H   H30       1.0  0.47089  0.17055  0.45208  1.0000
  H   H31       1.0  0.17058  0.47088  0.95208  1.0000
  H   H32       1.0  0.52911  0.82943  0.54794  1.0000
  H   H33       1.0  0.84681  0.74661  0.16723  1.0000
  H   H34       1.0  0.25335  0.15319  0.33276  1.0000
  H   H35       1.0  0.15319  0.25333  0.83276  1.0000
  H   H36       1.0  0.74667  0.84682  0.66725  1.0000
  H   H37       1.0  0.30015  0.15431  0.01336  1.0000
  H   H38       1.0  0.84567  0.69983  0.48665  1.0000
  H   H39       1.0  0.69983  0.84569  0.98665  1.0000
  H   H40       1.0  0.15433  0.30018  0.51333  1.0000
  C   C1        1.0  0.61452  0.93101  0.18217  1.0000
  C   C2        1.0  0.06901  0.38549  0.31784  1.0000
  C   C3        1.0  0.38546  0.06899  0.81782  1.0000
  C   C4        1.0  0.93098  0.61455  0.68217  1.0000
  C   C5        1.0  0.44575  0.89051  0.18012  1.0000
  C   C6        1.0  0.10951  0.55427  0.31989  1.0000
  C   C7        1.0  0.55424  0.10949  0.81989  1.0000
  C   C8        1.0  0.89049  0.44577  0.68011  1.0000
  C   C9        1.0  0.34159  0.71581  0.15754  1.0000
  C   C10       1.0  0.28421  0.65842  0.34248  1.0000
  C   C11       1.0  0.65840  0.28419  0.84247  1.0000
  C   C12       1.0  0.71580  0.34159  0.65753  1.0000
  C   C13       1.0  0.18278  0.16751  0.13175  1.0000
  C   C14       1.0  0.83247  0.81720  0.36824  1.0000
  C   C15       1.0  0.81719  0.83248  0.86824  1.0000
  C   C16       1.0  0.16753  0.18280  0.63175  1.0000
  C   C17       1.0  0.13945  0.94306  0.04687  1.0000
  C   C18       1.0  0.05691  0.86055  0.45312  1.0000
  C   C19       1.0  0.86056  0.05692  0.95314  1.0000
  C   C20       1.0  0.94309  0.13944  0.54686  1.0000
  C   C21       1.0  0.13114  0.82238  0.97963  1.0000
  C   C22       1.0  0.17760  0.86887  0.52036  1.0000
  C   C23       1.0  0.86890  0.17762  0.02037  1.0000
  C   C24       1.0  0.82239  0.13112  0.47964  1.0000
  C   C25       1.0  0.01740  0.67429  0.98158  1.0000
  C   C26       1.0  0.32569  0.98260  0.51840  1.0000
  C   C27       1.0  0.98260  0.32572  0.01840  1.0000
  C   C28       1.0  0.67430  0.01741  0.48161  1.0000
  C   C29       1.0  0.91754  0.64706  0.04937  1.0000
  C   C30       1.0  0.35291  0.08246  0.45061  1.0000
  C   C31       1.0  0.08251  0.35291  0.95065  1.0000
  C   C32       1.0  0.64710  0.91752  0.54938  1.0000
  C   C33       1.0  0.92707  0.76714  0.11718  1.0000
  C   C34       1.0  0.23283  0.07293  0.38281  1.0000
  C   C35       1.0  0.07294  0.23283  0.88282  1.0000
  C   C36       1.0  0.76718  0.92708  0.61719  1.0000
  C   C37       1.0  0.03970  0.91729  0.11516  1.0000
  C   C38       1.0  0.08268  0.96028  0.38483  1.0000
  C   C39       1.0  0.96029  0.08269  0.88484  1.0000
  C   C40       1.0  0.91732  0.03972  0.61517  1.0000
  S   S1        1.0  0.38247  0.61755  0.25001  1.0000
  S   S2        1.0  0.61752  0.38244  0.74999  1.0000
  N   N1        1.0  0.07055  0.06075  0.16705  1.0000
  N   N2        1.0  0.93923  0.92943  0.33293  1.0000
  N   N3        1.0  0.92946  0.93924  0.83296  1.0000
  N   N4        1.0  0.06078  0.07058  0.66706  1.0000
  N   N5        1.0  0.22905  0.10214  0.06058  1.0000
  N   N6        1.0  0.89783  0.77093  0.43941  1.0000
  N   N7        1.0  0.77094  0.89785  0.93943  1.0000
  N   N8        1.0  0.10216  0.22907  0.56057  1.0000
  O   O1        1.0  0.71038  0.02683  0.25882  1.0000
  O   O2        1.0  0.97318  0.28963  0.24119  1.0000
  O   O3        1.0  0.28962  0.97318  0.74118  1.0000
  O   O4        1.0  0.02679  0.71038  0.75881  1.0000
  O   O5        1.0  0.65262  0.87248  0.11239  1.0000
  O   O6        1.0  0.12752  0.34737  0.38761  1.0000
  O   O7        1.0  0.34735  0.12751  0.88759  1.0000
  O   O8        1.0  0.87246  0.65267  0.61241  1.0000
