data_image0
_chemical_formula_structural       Zn4H40C48N8Cl8O8
_chemical_formula_sum              "Zn4 H40 C48 N8 Cl8 O8"
_cell_length_a       8.83013
_cell_length_b       11.2617
_cell_length_c       15.9711
_cell_angle_alpha    69.4473
_cell_angle_beta     73.9398
_cell_angle_gamma    66.9122

_space_group_name_H-M_alt    "P 1"
_space_group_IT_number       1

loop_
  _space_group_symop_operation_xyz
  'x, y, z'

loop_
  _atom_site_type_symbol
  _atom_site_label
  _atom_site_symmetry_multiplicity
  _atom_site_fract_x
  _atom_site_fract_y
  _atom_site_fract_z
  _atom_site_occupancy
  Zn  Zn1       1.0  0.11314  0.67361  0.95047  1.0000
  Zn  Zn2       1.0  0.73705  0.82623  0.54954  1.0000
  Zn  Zn3       1.0  0.88686  0.32640  0.04953  1.0000
  Zn  Zn4       1.0  0.26295  0.17377  0.45047  1.0000
  H   H1        1.0  0.19239  0.38781  0.23033  1.0000
  H   H2        1.0  0.81070  0.11213  0.26967  1.0000
  H   H3        1.0  0.80761  0.61219  0.76967  1.0000
  H   H4        1.0  0.18931  0.88786  0.73033  1.0000
  H   H5        1.0  0.39999  0.34874  0.16756  1.0000
  H   H6        1.0  0.91619  0.15122  0.33255  1.0000
  H   H7        1.0  0.60000  0.65126  0.83244  1.0000
  H   H8        1.0  0.08380  0.84877  0.66745  1.0000
  H   H9        1.0  0.10892  0.57071  0.30194  1.0000
  H   H10       1.0  0.98166  0.92947  0.19806  1.0000
  H   H11       1.0  0.89107  0.42929  0.69806  1.0000
  H   H12       1.0  0.01835  0.07053  0.80194  1.0000
  H   H13       1.0  0.60016  0.36315  0.21298  1.0000
  H   H14       1.0  0.17646  0.13679  0.28712  1.0000
  H   H15       1.0  0.39984  0.63685  0.78702  1.0000
  H   H16       1.0  0.82354  0.86321  0.71288  1.0000
  H   H17       1.0  0.19410  0.66791  0.39068  1.0000
  H   H18       1.0  0.25286  0.83219  0.10934  1.0000
  H   H19       1.0  0.80590  0.33209  0.60932  1.0000
  H   H20       1.0  0.74714  0.16781  0.89066  1.0000
  H   H21       1.0  0.70873  0.44793  0.29757  1.0000
  H   H22       1.0  0.45449  0.05206  0.20247  1.0000
  H   H23       1.0  0.29127  0.55207  0.70243  1.0000
  H   H24       1.0  0.54551  0.94794  0.79753  1.0000
  H   H25       1.0  0.28011  0.74184  0.46267  1.0000
  H   H26       1.0  0.48491  0.75833  0.03720  1.0000
  H   H27       1.0  0.71989  0.25816  0.53733  1.0000
  H   H28       1.0  0.51509  0.24168  0.96279  1.0000
  H   H29       1.0  0.78816  0.53332  0.35486  1.0000
  H   H30       1.0  0.67659  0.96646  0.14526  1.0000
  H   H31       1.0  0.21184  0.46668  0.64514  1.0000
  H   H32       1.0  0.32341  0.03354  0.85474  1.0000
  H   H33       1.0  0.39989  0.83679  0.53588  1.0000
  H   H34       1.0  0.77284  0.66337  0.96401  1.0000
  H   H35       1.0  0.60011  0.16321  0.46411  1.0000
  H   H36       1.0  0.22716  0.33663  0.03599  1.0000
  H   H37       1.0  0.88412  0.63402  0.43574  1.0000
  H   H38       1.0  0.95417  0.86574  0.06441  1.0000
  H   H39       1.0  0.11588  0.36598  0.56426  1.0000
  H   H40       1.0  0.04583  0.13426  0.93559  1.0000
  C   C1        1.0  0.22941  0.55049  0.11513  1.0000
  C   C2        1.0  0.89491  0.94944  0.38492  1.0000
  C   C3        1.0  0.77059  0.44951  0.88487  1.0000
  C   C4        1.0  0.10510  0.05055  0.61508  1.0000
  C   C5        1.0  0.29576  0.42701  0.19305  1.0000
  C   C6        1.0  0.91585  0.07293  0.30705  1.0000
  C   C7        1.0  0.70424  0.57299  0.80695  1.0000
  C   C8        1.0  0.08416  0.92707  0.69295  1.0000
  C   C9        1.0  0.23915  0.54813  0.30426  1.0000
  C   C10       1.0  0.09169  0.95192  0.19581  1.0000
  C   C11       1.0  0.76085  0.45187  0.69574  1.0000
  C   C12       1.0  0.90832  0.04808  0.80419  1.0000
  C   C13       1.0  0.51708  0.42997  0.25425  1.0000
  C   C14       1.0  0.20150  0.06994  0.24587  1.0000
  C   C15       1.0  0.48292  0.57003  0.74576  1.0000
  C   C16       1.0  0.79850  0.93006  0.75413  1.0000
  C   C17       1.0  0.29090  0.59996  0.35394  1.0000
  C   C18       1.0  0.24499  0.90006  0.14613  1.0000
  C   C19       1.0  0.70910  0.40003  0.64606  1.0000
  C   C20       1.0  0.75501  0.09994  0.85387  1.0000
  C   C21       1.0  0.57420  0.47955  0.30252  1.0000
  C   C22       1.0  0.35654  0.02041  0.19755  1.0000
  C   C23       1.0  0.42579  0.52045  0.69748  1.0000
  C   C24       1.0  0.64346  0.97959  0.80245  1.0000
  C   C25       1.0  0.46185  0.56884  0.35260  1.0000
  C   C26       1.0  0.38350  0.93113  0.14747  1.0000
  C   C27       1.0  0.53815  0.43116  0.64740  1.0000
  C   C28       1.0  0.61650  0.06887  0.85253  1.0000
  C   C29       1.0  0.52326  0.62823  0.40020  1.0000
  C   C30       1.0  0.55188  0.87178  0.09979  1.0000
  C   C31       1.0  0.47674  0.37177  0.59980  1.0000
  C   C32       1.0  0.44811  0.12822  0.90020  1.0000
  C   C33       1.0  0.41533  0.71465  0.45307  1.0000
  C   C34       1.0  0.58331  0.78546  0.04686  1.0000
  C   C35       1.0  0.58467  0.28535  0.54693  1.0000
  C   C36       1.0  0.41669  0.21454  0.95314  1.0000
  C   C37       1.0  0.69524  0.59983  0.39370  1.0000
  C   C38       1.0  0.68898  0.90008  0.10635  1.0000
  C   C39       1.0  0.30476  0.40017  0.60630  1.0000
  C   C40       1.0  0.31102  0.09992  0.89365  1.0000
  C   C41       1.0  0.48122  0.76749  0.49589  1.0000
  C   C42       1.0  0.74489  0.73262  0.00404  1.0000
  C   C43       1.0  0.51878  0.23251  0.50411  1.0000
  C   C44       1.0  0.25511  0.26738  0.99596  1.0000
  C   C45       1.0  0.75161  0.65468  0.43938  1.0000
  C   C46       1.0  0.84590  0.84526  0.06066  1.0000
  C   C47       1.0  0.24839  0.34532  0.56062  1.0000
  C   C48       1.0  0.15410  0.15474  0.93934  1.0000
  N   N1        1.0  0.87437  0.76226  0.01041  1.0000
  N   N2        1.0  0.64676  0.73774  0.48959  1.0000
  N   N3        1.0  0.12563  0.23774  0.98959  1.0000
  N   N4        1.0  0.35324  0.26226  0.51041  1.0000
  N   N5        1.0  0.35176  0.46540  0.25475  1.0000
  N   N6        1.0  0.07205  0.03457  0.24536  1.0000
  N   N7        1.0  0.64824  0.53460  0.74526  1.0000
  N   N8        1.0  0.92795  0.96543  0.75464  1.0000
  Cl  Cl1       1.0  0.26803  0.81304  0.89190  1.0000
  Cl  Cl2       1.0  0.97294  0.68700  0.60804  1.0000
  Cl  Cl3       1.0  0.73197  0.18696  0.10810  1.0000
  Cl  Cl4       1.0  0.02705  0.31300  0.39197  1.0000
  Cl  Cl5       1.0  0.07546  0.60349  0.84500  1.0000
  Cl  Cl6       1.0  0.52385  0.89637  0.65505  1.0000
  Cl  Cl7       1.0  0.92454  0.39651  0.15500  1.0000
  Cl  Cl8       1.0  0.47614  0.10363  0.34495  1.0000
  O   O1        1.0  0.23693  0.52048  0.04323  1.0000
  O   O2        1.0  0.80048  0.97944  0.45683  1.0000
  O   O3        1.0  0.76307  0.47952  0.95677  1.0000
  O   O4        1.0  0.19952  0.02056  0.54317  1.0000
  O   O5        1.0  0.17095  0.66428  0.12771  1.0000
  O   O6        1.0  0.96262  0.83571  0.37225  1.0000
  O   O7        1.0  0.82905  0.33572  0.87229  1.0000
  O   O8        1.0  0.03739  0.16429  0.62775  1.0000
