data_image0
_chemical_formula_structural       Zn4H40C48Br8N8O8
_chemical_formula_sum              "Zn4 H40 C48 Br8 N8 O8"
_cell_length_a       9.22827
_cell_length_b       11.2551
_cell_length_c       16.023
_cell_angle_alpha    69.9205
_cell_angle_beta     73.2727
_cell_angle_gamma    65.8066

_space_group_name_H-M_alt    "P 1"
_space_group_IT_number       1

loop_
  _space_group_symop_operation_xyz
  'x, y, z'

loop_
  _atom_site_type_symbol
  _atom_site_label
  _atom_site_symmetry_multiplicity
  _atom_site_fract_x
  _atom_site_fract_y
  _atom_site_fract_z
  _atom_site_occupancy
  Zn  Zn1       1.0  0.10308  0.67296  0.95901  1.0000
  Zn  Zn2       1.0  0.73511  0.82692  0.54087  1.0000
  Zn  Zn3       1.0  0.89692  0.32704  0.04099  1.0000
  Zn  Zn4       1.0  0.26488  0.17308  0.45913  1.0000
  H   H1        1.0  0.39024  0.35315  0.17003  1.0000
  H   H2        1.0  0.91374  0.14633  0.32977  1.0000
  H   H3        1.0  0.60975  0.64684  0.82998  1.0000
  H   H4        1.0  0.08627  0.85367  0.67023  1.0000
  H   H5        1.0  0.19300  0.38963  0.23766  1.0000
  H   H6        1.0  0.82058  0.10986  0.26214  1.0000
  H   H7        1.0  0.80700  0.61037  0.76235  1.0000
  H   H8        1.0  0.17942  0.89014  0.73785  1.0000
  H   H9        1.0  0.11000  0.57905  0.30750  1.0000
  H   H10       1.0  0.99708  0.92035  0.19228  1.0000
  H   H11       1.0  0.89000  0.42095  0.69250  1.0000
  H   H12       1.0  0.00293  0.07965  0.80772  1.0000
  H   H13       1.0  0.58461  0.36656  0.21211  1.0000
  H   H14       1.0  0.16336  0.13315  0.28775  1.0000
  H   H15       1.0  0.41539  0.63344  0.78789  1.0000
  H   H16       1.0  0.83664  0.86685  0.71225  1.0000
  H   H17       1.0  0.19360  0.67392  0.39569  1.0000
  H   H18       1.0  0.26382  0.82556  0.10418  1.0000
  H   H19       1.0  0.80640  0.32608  0.60430  1.0000
  H   H20       1.0  0.73619  0.17444  0.89582  1.0000
  H   H21       1.0  0.69038  0.44894  0.29644  1.0000
  H   H22       1.0  0.43589  0.05087  0.20351  1.0000
  H   H23       1.0  0.30962  0.55106  0.70356  1.0000
  H   H24       1.0  0.56412  0.94914  0.79649  1.0000
  H   H25       1.0  0.28384  0.73469  0.47488  1.0000
  H   H26       1.0  0.49394  0.76518  0.02501  1.0000
  H   H27       1.0  0.71616  0.26530  0.52512  1.0000
  H   H28       1.0  0.50607  0.23482  0.97499  1.0000
  H   H29       1.0  0.76695  0.55130  0.33786  1.0000
  H   H30       1.0  0.65648  0.94847  0.16225  1.0000
  H   H31       1.0  0.23305  0.44870  0.66214  1.0000
  H   H32       1.0  0.34352  0.05154  0.83775  1.0000
  H   H33       1.0  0.40453  0.83082  0.54292  1.0000
  H   H34       1.0  0.77872  0.66904  0.95703  1.0000
  H   H35       1.0  0.59546  0.16918  0.45708  1.0000
  H   H36       1.0  0.22129  0.33096  0.04297  1.0000
  H   H37       1.0  0.86652  0.64520  0.41874  1.0000
  H   H38       1.0  0.93083  0.85471  0.08128  1.0000
  H   H39       1.0  0.13347  0.35481  0.58126  1.0000
  H   H40       1.0  0.06917  0.14529  0.91873  1.0000
  C   C1        1.0  0.21567  0.55345  0.12224  1.0000
  C   C2        1.0  0.89188  0.94602  0.37752  1.0000
  C   C3        1.0  0.78433  0.44654  0.87777  1.0000
  C   C4        1.0  0.10812  0.05398  0.62247  1.0000
  C   C5        1.0  0.28870  0.43113  0.19759  1.0000
  C   C6        1.0  0.91776  0.06836  0.30218  1.0000
  C   C7        1.0  0.71130  0.56886  0.80241  1.0000
  C   C8        1.0  0.08224  0.93164  0.69782  1.0000
  C   C9        1.0  0.23615  0.55457  0.30829  1.0000
  C   C10       1.0  0.09947  0.94493  0.19151  1.0000
  C   C11       1.0  0.76384  0.44542  0.69171  1.0000
  C   C12       1.0  0.90054  0.05507  0.80849  1.0000
  C   C13       1.0  0.50446  0.43397  0.25449  1.0000
  C   C14       1.0  0.19309  0.06568  0.24538  1.0000
  C   C15       1.0  0.49554  0.56602  0.74552  1.0000
  C   C16       1.0  0.80692  0.93432  0.75462  1.0000
  C   C17       1.0  0.28707  0.60599  0.35723  1.0000
  C   C18       1.0  0.25080  0.89351  0.14265  1.0000
  C   C19       1.0  0.71293  0.39400  0.64277  1.0000
  C   C20       1.0  0.74920  0.10649  0.85735  1.0000
  C   C21       1.0  0.56023  0.48244  0.30241  1.0000
  C   C22       1.0  0.34529  0.01730  0.19748  1.0000
  C   C23       1.0  0.43976  0.51756  0.69759  1.0000
  C   C24       1.0  0.65472  0.98271  0.80252  1.0000
  C   C25       1.0  0.45253  0.57355  0.35340  1.0000
  C   C26       1.0  0.37989  0.92611  0.14653  1.0000
  C   C27       1.0  0.54747  0.42645  0.64660  1.0000
  C   C28       1.0  0.62012  0.07389  0.85347  1.0000
  C   C29       1.0  0.51450  0.63272  0.39896  1.0000
  C   C30       1.0  0.54662  0.86706  0.10104  1.0000
  C   C31       1.0  0.48550  0.36728  0.60104  1.0000
  C   C32       1.0  0.45339  0.13294  0.89896  1.0000
  C   C33       1.0  0.41384  0.71279  0.45833  1.0000
  C   C34       1.0  0.58546  0.78704  0.04162  1.0000
  C   C35       1.0  0.58616  0.28721  0.54167  1.0000
  C   C36       1.0  0.41455  0.21297  0.95837  1.0000
  C   C37       1.0  0.68023  0.61041  0.38359  1.0000
  C   C38       1.0  0.67465  0.88939  0.11647  1.0000
  C   C39       1.0  0.31977  0.38958  0.61641  1.0000
  C   C40       1.0  0.32535  0.11061  0.88353  1.0000
  C   C41       1.0  0.48064  0.76532  0.49862  1.0000
  C   C42       1.0  0.74502  0.73457  0.00133  1.0000
  C   C43       1.0  0.51935  0.23468  0.50138  1.0000
  C   C44       1.0  0.25499  0.26543  0.99867  1.0000
  C   C45       1.0  0.73849  0.66302  0.42815  1.0000
  C   C46       1.0  0.83004  0.83689  0.07185  1.0000
  C   C47       1.0  0.26151  0.33699  0.57184  1.0000
  C   C48       1.0  0.16997  0.16311  0.92815  1.0000
  Br  Br1       1.0  0.08049  0.59678  0.84272  1.0000
  Br  Br2       1.0  0.52050  0.90351  0.65717  1.0000
  Br  Br3       1.0  0.91951  0.40323  0.15728  1.0000
  Br  Br4       1.0  0.47950  0.09648  0.34283  1.0000
  Br  Br5       1.0  0.25817  0.82134  0.90286  1.0000
  Br  Br6       1.0  0.98251  0.67909  0.59713  1.0000
  Br  Br7       1.0  0.74183  0.17867  0.09713  1.0000
  Br  Br8       1.0  0.01748  0.32091  0.40288  1.0000
  N   N1        1.0  0.86563  0.75990  0.01541  1.0000
  N   N2        1.0  0.64066  0.73998  0.48460  1.0000
  N   N3        1.0  0.13438  0.24010  0.98460  1.0000
  N   N4        1.0  0.35933  0.26003  0.51539  1.0000
  N   N5        1.0  0.34428  0.47150  0.25687  1.0000
  N   N6        1.0  0.07293  0.02810  0.24290  1.0000
  N   N7        1.0  0.65571  0.52849  0.74314  1.0000
  N   N8        1.0  0.92707  0.97190  0.75709  1.0000
  O   O1        1.0  0.22568  0.52166  0.05048  1.0000
  O   O2        1.0  0.79789  0.97796  0.44914  1.0000
  O   O3        1.0  0.77433  0.47834  0.94952  1.0000
  O   O4        1.0  0.20210  0.02205  0.55086  1.0000
  O   O5        1.0  0.15041  0.66748  0.13657  1.0000
  O   O6        1.0  0.95541  0.83191  0.36333  1.0000
  O   O7        1.0  0.84959  0.33251  0.86344  1.0000
  O   O8        1.0  0.04459  0.16809  0.63667  1.0000
