data_image0
_chemical_formula_structural       Cu2H48C52I4N4O10
_chemical_formula_sum              "Cu2 H48 C52 I4 N4 O10"
_cell_length_a       9.61151
_cell_length_b       10.818
_cell_length_c       13.5093
_cell_angle_alpha    100.604
_cell_angle_beta     102.148
_cell_angle_gamma    90.5409

_space_group_name_H-M_alt    "P 1"
_space_group_IT_number       1

loop_
  _space_group_symop_operation_xyz
  'x, y, z'

loop_
  _atom_site_type_symbol
  _atom_site_label
  _atom_site_symmetry_multiplicity
  _atom_site_fract_x
  _atom_site_fract_y
  _atom_site_fract_z
  _atom_site_occupancy
  Cu  Cu1       1.0  0.00000  0.00000  0.00000  1.0000
  Cu  Cu2       1.0  0.50000  0.00000  1.00000  1.0000
  H   H1        1.0  0.78370  0.95290  0.80548  1.0000
  H   H2        1.0  0.21630  0.04711  0.19452  1.0000
  H   H3        1.0  0.74991  0.80911  0.63490  1.0000
  H   H4        1.0  0.25009  0.19089  0.36510  1.0000
  H   H5        1.0  0.15115  0.65318  0.74745  1.0000
  H   H6        1.0  0.84885  0.34683  0.25255  1.0000
  H   H7        1.0  0.16968  0.80413  0.91324  1.0000
  H   H8        1.0  0.83032  0.19587  0.08676  1.0000
  H   H9        1.0  0.99853  0.54897  0.58350  1.0000
  H   H10       1.0  0.00146  0.45103  0.41651  1.0000
  H   H11       1.0  0.98410  0.68077  0.52117  1.0000
  H   H12       1.0  0.01589  0.31924  0.47883  1.0000
  H   H13       1.0  0.82763  0.60417  0.53653  1.0000
  H   H14       1.0  0.17237  0.39583  0.46347  1.0000
  H   H15       1.0  0.21558  0.62218  0.41277  1.0000
  H   H16       1.0  0.78442  0.37782  0.58723  1.0000
  H   H17       1.0  0.28269  0.43943  0.29384  1.0000
  H   H18       1.0  0.71732  0.56057  0.70615  1.0000
  H   H19       1.0  0.22309  0.42927  0.10609  1.0000
  H   H20       1.0  0.77691  0.57073  0.89391  1.0000
  H   H21       1.0  0.09670  0.60706  0.03439  1.0000
  H   H22       1.0  0.90331  0.39294  0.96561  1.0000
  H   H23       1.0  0.33430  0.83929  0.09061  1.0000
  H   H24       1.0  0.66571  0.16071  0.90938  1.0000
  H   H25       1.0  0.35590  0.76707  0.25749  1.0000
  H   H26       1.0  0.64411  0.23293  0.74250  1.0000
  H   H27       1.0  0.73791  0.00806  0.37444  1.0000
  H   H28       1.0  0.26209  0.99194  0.62555  1.0000
  H   H29       1.0  0.70472  0.06586  0.20136  1.0000
  H   H30       1.0  0.29529  0.93414  0.79864  1.0000
  H   H31       1.0  0.54145  0.74125  0.42361  1.0000
  H   H32       1.0  0.45855  0.25875  0.57639  1.0000
  H   H33       1.0  0.48155  0.88830  0.47475  1.0000
  H   H34       1.0  0.51846  0.11170  0.52525  1.0000
  H   H35       1.0  0.66734  0.87019  0.48360  1.0000
  H   H36       1.0  0.33266  0.12981  0.51640  1.0000
  H   H37       1.0  0.28256  0.39508  0.62349  1.0000
  H   H38       1.0  0.71744  0.60492  0.37651  1.0000
  H   H39       1.0  0.21458  0.28306  0.75368  1.0000
  H   H40       1.0  0.78543  0.71693  0.24632  1.0000
  H   H41       1.0  0.26861  0.38374  0.93766  1.0000
  H   H42       1.0  0.73139  0.61625  0.06234  1.0000
  H   H43       1.0  0.39372  0.59704  0.99378  1.0000
  H   H44       1.0  0.60627  0.40295  0.00623  1.0000
  H   H45       1.0  0.29053  0.12300  0.05275  1.0000
  H   H46       1.0  0.70947  0.87700  0.94725  1.0000
  H   H47       1.0  0.20891  0.08409  0.93648  1.0000
  H   H48       1.0  0.79110  0.91591  0.06352  1.0000
  C   C1        1.0  0.86293  0.88550  0.78870  1.0000
  C   C2        1.0  0.13706  0.11450  0.21130  1.0000
  C   C3        1.0  0.84592  0.80546  0.69360  1.0000
  C   C4        1.0  0.15407  0.19455  0.30640  1.0000
  C   C5        1.0  0.95016  0.72005  0.67529  1.0000
  C   C6        1.0  0.04984  0.27996  0.32472  1.0000
  C   C7        1.0  0.06777  0.71906  0.75626  1.0000
  C   C8        1.0  0.93222  0.28094  0.24374  1.0000
  C   C9        1.0  0.07839  0.80163  0.84948  1.0000
  C   C10       1.0  0.92160  0.19837  0.15052  1.0000
  C   C11       1.0  0.93894  0.63331  0.57373  1.0000
  C   C12       1.0  0.06105  0.36670  0.42628  1.0000
  C   C13       1.0  0.00357  0.81351  0.13385  1.0000
  C   C14       1.0  0.99643  0.18649  0.86615  1.0000
  C   C15       1.0  0.07953  0.71110  0.18252  1.0000
  C   C16       1.0  0.92047  0.28890  0.81748  1.0000
  C   C17       1.0  0.11323  0.71360  0.28896  1.0000
  C   C18       1.0  0.88677  0.28640  0.71104  1.0000
  C   C19       1.0  0.18680  0.61706  0.32960  1.0000
  C   C20       1.0  0.81320  0.38294  0.67040  1.0000
  C   C21       1.0  0.22504  0.51495  0.26288  1.0000
  C   C22       1.0  0.77496  0.48505  0.73712  1.0000
  C   C23       1.0  0.19149  0.50975  0.15646  1.0000
  C   C24       1.0  0.80851  0.49024  0.84354  1.0000
  C   C25       1.0  0.12073  0.60777  0.11712  1.0000
  C   C26       1.0  0.87927  0.39223  0.88287  1.0000
  C   C27       1.0  0.42292  0.87300  0.15522  1.0000
  C   C28       1.0  0.57709  0.12701  0.84478  1.0000
  C   C29       1.0  0.43496  0.83481  0.24911  1.0000
  C   C30       1.0  0.56504  0.16519  0.75088  1.0000
  C   C31       1.0  0.54819  0.88271  0.33169  1.0000
  C   C32       1.0  0.45181  0.11729  0.66831  1.0000
  C   C33       1.0  0.64640  0.96789  0.31407  1.0000
  C   C34       1.0  0.35360  0.03211  0.68592  1.0000
  C   C35       1.0  0.62906  0.00093  0.21762  1.0000
  C   C36       1.0  0.37095  0.99907  0.78238  1.0000
  C   C37       1.0  0.56142  0.84354  0.43407  1.0000
  C   C38       1.0  0.43858  0.15646  0.56592  1.0000
  C   C39       1.0  0.49751  0.73837  0.88249  1.0000
  C   C40       1.0  0.50249  0.26162  0.11752  1.0000
  C   C41       1.0  0.41654  0.61287  0.84174  1.0000
  C   C42       1.0  0.58346  0.38713  0.15826  1.0000
  C   C43       1.0  0.38376  0.55475  0.73745  1.0000
  C   C44       1.0  0.61623  0.44525  0.26255  1.0000
  C   C45       1.0  0.30999  0.43740  0.70508  1.0000
  C   C46       1.0  0.69001  0.56260  0.29493  1.0000
  C   C47       1.0  0.27031  0.37538  0.77750  1.0000
  C   C48       1.0  0.72969  0.62462  0.22250  1.0000
  C   C49       1.0  0.30061  0.43243  0.88159  1.0000
  C   C50       1.0  0.69939  0.56756  0.11841  1.0000
  C   C51       1.0  0.37117  0.55069  0.91287  1.0000
  C   C52       1.0  0.62883  0.44930  0.08714  1.0000
  I   I1        1.0  0.07170  0.87150  0.39596  1.0000
  I   I2        1.0  0.92827  0.12849  0.60405  1.0000
  I   I3        1.0  0.42682  0.64856  0.62174  1.0000
  I   I4        1.0  0.57318  0.35144  0.37827  1.0000
  N   N1        1.0  0.97737  0.88391  0.86519  1.0000
  N   N2        1.0  0.02262  0.11610  0.13481  1.0000
  N   N3        1.0  0.51921  0.95463  0.13946  1.0000
  N   N4        1.0  0.48080  0.04537  0.86053  1.0000
  O   O1        1.0  0.06770  0.85515  0.07136  1.0000
  O   O2        1.0  0.93230  0.14485  0.92864  1.0000
  O   O3        1.0  0.88719  0.84743  0.15568  1.0000
  O   O4        1.0  0.11281  0.15257  0.84432  1.0000
  O   O5        1.0  0.43070  0.82010  0.93391  1.0000
  O   O6        1.0  0.56930  0.17990  0.06609  1.0000
  O   O7        1.0  0.62026  0.75139  0.86602  1.0000
  O   O8        1.0  0.37975  0.24860  0.13398  1.0000
  O   O9        1.0  0.25161  0.04766  0.99830  1.0000
  O   O10       1.0  0.74839  0.95234  0.00170  1.0000
