data_image0
_chemical_formula_structural       Cu2H32C34N6Cl2O4
_chemical_formula_sum              "Cu2 H32 C34 N6 Cl2 O4"
_cell_length_a       7.54601
_cell_length_b       8.97923
_cell_length_c       12.0589
_cell_angle_alpha    90.315
_cell_angle_beta     89.9993
_cell_angle_gamma    89.9998

_space_group_name_H-M_alt    "P 1"
_space_group_IT_number       1

loop_
  _space_group_symop_operation_xyz
  'x, y, z'

loop_
  _atom_site_type_symbol
  _atom_site_label
  _atom_site_symmetry_multiplicity
  _atom_site_fract_x
  _atom_site_fract_y
  _atom_site_fract_z
  _atom_site_occupancy
  Cu  Cu1       1.0  0.05125  0.47863  0.18189  1.0000
  Cu  Cu2       1.0  0.55126  0.52140  0.81810  1.0000
  H   H1        1.0  0.23035  0.20213  0.02976  1.0000
  H   H2        1.0  0.73037  0.79789  0.97024  1.0000
  H   H3        1.0  0.90237  0.23897  0.88186  1.0000
  H   H4        1.0  0.40235  0.76105  0.11809  1.0000
  H   H5        1.0  0.11709  0.22802  0.82795  1.0000
  H   H6        1.0  0.61703  0.77196  0.17205  1.0000
  H   H7        1.0  0.14818  0.94166  0.05630  1.0000
  H   H8        1.0  0.64817  0.05836  0.94373  1.0000
  H   H9        1.0  0.11527  0.12053  0.19217  1.0000
  H   H10       1.0  0.61534  0.87946  0.80782  1.0000
  H   H11       1.0  0.89829  0.07224  0.14654  1.0000
  H   H12       1.0  0.39834  0.92779  0.85347  1.0000
  H   H13       1.0  0.79879  0.01728  0.34135  1.0000
  H   H14       1.0  0.29883  0.98271  0.65863  1.0000
  H   H15       1.0  0.82879  0.62143  0.60104  1.0000
  H   H16       1.0  0.32874  0.37856  0.39897  1.0000
  H   H17       1.0  0.91037  0.54993  0.41102  1.0000
  H   H18       1.0  0.41041  0.45007  0.58900  1.0000
  H   H19       1.0  0.96508  0.55199  0.78134  1.0000
  H   H20       1.0  0.46507  0.44799  0.21868  1.0000
  H   H21       1.0  0.74998  0.39765  0.55883  1.0000
  H   H22       1.0  0.25003  0.60232  0.44117  1.0000
  H   H23       1.0  0.86672  0.08994  0.68062  1.0000
  H   H24       1.0  0.36667  0.91003  0.31939  1.0000
  H   H25       1.0  0.78352  0.88428  0.54978  1.0000
  H   H26       1.0  0.28340  0.11571  0.45021  1.0000
  H   H27       1.0  0.68910  0.13219  0.52046  1.0000
  H   H28       1.0  0.18916  0.86778  0.47954  1.0000
  H   H29       1.0  0.09880  0.68674  0.98135  1.0000
  H   H30       1.0  0.59879  0.31326  0.01867  1.0000
  H   H31       1.0  0.87105  0.31498  0.06855  1.0000
  H   H32       1.0  0.37107  0.68504  0.93146  1.0000
  C   C1        1.0  0.11507  0.26648  0.00081  1.0000
  C   C2        1.0  0.61512  0.73353  0.99922  1.0000
  C   C3        1.0  0.03472  0.19128  0.89827  1.0000
  C   C4        1.0  0.53471  0.80873  0.10173  1.0000
  C   C5        1.0  0.02796  0.02495  0.89777  1.0000
  C   C6        1.0  0.52799  0.97505  0.10224  1.0000
  C   C7        1.0  0.08835  0.92438  0.97548  1.0000
  C   C8        1.0  0.58836  0.07562  0.02454  1.0000
  C   C9        1.0  0.96422  0.93722  0.80547  1.0000
  C   C10       1.0  0.46425  0.06279  0.19452  1.0000
  C   C11       1.0  0.98125  0.16448  0.17711  1.0000
  C   C12       1.0  0.48128  0.83554  0.82287  1.0000
  C   C13       1.0  0.82197  0.13415  0.36125  1.0000
  C   C14       1.0  0.32199  0.86584  0.63872  1.0000
  C   C15       1.0  0.90993  0.22391  0.28505  1.0000
  C   C16       1.0  0.40992  0.77608  0.71494  1.0000
  C   C17       1.0  0.99085  0.78398  0.83275  1.0000
  C   C18       1.0  0.49087  0.21603  0.16725  1.0000
  C   C19       1.0  0.19017  0.42036  0.96993  1.0000
  C   C20       1.0  0.69023  0.57966  0.03004  1.0000
  C   C21       1.0  0.86814  0.70851  0.65915  1.0000
  C   C22       1.0  0.36809  0.29149  0.34085  1.0000
  C   C23       1.0  0.88237  0.43136  0.40141  1.0000
  C   C24       1.0  0.38239  0.56863  0.59861  1.0000
  C   C25       1.0  0.94261  0.66831  0.76029  1.0000
  C   C26       1.0  0.44261  0.33169  0.23971  1.0000
  C   C27       1.0  0.79482  0.34814  0.48107  1.0000
  C   C28       1.0  0.29487  0.65183  0.51893  1.0000
  C   C29       1.0  0.88943  0.97377  0.70219  1.0000
  C   C30       1.0  0.38939  0.02622  0.29780  1.0000
  C   C31       1.0  0.84214  0.85891  0.63012  1.0000
  C   C32       1.0  0.34208  0.14108  0.36987  1.0000
  C   C33       1.0  0.76257  0.19756  0.46004  1.0000
  C   C34       1.0  0.26261  0.80241  0.53995  1.0000
  N   N1        1.0  0.06654  0.78034  0.93663  1.0000
  N   N2        1.0  0.56656  0.21965  0.06337  1.0000
  N   N3        1.0  0.99491  0.28604  0.09635  1.0000
  N   N4        1.0  0.49495  0.71394  0.90365  1.0000
  N   N5        1.0  0.93842  0.36999  0.30560  1.0000
  N   N6        1.0  0.43845  0.63000  0.69442  1.0000
  Cl  Cl1       1.0  0.10405  0.70183  0.25966  1.0000
  Cl  Cl2       1.0  0.60407  0.29822  0.74035  1.0000
  O   O1        1.0  0.18500  0.52431  0.04614  1.0000
  O   O2        1.0  0.68500  0.47569  0.95386  1.0000
  O   O3        1.0  0.25469  0.44163  0.87670  1.0000
  O   O4        1.0  0.75475  0.55838  0.12331  1.0000
