data_image0
_chemical_formula_structural       Tb2H42C40O28
_chemical_formula_sum              "Tb2 H42 C40 O28"
_cell_length_a       9.34814
_cell_length_b       10.3038
_cell_length_c       13.0973
_cell_angle_alpha    100.397
_cell_angle_beta     96.5134
_cell_angle_gamma    113.496

_space_group_name_H-M_alt    "P 1"
_space_group_IT_number       1

loop_
  _space_group_symop_operation_xyz
  'x, y, z'

loop_
  _atom_site_type_symbol
  _atom_site_label
  _atom_site_symmetry_multiplicity
  _atom_site_fract_x
  _atom_site_fract_y
  _atom_site_fract_z
  _atom_site_occupancy
  Tb  Tb1       1.0  0.28256  0.54891  0.51984  1.0000
  Tb  Tb2       1.0  0.71744  0.45109  0.48016  1.0000
  H   H1        1.0  0.44089  0.72290  0.92697  1.0000
  H   H2        1.0  0.55910  0.27710  0.07303  1.0000
  H   H3        1.0  0.50677  0.87227  0.81993  1.0000
  H   H4        1.0  0.49323  0.12773  0.18007  1.0000
  H   H5        1.0  0.49833  0.08424  0.34449  1.0000
  H   H6        1.0  0.50168  0.91576  0.65551  1.0000
  H   H7        1.0  0.10661  0.64192  0.66932  1.0000
  H   H8        1.0  0.89339  0.35808  0.33068  1.0000
  H   H9        1.0  0.27530  0.78110  0.68945  1.0000
  H   H10       1.0  0.72470  0.21890  0.31054  1.0000
  H   H11       1.0  0.50568  0.49148  0.67638  1.0000
  H   H12       1.0  0.49432  0.50852  0.32362  1.0000
  H   H13       1.0  0.37663  0.51774  0.73926  1.0000
  H   H14       1.0  0.62337  0.48226  0.26074  1.0000
  H   H15       1.0  0.34088  0.59847  0.14395  1.0000
  H   H16       1.0  0.65912  0.40153  0.85605  1.0000
  H   H17       1.0  0.04235  0.25783  0.86768  1.0000
  H   H18       1.0  0.95765  0.74217  0.13232  1.0000
  H   H19       1.0  0.94362  0.22087  0.17831  1.0000
  H   H20       1.0  0.05638  0.77913  0.82169  1.0000
  H   H21       1.0  0.93767  0.00134  0.86185  1.0000
  H   H22       1.0  0.06233  0.99866  0.13815  1.0000
  H   H23       1.0  0.78558  0.05655  0.82275  1.0000
  H   H24       1.0  0.21442  0.94345  0.17725  1.0000
  H   H25       1.0  0.69351  0.78188  0.79169  1.0000
  H   H26       1.0  0.30649  0.21812  0.20830  1.0000
  H   H27       1.0  0.74078  0.80618  0.93140  1.0000
  H   H28       1.0  0.25922  0.19382  0.06860  1.0000
  H   H29       1.0  0.80723  0.74338  0.34895  1.0000
  H   H30       1.0  0.19278  0.25662  0.65105  1.0000
  H   H31       1.0  0.05459  0.19837  0.34848  1.0000
  H   H32       1.0  0.94541  0.80163  0.65152  1.0000
  H   H33       1.0  0.31479  0.96436  0.45157  1.0000
  H   H34       1.0  0.68521  0.03564  0.54843  1.0000
  H   H35       1.0  0.61309  0.76047  0.25359  1.0000
  H   H36       1.0  0.38691  0.23953  0.74641  1.0000
  H   H37       1.0  0.62246  0.86737  0.38006  1.0000
  H   H38       1.0  0.37754  0.13263  0.61994  1.0000
  H   H39       1.0  0.49396  0.88302  0.15794  1.0000
  H   H40       1.0  0.50604  0.11699  0.84206  1.0000
  H   H41       1.0  0.38618  0.83371  0.25965  1.0000
  H   H42       1.0  0.61382  0.16629  0.74034  1.0000
  C   C1        1.0  0.19701  0.46905  0.29160  1.0000
  C   C2        1.0  0.80298  0.53095  0.70840  1.0000
  C   C3        1.0  0.14755  0.41638  0.17392  1.0000
  C   C4        1.0  0.85244  0.58362  0.82608  1.0000
  C   C5        1.0  0.23797  0.49487  0.10897  1.0000
  C   C6        1.0  0.76202  0.50513  0.89103  1.0000
  C   C7        1.0  0.19615  0.43814  0.99921  1.0000
  C   C8        1.0  0.80385  0.56186  0.00079  1.0000
  C   C9        1.0  0.06795  0.30060  0.95337  1.0000
  C   C10       1.0  0.93204  0.69940  0.04663  1.0000
  C   C11       1.0  0.97777  0.22299  0.01909  1.0000
  C   C12       1.0  0.02223  0.77701  0.98092  1.0000
  C   C13       1.0  0.01536  0.28334  0.12895  1.0000
  C   C14       1.0  0.98464  0.71666  0.87105  1.0000
  C   C15       1.0  0.29075  0.52165  0.92895  1.0000
  C   C16       1.0  0.70924  0.47835  0.07105  1.0000
  C   C17       1.0  0.82643  0.00501  0.87929  1.0000
  C   C18       1.0  0.17357  0.99499  0.12071  1.0000
  C   C19       1.0  0.70271  0.85099  0.86918  1.0000
  C   C20       1.0  0.29729  0.14901  0.13082  1.0000
  C   C21       1.0  0.06471  0.71334  0.43617  1.0000
  C   C22       1.0  0.93530  0.28666  0.56384  1.0000
  C   C23       1.0  0.06135  0.84279  0.40145  1.0000
  C   C24       1.0  0.93866  0.15721  0.59855  1.0000
  C   C25       1.0  0.91614  0.84247  0.36045  1.0000
  C   C26       1.0  0.08386  0.15753  0.63955  1.0000
  C   C27       1.0  0.91543  0.96941  0.33691  1.0000
  C   C28       1.0  0.08457  0.03059  0.66309  1.0000
  C   C29       1.0  0.05767  0.09733  0.35989  1.0000
  C   C30       1.0  0.94233  0.90268  0.64011  1.0000
  C   C31       1.0  0.20164  0.09577  0.40014  1.0000
  C   C32       1.0  0.79836  0.90423  0.59986  1.0000
  C   C33       1.0  0.20428  0.96695  0.41810  1.0000
  C   C34       1.0  0.79572  0.03305  0.58190  1.0000
  C   C35       1.0  0.35246  0.23264  0.43273  1.0000
  C   C36       1.0  0.64754  0.76737  0.56727  1.0000
  C   C37       1.0  0.62971  0.86925  0.29702  1.0000
  C   C38       1.0  0.37029  0.13075  0.70298  1.0000
  C   C39       1.0  0.50154  0.90485  0.24414  1.0000
  C   C40       1.0  0.49846  0.09515  0.75587  1.0000
  O   O1        1.0  0.09573  0.41825  0.34875  1.0000
  O   O2        1.0  0.90427  0.58175  0.65125  1.0000
  O   O3        1.0  0.34049  0.56013  0.33548  1.0000
  O   O4        1.0  0.65951  0.43987  0.66452  1.0000
  O   O5        1.0  0.37789  0.66208  0.97530  1.0000
  O   O6        1.0  0.62211  0.33792  0.02470  1.0000
  O   O7        1.0  0.28523  0.46131  0.83676  1.0000
  O   O8        1.0  0.71477  0.53869  0.16325  1.0000
  O   O9        1.0  0.85448  0.08722  0.98625  1.0000
  O   O10       1.0  0.14552  0.91278  0.01375  1.0000
  O   O11       1.0  0.54994  0.84423  0.88143  1.0000
  O   O12       1.0  0.45006  0.15577  0.11857  1.0000
  O   O13       1.0  0.19979  0.71436  0.46283  1.0000
  O   O14       1.0  0.80021  0.28565  0.53717  1.0000
  O   O15       1.0  0.93281  0.61191  0.43931  1.0000
  O   O16       1.0  0.06719  0.38809  0.56069  1.0000
  O   O17       1.0  0.48440  0.22064  0.43511  1.0000
  O   O18       1.0  0.51560  0.77936  0.56489  1.0000
  O   O19       1.0  0.34901  0.35551  0.45980  1.0000
  O   O20       1.0  0.65100  0.64449  0.54020  1.0000
  O   O21       1.0  0.78168  0.98001  0.29326  1.0000
  O   O22       1.0  0.21832  0.01999  0.70674  1.0000
  O   O23       1.0  0.53391  0.05589  0.27837  1.0000
  O   O24       1.0  0.46609  0.94411  0.72163  1.0000
  O   O25       1.0  0.22277  0.67358  0.67275  1.0000
  O   O26       1.0  0.77723  0.32642  0.32725  1.0000
  O   O27       1.0  0.42394  0.52989  0.67521  1.0000
  O   O28       1.0  0.57606  0.47011  0.32479  1.0000
