data_image0
_chemical_formula_structural       Sm2H42C40O28
_chemical_formula_sum              "Sm2 H42 C40 O28"
_cell_length_a       9.3522
_cell_length_b       10.3475
_cell_length_c       13.1521
_cell_angle_alpha    100.453
_cell_angle_beta     96.9315
_cell_angle_gamma    113.216

_space_group_name_H-M_alt    "P 1"
_space_group_IT_number       1

loop_
  _space_group_symop_operation_xyz
  'x, y, z'

loop_
  _atom_site_type_symbol
  _atom_site_label
  _atom_site_symmetry_multiplicity
  _atom_site_fract_x
  _atom_site_fract_y
  _atom_site_fract_z
  _atom_site_occupancy
  Sm  Sm1       1.0  0.71057  0.95030  0.97950  1.0000
  Sm  Sm2       1.0  0.28943  0.04970  0.02050  1.0000
  H   H1        1.0  0.56185  0.78409  0.57300  1.0000
  H   H2        1.0  0.43815  0.21592  0.42701  1.0000
  H   H3        1.0  0.49255  0.62929  0.67398  1.0000
  H   H4        1.0  0.50746  0.37071  0.32602  1.0000
  H   H5        1.0  0.50046  0.41882  0.16382  1.0000
  H   H6        1.0  0.49954  0.58118  0.83618  1.0000
  H   H7        1.0  0.89344  0.85817  0.82963  1.0000
  H   H8        1.0  0.10656  0.14183  0.17037  1.0000
  H   H9        1.0  0.72517  0.71985  0.80640  1.0000
  H   H10       1.0  0.27483  0.28015  0.19360  1.0000
  H   H11       1.0  0.49032  0.00901  0.81668  1.0000
  H   H12       1.0  0.50968  0.99099  0.18332  1.0000
  H   H13       1.0  0.62367  0.98625  0.75744  1.0000
  H   H14       1.0  0.37633  0.01376  0.24256  1.0000
  H   H15       1.0  0.66502  0.90444  0.35853  1.0000
  H   H16       1.0  0.33498  0.09557  0.64147  1.0000
  H   H17       1.0  0.96398  0.24606  0.63333  1.0000
  H   H18       1.0  0.03603  0.75394  0.36667  1.0000
  H   H19       1.0  0.05971  0.27836  0.32335  1.0000
  H   H20       1.0  0.94029  0.72164  0.67665  1.0000
  H   H21       1.0  0.21824  0.45196  0.67833  1.0000
  H   H22       1.0  0.78176  0.54804  0.32167  1.0000
  H   H23       1.0  0.06353  0.50202  0.63452  1.0000
  H   H24       1.0  0.93647  0.49798  0.36548  1.0000
  H   H25       1.0  0.25541  0.69379  0.56367  1.0000
  H   H26       1.0  0.74459  0.30621  0.43633  1.0000
  H   H27       1.0  0.30649  0.72293  0.70342  1.0000
  H   H28       1.0  0.69352  0.27707  0.29658  1.0000
  H   H29       1.0  0.94041  0.30104  0.15341  1.0000
  H   H30       1.0  0.05959  0.69896  0.84659  1.0000
  H   H31       1.0  0.19318  0.75128  0.15039  1.0000
  H   H32       1.0  0.80681  0.24871  0.84961  1.0000
  H   H33       1.0  0.68585  0.53870  0.04807  1.0000
  H   H34       1.0  0.31416  0.46130  0.95192  1.0000
  H   H35       1.0  0.37871  0.63110  0.12714  1.0000
  H   H36       1.0  0.62129  0.36890  0.87286  1.0000
  H   H37       1.0  0.38031  0.73535  0.25209  1.0000
  H   H38       1.0  0.61969  0.26465  0.74791  1.0000
  H   H39       1.0  0.49651  0.61331  0.35091  1.0000
  H   H40       1.0  0.50349  0.38669  0.64909  1.0000
  H   H41       1.0  0.61087  0.66681  0.25424  1.0000
  H   H42       1.0  0.38913  0.33319  0.74576  1.0000
  C   C1        1.0  0.80510  0.03171  0.21074  1.0000
  C   C2        1.0  0.19490  0.96829  0.78926  1.0000
  C   C3        1.0  0.85722  0.08435  0.32818  1.0000
  C   C4        1.0  0.14278  0.91565  0.67182  1.0000
  C   C5        1.0  0.76794  0.00740  0.39322  1.0000
  C   C6        1.0  0.23207  0.99260  0.60678  1.0000
  C   C7        1.0  0.81013  0.06520  0.50259  1.0000
  C   C8        1.0  0.18988  0.93480  0.49740  1.0000
  C   C9        1.0  0.93808  0.20227  0.54801  1.0000
  C   C10       1.0  0.06193  0.79773  0.45199  1.0000
  C   C11       1.0  0.02731  0.27831  0.48221  1.0000
  C   C12       1.0  0.97270  0.72169  0.51778  1.0000
  C   C13       1.0  0.98907  0.21685  0.37277  1.0000
  C   C14       1.0  0.01093  0.78315  0.62723  1.0000
  C   C15       1.0  0.71498  0.98379  0.57241  1.0000
  C   C16       1.0  0.28502  0.01622  0.42761  1.0000
  C   C17       1.0  0.17590  0.49924  0.61930  1.0000
  C   C18       1.0  0.82410  0.50076  0.38071  1.0000
  C   C19       1.0  0.29668  0.65235  0.62680  1.0000
  C   C20       1.0  0.70332  0.34765  0.37320  1.0000
  C   C21       1.0  0.64242  0.27354  0.06946  1.0000
  C   C22       1.0  0.35757  0.72646  0.93053  1.0000
  C   C23       1.0  0.79621  0.40577  0.10008  1.0000
  C   C24       1.0  0.20379  0.59422  0.89991  1.0000
  C   C25       1.0  0.93888  0.40174  0.14090  1.0000
  C   C26       1.0  0.06112  0.59826  0.85910  1.0000
  C   C27       1.0  0.08204  0.52760  0.16363  1.0000
  C   C28       1.0  0.91796  0.47239  0.83636  1.0000
  C   C29       1.0  0.08351  0.65408  0.13901  1.0000
  C   C30       1.0  0.91649  0.34592  0.86099  1.0000
  C   C31       1.0  0.93954  0.65610  0.09752  1.0000
  C   C32       1.0  0.06046  0.34390  0.90248  1.0000
  C   C33       1.0  0.79572  0.53442  0.08125  1.0000
  C   C34       1.0  0.20429  0.46558  0.91874  1.0000
  C   C35       1.0  0.93814  0.78597  0.06338  1.0000
  C   C36       1.0  0.06186  0.21403  0.93661  1.0000
  C   C37       1.0  0.36724  0.62800  0.20915  1.0000
  C   C38       1.0  0.63275  0.37200  0.79085  1.0000
  C   C39       1.0  0.49416  0.59373  0.26566  1.0000
  C   C40       1.0  0.50584  0.40627  0.73434  1.0000
  O   O1        1.0  0.90339  0.08404  0.15312  1.0000
  O   O2        1.0  0.09661  0.91596  0.84688  1.0000
  O   O3        1.0  0.66174  0.93958  0.16809  1.0000
  O   O4        1.0  0.33826  0.06042  0.83191  1.0000
  O   O5        1.0  0.62679  0.84427  0.52600  1.0000
  O   O6        1.0  0.37321  0.15573  0.47400  1.0000
  O   O7        1.0  0.72076  0.04491  0.66405  1.0000
  O   O8        1.0  0.27925  0.95509  0.33594  1.0000
  O   O9        1.0  0.14994  0.41356  0.51421  1.0000
  O   O10       1.0  0.85006  0.58644  0.48580  1.0000
  O   O11       1.0  0.44950  0.66033  0.61428  1.0000
  O   O12       1.0  0.55050  0.33967  0.38572  1.0000
  O   O13       1.0  0.63639  0.14715  0.04060  1.0000
  O   O14       1.0  0.36360  0.85285  0.95940  1.0000
  O   O15       1.0  0.51430  0.29170  0.07004  1.0000
  O   O16       1.0  0.48570  0.70830  0.92996  1.0000
  O   O17       1.0  0.80413  0.78735  0.03730  1.0000
  O   O18       1.0  0.19587  0.21265  0.96270  1.0000
  O   O19       1.0  0.07081  0.88518  0.06054  1.0000
  O   O20       1.0  0.92918  0.11482  0.93946  1.0000
  O   O21       1.0  0.21473  0.51597  0.20855  1.0000
  O   O22       1.0  0.78526  0.48403  0.79145  1.0000
  O   O23       1.0  0.46565  0.44462  0.23062  1.0000
  O   O24       1.0  0.53435  0.55537  0.76938  1.0000
  O   O25       1.0  0.77736  0.82681  0.82512  1.0000
  O   O26       1.0  0.22264  0.17319  0.17488  1.0000
  O   O27       1.0  0.57160  0.97005  0.81873  1.0000
  O   O28       1.0  0.42839  0.02995  0.18127  1.0000
