data_image0
_chemical_formula_structural       CdP2H56C36N8O10
_chemical_formula_sum              "Cd1 P2 H56 C36 N8 O10"
_cell_length_a       8.60699
_cell_length_b       8.85407
_cell_length_c       14.2873
_cell_angle_alpha    91.4339
_cell_angle_beta     92.7121
_cell_angle_gamma    103.132

_space_group_name_H-M_alt    "P 1"
_space_group_IT_number       1

loop_
  _space_group_symop_operation_xyz
  'x, y, z'

loop_
  _atom_site_type_symbol
  _atom_site_label
  _atom_site_symmetry_multiplicity
  _atom_site_fract_x
  _atom_site_fract_y
  _atom_site_fract_z
  _atom_site_occupancy
  Cd  Cd1       1.0  0.00000  0.50000  0.00000  1.0000
  P   P1        1.0  0.86060  0.38100  0.20791  1.0000
  P   P2        1.0  0.13940  0.61900  0.79209  1.0000
  H   H1        1.0  0.07830  0.07114  0.23283  1.0000
  H   H2        1.0  0.92170  0.92886  0.76717  1.0000
  H   H3        1.0  0.25611  0.17254  0.29573  1.0000
  H   H4        1.0  0.74389  0.82747  0.70427  1.0000
  H   H5        1.0  0.17050  0.26435  0.20320  1.0000
  H   H6        1.0  0.82950  0.73565  0.79680  1.0000
  H   H7        1.0  0.92043  0.17791  0.45765  1.0000
  H   H8        1.0  0.07957  0.82209  0.54235  1.0000
  H   H9        1.0  0.10344  0.11727  0.44801  1.0000
  H   H10       1.0  0.89656  0.88273  0.55199  1.0000
  H   H11       1.0  0.92993  0.02254  0.37890  1.0000
  H   H12       1.0  0.07007  0.97746  0.62110  1.0000
  H   H13       1.0  0.16648  0.48843  0.31534  1.0000
  H   H14       1.0  0.83352  0.51157  0.68466  1.0000
  H   H15       1.0  0.24034  0.39826  0.41247  1.0000
  H   H16       1.0  0.75966  0.60174  0.58753  1.0000
  H   H17       1.0  0.05586  0.45685  0.41839  1.0000
  H   H18       1.0  0.94414  0.54315  0.58161  1.0000
  H   H19       1.0  0.58319  0.31975  0.33146  1.0000
  H   H20       1.0  0.41681  0.68025  0.66854  1.0000
  H   H21       1.0  0.53343  0.45544  0.41209  1.0000
  H   H22       1.0  0.46658  0.54456  0.58792  1.0000
  H   H23       1.0  0.72309  0.40656  0.42418  1.0000
  H   H24       1.0  0.27691  0.59344  0.57582  1.0000
  H   H25       1.0  0.62498  0.67535  0.18920  1.0000
  H   H26       1.0  0.37502  0.32465  0.81080  1.0000
  H   H27       1.0  0.47057  0.60603  0.26659  1.0000
  H   H28       1.0  0.52943  0.39397  0.73341  1.0000
  H   H29       1.0  0.53640  0.47287  0.19068  1.0000
  H   H30       1.0  0.46360  0.52713  0.80932  1.0000
  H   H31       1.0  0.85587  0.69957  0.41862  1.0000
  H   H32       1.0  0.14413  0.30043  0.58138  1.0000
  H   H33       1.0  0.66436  0.74412  0.40475  1.0000
  H   H34       1.0  0.33564  0.25588  0.59525  1.0000
  H   H35       1.0  0.80938  0.80485  0.32044  1.0000
  H   H36       1.0  0.19062  0.19515  0.67956  1.0000
  H   H37       1.0  0.99218  0.15737  0.88963  1.0000
  H   H38       1.0  0.00782  0.84263  0.11037  1.0000
  H   H39       1.0  0.15893  0.95552  0.88962  1.0000
  H   H40       1.0  0.84107  0.04448  0.11038  1.0000
  H   H41       1.0  0.49775  0.26139  0.08260  1.0000
  H   H42       1.0  0.50225  0.73861  0.91740  1.0000
  H   H43       1.0  0.32316  0.45354  0.06831  1.0000
  H   H44       1.0  0.67684  0.54646  0.93169  1.0000
  H   H45       1.0  0.27398  0.76039  0.08486  1.0000
  H   H46       1.0  0.72602  0.23961  0.91514  1.0000
  H   H47       1.0  0.27699  0.72173  0.97347  1.0000
  H   H48       1.0  0.72301  0.27827  0.02653  1.0000
  H   H49       1.0  0.46309  0.97082  0.82589  1.0000
  H   H50       1.0  0.53691  0.02918  0.17411  1.0000
  H   H51       1.0  0.37746  0.91794  0.65849  1.0000
  H   H52       1.0  0.62254  0.08206  0.34151  1.0000
  H   H53       1.0  0.81413  0.23713  0.59066  1.0000
  H   H54       1.0  0.18587  0.76287  0.40934  1.0000
  H   H55       1.0  0.87647  0.29095  0.76331  1.0000
  H   H56       1.0  0.12354  0.70904  0.23669  1.0000
  C   C1        1.0  0.04361  0.24913  0.33134  1.0000
  C   C2        1.0  0.95639  0.75086  0.66866  1.0000
  C   C3        1.0  0.14346  0.18567  0.26117  1.0000
  C   C4        1.0  0.85654  0.81432  0.73883  1.0000
  C   C5        1.0  0.99671  0.13510  0.40882  1.0000
  C   C6        1.0  0.00329  0.86490  0.59118  1.0000
  C   C7        1.0  0.13180  0.40834  0.37187  1.0000
  C   C8        1.0  0.86820  0.59166  0.62813  1.0000
  C   C9        1.0  0.69897  0.56000  0.31027  1.0000
  C   C10       1.0  0.30103  0.44000  0.68974  1.0000
  C   C11       1.0  0.63106  0.42706  0.37337  1.0000
  C   C12       1.0  0.36894  0.57294  0.62663  1.0000
  C   C13       1.0  0.57500  0.57957  0.23419  1.0000
  C   C14       1.0  0.42500  0.42043  0.76581  1.0000
  C   C15       1.0  0.76091  0.71129  0.36728  1.0000
  C   C16       1.0  0.23909  0.28871  0.63272  1.0000
  C   C17       1.0  0.10660  0.17680  0.92952  1.0000
  C   C18       1.0  0.89340  0.82321  0.07048  1.0000
  C   C19       1.0  0.19698  0.06477  0.93020  1.0000
  C   C20       1.0  0.80302  0.93523  0.06979  1.0000
  C   C21       1.0  0.34132  0.09587  0.98465  1.0000
  C   C22       1.0  0.65868  0.90414  0.01535  1.0000
  C   C23       1.0  0.38885  0.23605  0.03713  1.0000
  C   C24       1.0  0.61115  0.76395  0.96287  1.0000
  C   C25       1.0  0.29164  0.34108  0.03081  1.0000
  C   C26       1.0  0.70836  0.65892  0.96919  1.0000
  C   C27       1.0  0.53787  0.03139  0.77256  1.0000
  C   C28       1.0  0.46213  0.96860  0.22744  1.0000
  C   C29       1.0  0.49036  0.99871  0.67849  1.0000
  C   C30       1.0  0.50964  0.00129  0.32151  1.0000
  C   C31       1.0  0.59192  0.07254  0.61105  1.0000
  C   C32       1.0  0.40808  0.92746  0.38895  1.0000
  C   C33       1.0  0.73379  0.17775  0.64154  1.0000
  C   C34       1.0  0.26622  0.82225  0.35846  1.0000
  C   C35       1.0  0.76895  0.20596  0.73755  1.0000
  C   C36       1.0  0.23105  0.79404  0.26245  1.0000
  N   N1        1.0  0.15322  0.31260  0.97831  1.0000
  N   N2        1.0  0.84678  0.68740  0.02169  1.0000
  N   N3        1.0  0.42822  0.97800  0.98443  1.0000
  N   N4        1.0  0.57178  0.02200  0.01557  1.0000
  N   N5        1.0  0.67348  0.13369  0.80248  1.0000
  N   N6        1.0  0.32652  0.86631  0.19752  1.0000
  N   N7        1.0  0.56336  0.04968  0.51242  1.0000
  N   N8        1.0  0.43664  0.95032  0.48758  1.0000
  O   O1        1.0  0.01068  0.43828  0.15555  1.0000
  O   O2        1.0  0.98932  0.56172  0.84445  1.0000
  O   O3        1.0  0.70835  0.30208  0.15430  1.0000
  O   O4        1.0  0.29165  0.69792  0.84570  1.0000
  O   O5        1.0  0.84263  0.53390  0.26697  1.0000
  O   O6        1.0  0.15737  0.46610  0.73303  1.0000
  O   O7        1.0  0.89000  0.25725  0.28458  1.0000
  O   O8        1.0  0.11000  0.74275  0.71542  1.0000
  O   O9        1.0  0.24079  0.67850  0.03407  1.0000
  O   O10       1.0  0.75921  0.32150  0.96593  1.0000
