data_image0
_chemical_formula_structural       Cu2H14C20S4N10
_chemical_formula_sum              "Cu2 H14 C20 S4 N10"
_cell_length_a       7.75552
_cell_length_b       8.36678
_cell_length_c       10.4993
_cell_angle_alpha    87.9843
_cell_angle_beta     85.6324
_cell_angle_gamma    62.4174

_space_group_name_H-M_alt    "P 1"
_space_group_IT_number       1

loop_
  _space_group_symop_operation_xyz
  'x, y, z'

loop_
  _atom_site_type_symbol
  _atom_site_label
  _atom_site_symmetry_multiplicity
  _atom_site_fract_x
  _atom_site_fract_y
  _atom_site_fract_z
  _atom_site_occupancy
  Cu  Cu1       1.0  0.60899  0.79189  0.61487  1.0000
  Cu  Cu2       1.0  0.40102  0.20805  0.11474  1.0000
  H   H1        1.0  0.13133  0.16929  0.54907  1.0000
  H   H2        1.0  0.30106  0.83079  0.04910  1.0000
  H   H3        1.0  0.27656  0.71585  0.73049  1.0000
  H   H4        1.0  0.99272  0.28404  0.23043  1.0000
  H   H5        1.0  0.24472  0.43686  0.78915  1.0000
  H   H6        1.0  0.68217  0.56296  0.28901  1.0000
  H   H7        1.0  0.54067  0.13568  0.75650  1.0000
  H   H8        1.0  0.67698  0.86425  0.25633  1.0000
  H   H9        1.0  0.85197  0.12163  0.66590  1.0000
  H   H10       1.0  0.97434  0.87829  0.16577  1.0000
  H   H11       1.0  0.05998  0.69583  0.47212  1.0000
  H   H12       1.0  0.75603  0.30441  0.97198  1.0000
  H   H13       1.0  0.32008  0.32994  0.45408  1.0000
  H   H14       1.0  0.65025  0.67031  0.95390  1.0000
  C   C1        1.0  0.39933  0.58180  0.71651  1.0000
  C   C2        1.0  0.98159  0.41808  0.21644  1.0000
  C   C3        1.0  0.38341  0.42621  0.74912  1.0000
  C   C4        1.0  0.81015  0.57369  0.24894  1.0000
  C   C5        1.0  0.54792  0.25948  0.73197  1.0000
  C   C6        1.0  0.80801  0.74047  0.23178  1.0000
  C   C7        1.0  0.72269  0.25127  0.68071  1.0000
  C   C8        1.0  0.97460  0.74866  0.18062  1.0000
  C   C9        1.0  0.72682  0.41184  0.64666  1.0000
  C   C10       1.0  0.13921  0.58808  0.14661  1.0000
  C   C11       1.0  0.89038  0.43023  0.58632  1.0000
  C   C12       1.0  0.32106  0.56974  0.08625  1.0000
  C   C13       1.0  0.04077  0.57993  0.50351  1.0000
  C   C14       1.0  0.62099  0.42023  0.00341  1.0000
  C   C15       1.0  0.17066  0.39871  0.49409  1.0000
  C   C16       1.0  0.56965  0.60150  0.99400  1.0000
  C   C17       1.0  0.30506  0.97033  0.30830  1.0000
  C   C18       1.0  0.27574  0.02977  0.80840  1.0000
  C   C19       1.0  0.73103  0.92772  0.93493  1.0000
  C   C20       1.0  0.65895  0.07220  0.43505  1.0000
  S   S1        1.0  0.26789  0.86541  0.43073  1.0000
  S   S2        1.0  0.13368  0.13500  0.93073  1.0000
  S   S3        1.0  0.88239  0.78755  0.82874  1.0000
  S   S4        1.0  0.67025  0.21234  0.32886  1.0000
  N   N1        1.0  0.86865  0.59647  0.56046  1.0000
  N   N2        1.0  0.46549  0.40355  0.06038  1.0000
  N   N3        1.0  0.56690  0.57467  0.66675  1.0000
  N   N4        1.0  0.14202  0.42523  0.16673  1.0000
  N   N5        1.0  0.07366  0.30716  0.54645  1.0000
  N   N6        1.0  0.38119  0.69292  0.04637  1.0000
  N   N7        1.0  0.33295  0.04519  0.21686  1.0000
  N   N8        1.0  0.37834  0.95467  0.71699  1.0000
  N   N9        1.0  0.61786  0.02750  0.01334  1.0000
  N   N10       1.0  0.64544  0.97235  0.51338  1.0000
