data_image0
_chemical_formula_structural       Mg2H32C48N4O8
_chemical_formula_sum              "Mg2 H32 C48 N4 O8"
_cell_length_a       8.50954
_cell_length_b       12.2007
_cell_length_c       12.2008
_cell_angle_alpha    77.1045
_cell_angle_beta     74.5912
_cell_angle_gamma    74.5912

_space_group_name_H-M_alt    "P 1"
_space_group_IT_number       1

loop_
  _space_group_symop_operation_xyz
  'x, y, z'

loop_
  _atom_site_type_symbol
  _atom_site_label
  _atom_site_symmetry_multiplicity
  _atom_site_fract_x
  _atom_site_fract_y
  _atom_site_fract_z
  _atom_site_occupancy
  Mg  Mg1       1.0  0.75000  0.57497  0.42503  1.0000
  Mg  Mg2       1.0  0.25000  0.42503  0.57497  1.0000
  H   H1        1.0  0.17240  0.67495  0.67384  1.0000
  H   H2        1.0  0.32759  0.32616  0.32505  1.0000
  H   H3        1.0  0.82760  0.32505  0.32616  1.0000
  H   H4        1.0  0.67240  0.67385  0.67495  1.0000
  H   H5        1.0  0.16213  0.83891  0.77006  1.0000
  H   H6        1.0  0.33786  0.22994  0.16109  1.0000
  H   H7        1.0  0.83786  0.16109  0.22994  1.0000
  H   H8        1.0  0.66214  0.77006  0.83891  1.0000
  H   H9        1.0  0.93854  0.01699  0.75269  1.0000
  H   H10       1.0  0.56146  0.24731  0.98301  1.0000
  H   H11       1.0  0.06146  0.98301  0.24731  1.0000
  H   H12       1.0  0.43854  0.75269  0.01699  1.0000
  H   H13       1.0  0.73665  0.86443  0.54896  1.0000
  H   H14       1.0  0.76335  0.45104  0.13557  1.0000
  H   H15       1.0  0.26335  0.13557  0.45105  1.0000
  H   H16       1.0  0.23665  0.54896  0.86443  1.0000
  H   H17       1.0  0.61894  0.35151  0.59166  1.0000
  H   H18       1.0  0.88107  0.40834  0.64849  1.0000
  H   H19       1.0  0.38107  0.64849  0.40834  1.0000
  H   H20       1.0  0.11894  0.59166  0.35151  1.0000
  H   H21       1.0  0.84613  0.17785  0.61725  1.0000
  H   H22       1.0  0.65388  0.38275  0.82215  1.0000
  H   H23       1.0  0.15388  0.82215  0.38275  1.0000
  H   H24       1.0  0.34613  0.61725  0.17785  1.0000
  H   H25       1.0  0.48841  0.97034  0.65705  1.0000
  H   H26       1.0  0.01158  0.34295  0.02966  1.0000
  H   H27       1.0  0.51159  0.02966  0.34295  1.0000
  H   H28       1.0  0.98841  0.65705  0.97034  1.0000
  H   H29       1.0  0.27383  0.15400  0.63389  1.0000
  H   H30       1.0  0.22617  0.36611  0.84600  1.0000
  H   H31       1.0  0.72617  0.84600  0.36611  1.0000
  H   H32       1.0  0.77383  0.63389  0.15401  1.0000
  C   C1        1.0  0.96844  0.66398  0.54319  1.0000
  C   C2        1.0  0.53155  0.45681  0.33602  1.0000
  C   C3        1.0  0.03154  0.33603  0.45681  1.0000
  C   C4        1.0  0.46845  0.54319  0.66397  1.0000
  C   C5        1.0  0.95670  0.76113  0.60504  1.0000
  C   C6        1.0  0.54330  0.39496  0.23887  1.0000
  C   C7        1.0  0.04330  0.23887  0.39496  1.0000
  C   C8        1.0  0.45670  0.60504  0.76113  1.0000
  C   C9        1.0  0.07584  0.75359  0.66796  1.0000
  C   C10       1.0  0.42416  0.33204  0.24641  1.0000
  C   C11       1.0  0.92416  0.24642  0.33204  1.0000
  C   C12       1.0  0.57584  0.66796  0.75358  1.0000
  C   C13       1.0  0.06914  0.84546  0.72090  1.0000
  C   C14       1.0  0.43086  0.27910  0.15454  1.0000
  C   C15       1.0  0.93086  0.15454  0.27910  1.0000
  C   C16       1.0  0.56914  0.72090  0.84546  1.0000
  C   C17       1.0  0.94392  0.94528  0.71104  1.0000
  C   C18       1.0  0.55608  0.28896  0.05472  1.0000
  C   C19       1.0  0.05608  0.05472  0.28896  1.0000
  C   C20       1.0  0.44392  0.71104  0.94528  1.0000
  C   C21       1.0  0.82114  0.95325  0.65016  1.0000
  C   C22       1.0  0.67886  0.34984  0.04675  1.0000
  C   C23       1.0  0.17886  0.04675  0.34984  1.0000
  C   C24       1.0  0.32114  0.65016  0.95325  1.0000
  C   C25       1.0  0.82890  0.86011  0.59787  1.0000
  C   C26       1.0  0.67110  0.40213  0.13989  1.0000
  C   C27       1.0  0.17110  0.13989  0.40214  1.0000
  C   C28       1.0  0.32890  0.59786  0.86011  1.0000
  C   C29       1.0  0.59369  0.26538  0.60950  1.0000
  C   C30       1.0  0.90631  0.39050  0.73462  1.0000
  C   C31       1.0  0.40631  0.73462  0.39050  1.0000
  C   C32       1.0  0.09370  0.60950  0.26538  1.0000
  C   C33       1.0  0.72042  0.16795  0.62349  1.0000
  C   C34       1.0  0.77958  0.37651  0.83205  1.0000
  C   C35       1.0  0.27958  0.83206  0.37651  1.0000
  C   C36       1.0  0.22042  0.62349  0.16794  1.0000
  C   C37       1.0  0.68750  0.05809  0.63964  1.0000
  C   C38       1.0  0.81250  0.36035  0.94190  1.0000
  C   C39       1.0  0.31250  0.94191  0.36036  1.0000
  C   C40       1.0  0.18750  0.63964  0.05810  1.0000
  C   C41       1.0  0.52303  0.05303  0.64328  1.0000
  C   C42       1.0  0.97696  0.35672  0.94697  1.0000
  C   C43       1.0  0.47696  0.94698  0.35672  1.0000
  C   C44       1.0  0.02304  0.64328  0.05303  1.0000
  C   C45       1.0  0.40278  0.15482  0.63105  1.0000
  C   C46       1.0  0.09722  0.36895  0.84518  1.0000
  C   C47       1.0  0.59722  0.84519  0.36895  1.0000
  C   C48       1.0  0.90278  0.63105  0.15482  1.0000
  N   N1        1.0  0.43611  0.25998  0.61355  1.0000
  N   N2        1.0  0.06390  0.38645  0.74002  1.0000
  N   N3        1.0  0.56390  0.74002  0.38645  1.0000
  N   N4        1.0  0.93611  0.61355  0.25998  1.0000
  O   O1        1.0  0.09456  0.58101  0.54332  1.0000
  O   O2        1.0  0.40543  0.45668  0.41898  1.0000
  O   O3        1.0  0.90544  0.41898  0.45667  1.0000
  O   O4        1.0  0.59456  0.54333  0.58101  1.0000
  O   O5        1.0  0.85139  0.67428  0.49263  1.0000
  O   O6        1.0  0.64861  0.50737  0.32572  1.0000
  O   O7        1.0  0.14861  0.32572  0.50737  1.0000
  O   O8        1.0  0.35139  0.49263  0.67428  1.0000
