data_image0
_chemical_formula_structural       Mg2H32C48N4O8
_chemical_formula_sum              "Mg2 H32 C48 N4 O8"
_cell_length_a       7.13584
_cell_length_b       12.0931
_cell_length_c       12.1693
_cell_angle_alpha    119.803
_cell_angle_beta     91.3525
_cell_angle_gamma    89.9928

_space_group_name_H-M_alt    "P 1"
_space_group_IT_number       1

loop_
  _space_group_symop_operation_xyz
  'x, y, z'

loop_
  _atom_site_type_symbol
  _atom_site_label
  _atom_site_symmetry_multiplicity
  _atom_site_fract_x
  _atom_site_fract_y
  _atom_site_fract_z
  _atom_site_occupancy
  Mg  Mg1       1.0  0.25002  0.12630  0.99994  1.0000
  Mg  Mg2       1.0  0.74999  0.87369  0.00005  1.0000
  H   H1        1.0  0.79155  0.09181  0.31295  1.0000
  H   H2        1.0  0.70809  0.77869  0.68691  1.0000
  H   H3        1.0  0.20845  0.90819  0.68706  1.0000
  H   H4        1.0  0.29191  0.22131  0.31308  1.0000
  H   H5        1.0  0.91748  0.22450  0.53240  1.0000
  H   H6        1.0  0.58251  0.69191  0.46737  1.0000
  H   H7        1.0  0.08252  0.77551  0.46761  1.0000
  H   H8        1.0  0.41749  0.30808  0.53263  1.0000
  H   H9        1.0  0.73651  0.56084  0.52458  1.0000
  H   H10       1.0  0.76372  0.03615  0.47549  1.0000
  H   H11       1.0  0.26349  0.43916  0.47542  1.0000
  H   H12       1.0  0.23627  0.96386  0.52451  1.0000
  H   H13       1.0  0.60718  0.42474  0.30657  1.0000
  H   H14       1.0  0.89279  0.11803  0.69355  1.0000
  H   H15       1.0  0.39281  0.57525  0.69344  1.0000
  H   H16       1.0  0.10721  0.88197  0.30645  1.0000
  H   H17       1.0  0.70421  0.63684  0.72948  1.0000
  H   H18       1.0  0.79610  0.90728  0.27038  1.0000
  H   H19       1.0  0.29579  0.36317  0.27053  1.0000
  H   H20       1.0  0.20390  0.09272  0.72961  1.0000
  H   H21       1.0  0.10754  0.34863  0.67489  1.0000
  H   H22       1.0  0.39254  0.67393  0.32515  1.0000
  H   H23       1.0  0.89246  0.65137  0.32512  1.0000
  H   H24       1.0  0.60745  0.32608  0.67485  1.0000
  H   H25       1.0  0.20556  0.48448  0.90030  1.0000
  H   H26       1.0  0.29423  0.58444  0.09979  1.0000
  H   H27       1.0  0.79444  0.51552  0.09971  1.0000
  H   H28       1.0  0.70577  0.41556  0.90021  1.0000
  H   H29       1.0  0.05490  0.70065  0.02864  1.0000
  H   H30       1.0  0.44501  0.67208  0.97141  1.0000
  H   H31       1.0  0.94510  0.29935  0.97136  1.0000
  H   H32       1.0  0.55499  0.32792  0.02859  1.0000
  C   C1        1.0  0.60051  0.16041  0.16759  1.0000
  C   C2        1.0  0.89920  0.99263  0.83238  1.0000
  C   C3        1.0  0.39949  0.83959  0.83241  1.0000
  C   C4        1.0  0.10081  0.00738  0.16761  1.0000
  C   C5        1.0  0.68950  0.24862  0.29632  1.0000
  C   C6        1.0  0.81029  0.95212  0.70366  1.0000
  C   C7        1.0  0.31049  0.75138  0.70369  1.0000
  C   C8        1.0  0.18971  0.04787  0.29634  1.0000
  C   C9        1.0  0.78063  0.19489  0.36122  1.0000
  C   C10       1.0  0.71916  0.83348  0.63865  1.0000
  C   C11       1.0  0.21936  0.80511  0.63879  1.0000
  C   C12       1.0  0.28084  0.16652  0.36134  1.0000
  C   C13       1.0  0.85027  0.27004  0.48403  1.0000
  C   C14       1.0  0.64972  0.78582  0.51579  1.0000
  C   C15       1.0  0.14972  0.72996  0.51597  1.0000
  C   C16       1.0  0.35028  0.21418  0.48420  1.0000
  C   C17       1.0  0.83196  0.40328  0.54710  1.0000
  C   C18       1.0  0.66823  0.85606  0.45282  1.0000
  C   C19       1.0  0.16804  0.59672  0.45291  1.0000
  C   C20       1.0  0.33177  0.14394  0.54717  1.0000
  C   C21       1.0  0.74568  0.45764  0.48022  1.0000
  C   C22       1.0  0.75441  0.97731  0.51984  1.0000
  C   C23       1.0  0.25432  0.54235  0.51979  1.0000
  C   C24       1.0  0.24558  0.02269  0.48016  1.0000
  C   C25       1.0  0.67473  0.38145  0.35705  1.0000
  C   C26       1.0  0.82521  0.02426  0.64301  1.0000
  C   C27       1.0  0.32527  0.61855  0.64295  1.0000
  C   C28       1.0  0.17479  0.97573  0.35699  1.0000
  C   C29       1.0  0.82104  0.60060  0.76093  1.0000
  C   C30       1.0  0.67922  0.83963  0.23899  1.0000
  C   C31       1.0  0.17896  0.39940  0.23907  1.0000
  C   C32       1.0  0.32077  0.16037  0.76101  1.0000
  C   C33       1.0  0.89929  0.48155  0.67982  1.0000
  C   C34       1.0  0.60094  0.80176  0.32012  1.0000
  C   C35       1.0  0.10071  0.51845  0.32018  1.0000
  C   C36       1.0  0.39905  0.19824  0.67987  1.0000
  C   C37       1.0  0.04005  0.43970  0.73269  1.0000
  C   C38       1.0  0.46002  0.70714  0.26733  1.0000
  C   C39       1.0  0.95995  0.56030  0.26731  1.0000
  C   C40       1.0  0.53998  0.29286  0.73267  1.0000
  C   C41       1.0  0.09619  0.51634  0.85883  1.0000
  C   C42       1.0  0.40369  0.65771  0.14123  1.0000
  C   C43       1.0  0.90381  0.48366  0.14117  1.0000
  C   C44       1.0  0.59631  0.34229  0.85877  1.0000
  C   C45       1.0  0.01314  0.63474  0.93040  1.0000
  C   C46       1.0  0.48682  0.70444  0.06963  1.0000
  C   C47       1.0  0.98686  0.36526  0.06960  1.0000
  C   C48       1.0  0.51318  0.29556  0.93037  1.0000
  N   N1        1.0  0.87652  0.67607  0.88212  1.0000
  N   N2        1.0  0.62358  0.79395  0.11784  1.0000
  N   N3        1.0  0.12348  0.32393  0.11788  1.0000
  N   N4        1.0  0.37642  0.20605  0.88216  1.0000
  O   O1        1.0  0.48568  0.20927  0.12226  1.0000
  O   O2        1.0  0.01414  0.08676  0.87774  1.0000
  O   O3        1.0  0.51433  0.79072  0.87774  1.0000
  O   O4        1.0  0.98587  0.91323  0.12225  1.0000
  O   O5        1.0  0.63998  0.04407  0.11778  1.0000
  O   O6        1.0  0.85959  0.92614  0.88217  1.0000
  O   O7        1.0  0.36003  0.95593  0.88222  1.0000
  O   O8        1.0  0.14041  0.07387  0.11783  1.0000
