data_image0
_chemical_formula_structural       CuH30C22N4O8
_chemical_formula_sum              "Cu1 H30 C22 N4 O8"
_cell_length_a       6.55009
_cell_length_b       9.81794
_cell_length_c       10.2009
_cell_angle_alpha    113.974
_cell_angle_beta     99.8384
_cell_angle_gamma    98.8357

_space_group_name_H-M_alt    "P 1"
_space_group_IT_number       1

loop_
  _space_group_symop_operation_xyz
  'x, y, z'

loop_
  _atom_site_type_symbol
  _atom_site_label
  _atom_site_symmetry_multiplicity
  _atom_site_fract_x
  _atom_site_fract_y
  _atom_site_fract_z
  _atom_site_occupancy
  Cu  Cu1       1.0  0.50000  0.50000  0.50000  1.0000
  H   H1        1.0  0.85656  0.05318  0.71034  1.0000
  H   H2        1.0  0.14345  0.94682  0.28966  1.0000
  H   H3        1.0  0.67476  0.03966  0.55688  1.0000
  H   H4        1.0  0.32524  0.96035  0.44313  1.0000
  H   H5        1.0  0.84225  0.84703  0.38558  1.0000
  H   H6        1.0  0.15775  0.15297  0.61441  1.0000
  H   H7        1.0  0.03366  0.86848  0.53969  1.0000
  H   H8        1.0  0.96634  0.13152  0.46031  1.0000
  H   H9        1.0  0.04270  0.36489  0.41143  1.0000
  H   H10       1.0  0.95730  0.63511  0.58856  1.0000
  H   H11       1.0  0.75418  0.54234  0.11992  1.0000
  H   H12       1.0  0.24582  0.45766  0.88007  1.0000
  H   H13       1.0  0.12579  0.66367  0.13000  1.0000
  H   H14       1.0  0.87421  0.33633  0.87000  1.0000
  H   H15       1.0  0.43785  0.63823  0.28749  1.0000
  H   H16       1.0  0.56215  0.36177  0.71252  1.0000
  H   H17       1.0  0.65103  0.29054  0.29995  1.0000
  H   H18       1.0  0.34897  0.70946  0.70004  1.0000
  H   H19       1.0  0.54379  0.36552  0.18628  1.0000
  H   H20       1.0  0.45622  0.63448  0.81372  1.0000
  H   H21       1.0  0.32605  0.96624  0.93372  1.0000
  H   H22       1.0  0.67394  0.03377  0.06629  1.0000
  H   H23       1.0  0.13172  0.95527  0.78733  1.0000
  H   H24       1.0  0.86827  0.04472  0.21267  1.0000
  H   H25       1.0  0.16547  0.14663  0.11929  1.0000
  H   H26       1.0  0.83453  0.85337  0.88071  1.0000
  H   H27       1.0  0.97167  0.14114  0.97476  1.0000
  H   H28       1.0  0.02833  0.85886  0.02524  1.0000
  H   H29       1.0  0.47385  0.02953  0.74829  1.0000
  H   H30       1.0  0.52614  0.97046  0.25171  1.0000
  C   C1        1.0  0.62265  0.84012  0.59457  1.0000
  C   C2        1.0  0.37735  0.15988  0.40544  1.0000
  C   C3        1.0  0.77268  0.97395  0.59375  1.0000
  C   C4        1.0  0.22733  0.02605  0.40625  1.0000
  C   C5        1.0  0.93084  0.92986  0.49982  1.0000
  C   C6        1.0  0.06916  0.07014  0.50018  1.0000
  C   C7        1.0  0.05258  0.43296  0.34999  1.0000
  C   C8        1.0  0.94743  0.56704  0.65000  1.0000
  C   C9        1.0  0.86646  0.44474  0.26729  1.0000
  C   C10       1.0  0.13355  0.55526  0.73271  1.0000
  C   C11       1.0  0.89335  0.53084  0.18693  1.0000
  C   C12       1.0  0.10665  0.46916  0.81307  1.0000
  C   C13       1.0  0.09892  0.59935  0.19340  1.0000
  C   C14       1.0  0.90109  0.40065  0.80660  1.0000
  C   C15       1.0  0.27538  0.58555  0.28053  1.0000
  C   C16       1.0  0.72463  0.41446  0.71947  1.0000
  C   C17       1.0  0.36214  0.17212  0.90625  1.0000
  C   C18       1.0  0.63784  0.82786  0.09374  1.0000
  C   C19       1.0  0.22123  0.03225  0.90319  1.0000
  C   C20       1.0  0.77876  0.96775  0.09681  1.0000
  C   C21       1.0  0.07100  0.07177  0.00427  1.0000
  C   C22       1.0  0.92900  0.92823  0.99573  1.0000
  N   N1        1.0  0.25011  0.50383  0.35807  1.0000
  N   N2        1.0  0.74990  0.49617  0.64194  1.0000
  N   N3        1.0  0.66726  0.37924  0.27046  1.0000
  N   N4        1.0  0.33274  0.62076  0.72953  1.0000
  O   O1        1.0  0.66021  0.70834  0.53306  1.0000
  O   O2        1.0  0.33979  0.29166  0.46694  1.0000
  O   O3        1.0  0.46913  0.86568  0.65604  1.0000
  O   O4        1.0  0.53087  0.13432  0.34396  1.0000
  O   O5        1.0  0.48855  0.14625  0.81402  1.0000
  O   O6        1.0  0.51143  0.85374  0.18598  1.0000
  O   O7        1.0  0.36329  0.30484  0.99033  1.0000
  O   O8        1.0  0.63670  0.69517  0.00968  1.0000
