data_image0
_chemical_formula_structural       Cu2H44C36N8O16
_chemical_formula_sum              "Cu2 H44 C36 N8 O16"
_cell_length_a       7.57648
_cell_length_b       9.09322
_cell_length_c       14.4765
_cell_angle_alpha    93.1521
_cell_angle_beta     90.0002
_cell_angle_gamma    90

_space_group_name_H-M_alt    "P 1"
_space_group_IT_number       1

loop_
  _space_group_symop_operation_xyz
  'x, y, z'

loop_
  _atom_site_type_symbol
  _atom_site_label
  _atom_site_symmetry_multiplicity
  _atom_site_fract_x
  _atom_site_fract_y
  _atom_site_fract_z
  _atom_site_occupancy
  Cu  Cu1       1.0  1.00000  1.00000  0.50000  1.0000
  Cu  Cu2       1.0  0.50000  0.00000  0.00000  1.0000
  H   H1        1.0  0.05719  0.96780  0.79369  1.0000
  H   H2        1.0  0.55719  0.03221  0.70631  1.0000
  H   H3        1.0  0.94281  0.03221  0.20631  1.0000
  H   H4        1.0  0.44281  0.96779  0.29369  1.0000
  H   H5        1.0  0.88806  0.08305  0.75769  1.0000
  H   H6        1.0  0.38806  0.91695  0.74231  1.0000
  H   H7        1.0  0.11194  0.91695  0.24232  1.0000
  H   H8        1.0  0.61194  0.08305  0.25769  1.0000
  H   H9        1.0  0.98745  0.27399  0.88812  1.0000
  H   H10       1.0  0.48745  0.72601  0.61188  1.0000
  H   H11       1.0  0.01255  0.72601  0.11188  1.0000
  H   H12       1.0  0.51255  0.27399  0.38812  1.0000
  H   H13       1.0  0.88165  0.11493  0.92192  1.0000
  H   H14       1.0  0.38165  0.88507  0.57808  1.0000
  H   H15       1.0  0.11835  0.88508  0.07808  1.0000
  H   H16       1.0  0.61835  0.11493  0.42192  1.0000
  H   H17       1.0  0.97611  0.82237  0.65537  1.0000
  H   H18       1.0  0.47611  0.17762  0.84463  1.0000
  H   H19       1.0  0.02389  0.17762  0.34463  1.0000
  H   H20       1.0  0.52389  0.82238  0.15537  1.0000
  H   H21       1.0  0.26555  0.42084  0.58785  1.0000
  H   H22       1.0  0.76555  0.57916  0.91215  1.0000
  H   H23       1.0  0.73445  0.57916  0.41215  1.0000
  H   H24       1.0  0.23445  0.42084  0.08785  1.0000
  H   H25       1.0  0.30526  0.50863  0.42962  1.0000
  H   H26       1.0  0.80526  0.49137  0.07038  1.0000
  H   H27       1.0  0.69474  0.49137  0.57038  1.0000
  H   H28       1.0  0.19474  0.50863  0.92962  1.0000
  H   H29       1.0  0.18669  0.75600  0.39176  1.0000
  H   H30       1.0  0.68668  0.24400  0.10824  1.0000
  H   H31       1.0  0.81331  0.24401  0.60824  1.0000
  H   H32       1.0  0.31332  0.75600  0.89176  1.0000
  H   H33       1.0  0.12392  0.47260  0.74164  1.0000
  H   H34       1.0  0.62392  0.52740  0.75836  1.0000
  H   H35       1.0  0.87608  0.52740  0.25836  1.0000
  H   H36       1.0  0.37608  0.47260  0.24164  1.0000
  H   H37       1.0  0.98797  0.62450  0.76026  1.0000
  H   H38       1.0  0.48798  0.37550  0.73974  1.0000
  H   H39       1.0  0.01202  0.37550  0.23974  1.0000
  H   H40       1.0  0.51203  0.62450  0.26026  1.0000
  H   H41       1.0  0.25120  0.14262  0.60038  1.0000
  H   H42       1.0  0.75120  0.85738  0.89962  1.0000
  H   H43       1.0  0.74880  0.85738  0.39962  1.0000
  H   H44       1.0  0.24880  0.14261  0.10037  1.0000
  C   C1        1.0  0.14374  0.15986  0.72965  1.0000
  C   C2        1.0  0.64375  0.84012  0.77035  1.0000
  C   C3        1.0  0.85626  0.84012  0.27035  1.0000
  C   C4        1.0  0.35625  0.15985  0.22965  1.0000
  C   C5        1.0  0.01760  0.08402  0.79220  1.0000
  C   C6        1.0  0.51760  0.91599  0.70780  1.0000
  C   C7        1.0  0.98240  0.91599  0.20781  1.0000
  C   C8        1.0  0.48239  0.08401  0.29219  1.0000
  C   C9        1.0  0.00216  0.15395  0.88910  1.0000
  C   C10       1.0  0.50216  0.84606  0.61090  1.0000
  C   C11       1.0  0.99784  0.84606  0.11090  1.0000
  C   C12       1.0  0.49784  0.15394  0.38910  1.0000
  C   C13       1.0  0.15082  0.12454  0.95547  1.0000
  C   C14       1.0  0.65082  0.87546  0.54453  1.0000
  C   C15       1.0  0.84918  0.87546  0.04453  1.0000
  C   C16       1.0  0.34919  0.12454  0.45547  1.0000
  C   C17       1.0  0.05148  0.75002  0.60793  1.0000
  C   C18       1.0  0.55148  0.24998  0.89207  1.0000
  C   C19       1.0  0.94852  0.24999  0.39207  1.0000
  C   C20       1.0  0.44852  0.75002  0.10793  1.0000
  C   C21       1.0  0.11744  0.61514  0.63668  1.0000
  C   C22       1.0  0.61744  0.38485  0.86331  1.0000
  C   C23       1.0  0.88256  0.38486  0.36332  1.0000
  C   C24       1.0  0.38256  0.61515  0.13669  1.0000
  C   C25       1.0  0.21213  0.52709  0.57044  1.0000
  C   C26       1.0  0.71213  0.47291  0.92956  1.0000
  C   C27       1.0  0.78787  0.47291  0.42956  1.0000
  C   C28       1.0  0.28787  0.52709  0.07044  1.0000
  C   C29       1.0  0.23453  0.57602  0.48195  1.0000
  C   C30       1.0  0.73453  0.42398  0.01805  1.0000
  C   C31       1.0  0.76547  0.42398  0.51805  1.0000
  C   C32       1.0  0.26547  0.57602  0.98195  1.0000
  C   C33       1.0  0.16683  0.71183  0.45925  1.0000
  C   C34       1.0  0.66683  0.28817  0.04075  1.0000
  C   C35       1.0  0.83317  0.28817  0.54075  1.0000
  C   C36       1.0  0.33317  0.71183  0.95925  1.0000
  N   N1        1.0  0.07721  0.79632  0.52264  1.0000
  N   N2        1.0  0.57721  0.20368  0.97736  1.0000
  N   N3        1.0  0.92279  0.20368  0.47736  1.0000
  N   N4        1.0  0.42279  0.79632  0.02264  1.0000
  N   N5        1.0  0.09359  0.57794  0.72640  1.0000
  N   N6        1.0  0.59359  0.42205  0.77360  1.0000
  N   N7        1.0  0.90642  0.42206  0.27360  1.0000
  N   N8        1.0  0.40641  0.57794  0.22640  1.0000
  O   O1        1.0  0.16204  0.08886  0.64844  1.0000
  O   O2        1.0  0.66204  0.91115  0.85156  1.0000
  O   O3        1.0  0.83796  0.91114  0.35157  1.0000
  O   O4        1.0  0.33797  0.08885  0.14843  1.0000
  O   O5        1.0  0.22087  0.27716  0.75198  1.0000
  O   O6        1.0  0.72086  0.72286  0.74802  1.0000
  O   O7        1.0  0.77914  0.72286  0.24802  1.0000
  O   O8        1.0  0.27912  0.27714  0.25198  1.0000
  O   O9        1.0  0.27318  0.03458  0.92937  1.0000
  O   O10       1.0  0.77318  0.96542  0.57063  1.0000
  O   O11       1.0  0.72682  0.96543  0.07063  1.0000
  O   O12       1.0  0.22682  0.03457  0.42937  1.0000
  O   O13       1.0  0.13921  0.19077  0.03516  1.0000
  O   O14       1.0  0.63920  0.80923  0.46484  1.0000
  O   O15       1.0  0.86079  0.80923  0.96485  1.0000
  O   O16       1.0  0.36080  0.19077  0.53515  1.0000
