data_image0
_chemical_formula_structural       Ni4H44C48N12O20
_chemical_formula_sum              "Ni4 H44 C48 N12 O20"
_cell_length_a       8.69156
_cell_length_b       11.6083
_cell_length_c       13.8514
_cell_angle_alpha    104.419
_cell_angle_beta     90.0002
_cell_angle_gamma    90

_space_group_name_H-M_alt    "P 1"
_space_group_IT_number       1

loop_
  _space_group_symop_operation_xyz
  'x, y, z'

loop_
  _atom_site_type_symbol
  _atom_site_label
  _atom_site_symmetry_multiplicity
  _atom_site_fract_x
  _atom_site_fract_y
  _atom_site_fract_z
  _atom_site_occupancy
  Ni  Ni1       1.0  0.63131  0.18583  0.96922  1.0000
  Ni  Ni2       1.0  0.13131  0.31417  0.53078  1.0000
  Ni  Ni3       1.0  0.36868  0.81418  0.03078  1.0000
  Ni  Ni4       1.0  0.86868  0.68582  0.46922  1.0000
  H   H1        1.0  0.60656  0.06588  0.10520  1.0000
  H   H2        1.0  0.10656  0.43412  0.39480  1.0000
  H   H3        1.0  0.39344  0.93412  0.89480  1.0000
  H   H4        1.0  0.89344  0.56588  0.60520  1.0000
  H   H5        1.0  0.55224  0.20079  0.14181  1.0000
  H   H6        1.0  0.05224  0.29921  0.35819  1.0000
  H   H7        1.0  0.44776  0.79921  0.85819  1.0000
  H   H8        1.0  0.94777  0.70079  0.64181  1.0000
  H   H9        1.0  0.27750  0.12983  0.42038  1.0000
  H   H10       1.0  0.77750  0.37017  0.07962  1.0000
  H   H11       1.0  0.72250  0.87017  0.57962  1.0000
  H   H12       1.0  0.22250  0.62983  0.92038  1.0000
  H   H13       1.0  0.54478  0.60416  0.71190  1.0000
  H   H14       1.0  0.04478  0.89584  0.78810  1.0000
  H   H15       1.0  0.45522  0.39584  0.28810  1.0000
  H   H16       1.0  0.95522  0.10416  0.21190  1.0000
  H   H17       1.0  0.47817  0.22116  0.66084  1.0000
  H   H18       1.0  0.97817  0.27884  0.83915  1.0000
  H   H19       1.0  0.52183  0.77884  0.33915  1.0000
  H   H20       1.0  0.02183  0.72116  0.16085  1.0000
  H   H21       1.0  0.29744  0.92190  0.75491  1.0000
  H   H22       1.0  0.79744  0.57810  0.74509  1.0000
  H   H23       1.0  0.70255  0.07811  0.24509  1.0000
  H   H24       1.0  0.20256  0.42190  0.25491  1.0000
  H   H25       1.0  0.14773  0.98438  0.47727  1.0000
  H   H26       1.0  0.64773  0.51562  0.02273  1.0000
  H   H27       1.0  0.85227  0.01562  0.52273  1.0000
  H   H28       1.0  0.35227  0.48438  0.97727  1.0000
  H   H29       1.0  0.45353  0.25771  0.40010  1.0000
  H   H30       1.0  0.95353  0.24229  0.09990  1.0000
  H   H31       1.0  0.54647  0.74229  0.59990  1.0000
  H   H32       1.0  0.04647  0.75771  0.90010  1.0000
  H   H33       1.0  0.55849  0.19628  0.48551  1.0000
  H   H34       1.0  0.05849  0.30372  0.01448  1.0000
  H   H35       1.0  0.44151  0.80372  0.51448  1.0000
  H   H36       1.0  0.94151  0.69628  0.98551  1.0000
  H   H37       1.0  0.69163  0.42804  0.59834  1.0000
  H   H38       1.0  0.19163  0.07196  0.90166  1.0000
  H   H39       1.0  0.30837  0.57196  0.40165  1.0000
  H   H40       1.0  0.80837  0.92804  0.09834  1.0000
  H   H41       1.0  0.25491  0.58640  0.67987  1.0000
  H   H42       1.0  0.75491  0.91360  0.82013  1.0000
  H   H43       1.0  0.74509  0.41360  0.32013  1.0000
  H   H44       1.0  0.24509  0.08640  0.17987  1.0000
  C   C1        1.0  0.31580  0.10993  0.55886  1.0000
  C   C2        1.0  0.81580  0.39007  0.94114  1.0000
  C   C3        1.0  0.68420  0.89006  0.44114  1.0000
  C   C4        1.0  0.18420  0.60994  0.05886  1.0000
  C   C5        1.0  0.40511  0.14252  0.64544  1.0000
  C   C6        1.0  0.90510  0.35747  0.85456  1.0000
  C   C7        1.0  0.59489  0.85747  0.35456  1.0000
  C   C8        1.0  0.09489  0.64253  0.14544  1.0000
  C   C9        1.0  0.39736  0.07560  0.71663  1.0000
  C   C10       1.0  0.89736  0.42441  0.78337  1.0000
  C   C11       1.0  0.60264  0.92441  0.28337  1.0000
  C   C12       1.0  0.10264  0.57560  0.21663  1.0000
  C   C13       1.0  0.30222  0.97569  0.70093  1.0000
  C   C14       1.0  0.80222  0.52432  0.79907  1.0000
  C   C15       1.0  0.69778  0.02432  0.29907  1.0000
  C   C16       1.0  0.19778  0.47569  0.20093  1.0000
  C   C17       1.0  0.21244  0.94372  0.61466  1.0000
  C   C18       1.0  0.71244  0.55628  0.88534  1.0000
  C   C19       1.0  0.78756  0.05628  0.38534  1.0000
  C   C20       1.0  0.28756  0.44372  0.11466  1.0000
  C   C21       1.0  0.21979  0.01027  0.54355  1.0000
  C   C22       1.0  0.71979  0.48973  0.95645  1.0000
  C   C23       1.0  0.78021  0.98973  0.45645  1.0000
  C   C24       1.0  0.28021  0.51027  0.04355  1.0000
  C   C25       1.0  0.45474  0.24701  0.47671  1.0000
  C   C26       1.0  0.95474  0.25298  0.02328  1.0000
  C   C27       1.0  0.54526  0.75299  0.52329  1.0000
  C   C28       1.0  0.04526  0.74701  0.97671  1.0000
  C   C29       1.0  0.45265  0.36545  0.55002  1.0000
  C   C30       1.0  0.95265  0.13455  0.94997  1.0000
  C   C31       1.0  0.54735  0.63455  0.44998  1.0000
  C   C32       1.0  0.04735  0.86545  0.05002  1.0000
  C   C33       1.0  0.56758  0.43796  0.59965  1.0000
  C   C34       1.0  0.06758  0.06204  0.90035  1.0000
  C   C35       1.0  0.43242  0.56204  0.40035  1.0000
  C   C36       1.0  0.93242  0.93796  0.09965  1.0000
  C   C37       1.0  0.34033  0.52154  0.64404  1.0000
  C   C38       1.0  0.84033  0.97845  0.85596  1.0000
  C   C39       1.0  0.65967  0.47846  0.35596  1.0000
  C   C40       1.0  0.15967  0.02154  0.14404  1.0000
  C   C41       1.0  0.48607  0.11592  0.81112  1.0000
  C   C42       1.0  0.98606  0.38408  0.68888  1.0000
  C   C43       1.0  0.51394  0.88409  0.18888  1.0000
  C   C44       1.0  0.01393  0.61592  0.31112  1.0000
  C   C45       1.0  0.10334  0.84089  0.60044  1.0000
  C   C46       1.0  0.60334  0.65911  0.89956  1.0000
  C   C47       1.0  0.89666  0.15911  0.39956  1.0000
  C   C48       1.0  0.39666  0.34089  0.10044  1.0000
  N   N1        1.0  0.31311  0.18019  0.48790  1.0000
  N   N2        1.0  0.81311  0.31980  0.01210  1.0000
  N   N3        1.0  0.68689  0.81981  0.51210  1.0000
  N   N4        1.0  0.18689  0.68019  0.98790  1.0000
  N   N5        1.0  0.31202  0.41856  0.57861  1.0000
  N   N6        1.0  0.81203  0.08144  0.92139  1.0000
  N   N7        1.0  0.68797  0.58144  0.42139  1.0000
  N   N8        1.0  0.18798  0.91856  0.07861  1.0000
  N   N9        1.0  0.49421  0.53615  0.65798  1.0000
  N   N10       1.0  0.99421  0.96384  0.84202  1.0000
  N   N11       1.0  0.50579  0.46385  0.34202  1.0000
  N   N12       1.0  0.00579  0.03615  0.15798  1.0000
  O   O1        1.0  0.58250  0.20007  0.82168  1.0000
  O   O2        1.0  0.08250  0.29993  0.67832  1.0000
  O   O3        1.0  0.41749  0.79993  0.17832  1.0000
  O   O4        1.0  0.91750  0.70007  0.32168  1.0000
  O   O5        1.0  0.46335  0.06647  0.88407  1.0000
  O   O6        1.0  0.96335  0.43353  0.61593  1.0000
  O   O7        1.0  0.53665  0.93353  0.11593  1.0000
  O   O8        1.0  0.03664  0.56647  0.38406  1.0000
  O   O9        1.0  0.03507  0.80988  0.51681  1.0000
  O   O10       1.0  0.53507  0.69012  0.98319  1.0000
  O   O11       1.0  0.96493  0.19012  0.48319  1.0000
  O   O12       1.0  0.46493  0.30988  0.01681  1.0000
  O   O13       1.0  0.08334  0.79323  0.67385  1.0000
  O   O14       1.0  0.58333  0.70677  0.82615  1.0000
  O   O15       1.0  0.91666  0.20677  0.32615  1.0000
  O   O16       1.0  0.41667  0.29323  0.17385  1.0000
  O   O17       1.0  0.64067  0.14880  0.10814  1.0000
  O   O18       1.0  0.14067  0.35120  0.39186  1.0000
  O   O19       1.0  0.35933  0.85120  0.89186  1.0000
  O   O20       1.0  0.85933  0.64879  0.60814  1.0000
