data_image0
_chemical_formula_structural       Co2H18C24N6O8
_chemical_formula_sum              "Co2 H18 C24 N6 O8"
_cell_length_a       9.39621
_cell_length_b       8.67705
_cell_length_c       10.0271
_cell_angle_alpha    63.0872
_cell_angle_beta     73.8592
_cell_angle_gamma    82.5322

_space_group_name_H-M_alt    "P 1"
_space_group_IT_number       1

loop_
  _space_group_symop_operation_xyz
  'x, y, z'

loop_
  _atom_site_type_symbol
  _atom_site_label
  _atom_site_symmetry_multiplicity
  _atom_site_fract_x
  _atom_site_fract_y
  _atom_site_fract_z
  _atom_site_occupancy
  Co  Co1       1.0  0.35185  0.08178  0.13199  1.0000
  Co  Co2       1.0  0.64815  0.91822  0.86801  1.0000
  H   H1        1.0  0.15163  0.32533  0.15084  1.0000
  H   H2        1.0  0.84837  0.67467  0.84916  1.0000
  H   H3        1.0  0.60836  0.65762  0.71646  1.0000
  H   H4        1.0  0.39164  0.34238  0.28354  1.0000
  H   H5        1.0  0.94041  0.16561  0.97706  1.0000
  H   H6        1.0  0.05960  0.83439  0.02294  1.0000
  H   H7        1.0  0.62089  0.91643  0.40855  1.0000
  H   H8        1.0  0.37912  0.08358  0.59144  1.0000
  H   H9        1.0  0.98827  0.18365  0.38738  1.0000
  H   H10       1.0  0.01173  0.81636  0.61262  1.0000
  H   H11       1.0  0.08957  0.47741  0.88475  1.0000
  H   H12       1.0  0.91043  0.52259  0.11525  1.0000
  H   H13       1.0  0.15218  0.27933  0.87606  1.0000
  H   H14       1.0  0.84782  0.72067  0.12393  1.0000
  H   H15       1.0  0.34403  0.69285  0.68833  1.0000
  H   H16       1.0  0.65596  0.30715  0.31168  1.0000
  H   H17       1.0  0.65539  0.35018  0.91630  1.0000
  H   H18       1.0  0.34460  0.64982  0.08370  1.0000
  C   C1        1.0  0.98651  0.18097  0.17232  1.0000
  C   C2        1.0  0.01349  0.81903  0.82768  1.0000
  C   C3        1.0  0.90449  0.13284  0.09969  1.0000
  C   C4        1.0  0.09551  0.86716  0.90031  1.0000
  C   C5        1.0  0.77179  0.04147  0.18502  1.0000
  C   C6        1.0  0.22821  0.95853  0.81498  1.0000
  C   C7        1.0  0.72343  0.98904  0.34437  1.0000
  C   C8        1.0  0.27657  0.01097  0.65562  1.0000
  C   C9        1.0  0.80387  0.03972  0.41614  1.0000
  C   C10       1.0  0.19613  0.96029  0.58386  1.0000
  C   C11       1.0  0.93132  0.13963  0.32987  1.0000
  C   C12       1.0  0.06868  0.86037  0.67013  1.0000
  C   C13       1.0  0.16290  0.36503  0.92656  1.0000
  C   C14       1.0  0.83710  0.63497  0.07344  1.0000
  C   C15       1.0  0.31911  0.42301  0.87863  1.0000
  C   C16       1.0  0.68089  0.57699  0.12137  1.0000
  C   C17       1.0  0.38672  0.57579  0.76818  1.0000
  C   C18       1.0  0.61327  0.42421  0.23182  1.0000
  C   C19       1.0  0.55098  0.39880  0.88609  1.0000
  C   C20       1.0  0.44901  0.60120  0.11391  1.0000
  C   C21       1.0  0.67645  0.00727  0.10410  1.0000
  C   C22       1.0  0.32355  0.99273  0.89590  1.0000
  C   C23       1.0  0.75188  0.99710  0.58345  1.0000
  C   C24       1.0  0.24812  0.00291  0.41655  1.0000
  N   N1        1.0  0.12278  0.26596  0.09471  1.0000
  N   N2        1.0  0.87722  0.73404  0.90529  1.0000
  N   N3        1.0  0.42302  0.31318  0.95200  1.0000
  N   N4        1.0  0.57698  0.68682  0.04800  1.0000
  N   N5        1.0  0.53286  0.55737  0.77393  1.0000
  N   N6        1.0  0.46714  0.44263  0.22607  1.0000
  O   O1        1.0  0.54186  0.96641  0.17657  1.0000
  O   O2        1.0  0.45815  0.03359  0.82344  1.0000
  O   O3        1.0  0.73571  0.02314  0.96735  1.0000
  O   O4        1.0  0.26429  0.97686  0.03265  1.0000
  O   O5        1.0  0.69590  0.84598  0.68073  1.0000
  O   O6        1.0  0.30409  0.15403  0.31927  1.0000
  O   O7        1.0  0.76340  0.10566  0.63097  1.0000
  O   O8        1.0  0.23660  0.89434  0.36903  1.0000
