data_image0
_chemical_formula_structural       Na4H36C40O24
_chemical_formula_sum              "Na4 H36 C40 O24"
_cell_length_a       7.27972
_cell_length_b       9.87417
_cell_length_c       15.8516
_cell_angle_alpha    74.7696
_cell_angle_beta     76.7082
_cell_angle_gamma    68.3701

_space_group_name_H-M_alt    "P 1"
_space_group_IT_number       1

loop_
  _space_group_symop_operation_xyz
  'x, y, z'

loop_
  _atom_site_type_symbol
  _atom_site_label
  _atom_site_symmetry_multiplicity
  _atom_site_fract_x
  _atom_site_fract_y
  _atom_site_fract_z
  _atom_site_occupancy
  Na  Na1       1.0  0.45449  0.67892  0.92451  1.0000
  Na  Na2       1.0  0.05799  0.82101  0.57579  1.0000
  Na  Na3       1.0  0.54551  0.32108  0.07548  1.0000
  Na  Na4       1.0  0.94201  0.17899  0.42420  1.0000
  H   H1        1.0  0.03458  0.22016  0.82383  1.0000
  H   H2        1.0  0.07800  0.27961  0.67633  1.0000
  H   H3        1.0  0.96541  0.77985  0.17618  1.0000
  H   H4        1.0  0.92200  0.72039  0.32367  1.0000
  H   H5        1.0  0.93912  0.40841  0.91721  1.0000
  H   H6        1.0  0.26432  0.09146  0.58290  1.0000
  H   H7        1.0  0.06088  0.59159  0.08279  1.0000
  H   H8        1.0  0.73568  0.90854  0.41710  1.0000
  H   H9        1.0  0.05662  0.33452  0.06487  1.0000
  H   H10       1.0  0.45556  0.16547  0.43521  1.0000
  H   H11       1.0  0.94337  0.66547  0.93514  1.0000
  H   H12       1.0  0.54444  0.83453  0.56479  1.0000
  H   H13       1.0  0.25793  0.07673  0.11800  1.0000
  H   H14       1.0  0.45232  0.42331  0.38218  1.0000
  H   H15       1.0  0.74207  0.92327  0.88200  1.0000
  H   H16       1.0  0.54768  0.57669  0.61782  1.0000
  H   H17       1.0  0.70713  0.16979  0.83576  1.0000
  H   H18       1.0  0.71266  0.33021  0.66388  1.0000
  H   H19       1.0  0.29287  0.83021  0.16424  1.0000
  H   H20       1.0  0.28734  0.66979  0.33612  1.0000
  H   H21       1.0  0.46750  0.15377  0.88109  1.0000
  H   H22       1.0  0.50226  0.34659  0.61853  1.0000
  H   H23       1.0  0.53250  0.84623  0.11891  1.0000
  H   H24       1.0  0.49774  0.65341  0.38147  1.0000
  H   H25       1.0  0.04102  0.02139  0.78598  1.0000
  H   H26       1.0  0.84760  0.47862  0.71433  1.0000
  H   H27       1.0  0.95897  0.97861  0.21403  1.0000
  H   H28       1.0  0.15240  0.52138  0.28567  1.0000
  H   H29       1.0  0.28276  0.03884  0.74052  1.0000
  H   H30       1.0  0.06142  0.46112  0.75970  1.0000
  H   H31       1.0  0.71724  0.96117  0.25948  1.0000
  H   H32       1.0  0.93859  0.53888  0.24030  1.0000
  H   H33       1.0  0.38004  0.55251  0.78983  1.0000
  H   H34       1.0  0.72190  0.94785  0.71005  1.0000
  H   H35       1.0  0.61996  0.44749  0.21017  1.0000
  H   H36       1.0  0.27810  0.05215  0.28995  1.0000
  C   C1        1.0  0.25595  0.99933  0.00286  1.0000
  C   C2        1.0  0.25779  0.50055  0.49737  1.0000
  C   C3        1.0  0.74405  0.00067  0.99714  1.0000
  C   C4        1.0  0.74221  0.49945  0.50262  1.0000
  C   C5        1.0  0.19468  0.04085  0.91833  1.0000
  C   C6        1.0  0.15330  0.45898  0.58189  1.0000
  C   C7        1.0  0.80532  0.95915  0.08167  1.0000
  C   C8        1.0  0.84670  0.54102  0.41811  1.0000
  C   C9        1.0  0.08163  0.18771  0.88864  1.0000
  C   C10       1.0  0.15743  0.31212  0.61152  1.0000
  C   C11       1.0  0.91836  0.81229  0.11136  1.0000
  C   C12       1.0  0.84257  0.68788  0.38848  1.0000
  C   C13       1.0  0.02902  0.29413  0.94142  1.0000
  C   C14       1.0  0.26411  0.20575  0.55870  1.0000
  C   C15       1.0  0.97097  0.70587  0.05858  1.0000
  C   C16       1.0  0.73589  0.79425  0.44130  1.0000
  C   C17       1.0  0.09246  0.25340  0.02349  1.0000
  C   C18       1.0  0.36891  0.24654  0.47663  1.0000
  C   C19       1.0  0.90753  0.74660  0.97651  1.0000
  C   C20       1.0  0.63109  0.75346  0.52337  1.0000
  C   C21       1.0  0.20655  0.10601  0.05422  1.0000
  C   C22       1.0  0.36641  0.39394  0.44595  1.0000
  C   C23       1.0  0.79345  0.89399  0.94578  1.0000
  C   C24       1.0  0.63359  0.60606  0.55405  1.0000
  C   C25       1.0  0.57848  0.20054  0.88759  1.0000
  C   C26       1.0  0.66650  0.29960  0.61204  1.0000
  C   C27       1.0  0.42152  0.79945  0.11241  1.0000
  C   C28       1.0  0.33351  0.70041  0.38796  1.0000
  C   C29       1.0  0.48678  0.36836  0.87427  1.0000
  C   C30       1.0  0.72900  0.13183  0.62536  1.0000
  C   C31       1.0  0.51322  0.63164  0.12573  1.0000
  C   C32       1.0  0.27101  0.86817  0.37464  1.0000
  C   C33       1.0  0.20341  0.96503  0.78476  1.0000
  C   C34       1.0  0.95255  0.53494  0.71545  1.0000
  C   C35       1.0  0.79659  0.03497  0.21524  1.0000
  C   C36       1.0  0.04745  0.46506  0.28455  1.0000
  C   C37       1.0  0.25697  0.82508  0.74698  1.0000
  C   C38       1.0  0.82856  0.67497  0.75320  1.0000
  C   C39       1.0  0.74303  0.17492  0.25302  1.0000
  C   C40       1.0  0.17143  0.32503  0.24680  1.0000
  O   O1        1.0  0.36339  0.85176  0.02665  1.0000
  O   O2        1.0  0.24173  0.64810  0.47369  1.0000
  O   O3        1.0  0.63661  0.14824  0.97335  1.0000
  O   O4        1.0  0.75827  0.35189  0.52631  1.0000
  O   O5        1.0  0.53928  0.56528  0.06557  1.0000
  O   O6        1.0  0.17071  0.93468  0.43476  1.0000
  O   O7        1.0  0.46073  0.43472  0.93443  1.0000
  O   O8        1.0  0.82929  0.06532  0.56524  1.0000
  O   O9        1.0  0.44160  0.43274  0.79430  1.0000
  O   O10       1.0  0.66820  0.06759  0.70540  1.0000
  O   O11       1.0  0.55840  0.56726  0.20570  1.0000
  O   O12       1.0  0.33180  0.93241  0.29460  1.0000
  O   O13       1.0  0.25414  0.92875  0.87189  1.0000
  O   O14       1.0  0.05418  0.57110  0.62832  1.0000
  O   O15       1.0  0.74586  0.07125  0.12811  1.0000
  O   O16       1.0  0.94582  0.42891  0.37168  1.0000
  O   O17       1.0  0.31257  0.70045  0.80025  1.0000
  O   O18       1.0  0.81306  0.79956  0.69993  1.0000
  O   O19       1.0  0.68743  0.29955  0.19975  1.0000
  O   O20       1.0  0.18694  0.20043  0.30007  1.0000
  O   O21       1.0  0.23739  0.84705  0.66771  1.0000
  O   O22       1.0  0.75171  0.65304  0.83250  1.0000
  O   O23       1.0  0.76261  0.15295  0.33229  1.0000
  O   O24       1.0  0.24829  0.34696  0.16750  1.0000
