data_image0
_chemical_formula_structural       Mg5H38C52N4O18
_chemical_formula_sum              "Mg5 H38 C52 N4 O18"
_cell_length_a       9.79605
_cell_length_b       10.1027
_cell_length_c       14.1685
_cell_angle_alpha    73.8995
_cell_angle_beta     73.4118
_cell_angle_gamma    70.0274

_space_group_name_H-M_alt    "P 1"
_space_group_IT_number       1

loop_
  _space_group_symop_operation_xyz
  'x, y, z'

loop_
  _atom_site_type_symbol
  _atom_site_label
  _atom_site_symmetry_multiplicity
  _atom_site_fract_x
  _atom_site_fract_y
  _atom_site_fract_z
  _atom_site_occupancy
  Mg  Mg1       1.0  0.20516  0.43426  0.00782  1.0000
  Mg  Mg2       1.0  0.79484  0.56574  0.99218  1.0000
  Mg  Mg3       1.0  0.50000  0.50000  0.00000  1.0000
  Mg  Mg4       1.0  0.53615  0.15366  0.98630  1.0000
  Mg  Mg5       1.0  0.46385  0.84634  0.01370  1.0000
  H   H1        1.0  0.55760  0.59365  0.12022  1.0000
  H   H2        1.0  0.44240  0.40635  0.87978  1.0000
  H   H3        1.0  0.59133  0.98549  0.69315  1.0000
  H   H4        1.0  0.40867  0.01451  0.30685  1.0000
  H   H5        1.0  0.69009  0.02702  0.50868  1.0000
  H   H6        1.0  0.30991  0.97298  0.49132  1.0000
  H   H7        1.0  0.73288  0.58585  0.51233  1.0000
  H   H8        1.0  0.26712  0.41415  0.48767  1.0000
  H   H9        1.0  0.63424  0.54815  0.69663  1.0000
  H   H10       1.0  0.36576  0.45185  0.30336  1.0000
  H   H11       1.0  0.68979  0.06718  0.35771  1.0000
  H   H12       1.0  0.31021  0.93282  0.64229  1.0000
  H   H13       1.0  0.80829  0.09759  0.17707  1.0000
  H   H14       1.0  0.19171  0.90241  0.82293  1.0000
  H   H15       1.0  0.89223  0.60847  0.37972  1.0000
  H   H16       1.0  0.10777  0.39153  0.62028  1.0000
  H   H17       1.0  0.99810  0.65889  0.19805  1.0000
  H   H18       1.0  0.00190  0.34112  0.80195  1.0000
  H   H19       1.0  0.66473  0.38829  0.26811  1.0000
  H   H20       1.0  0.33527  0.61171  0.73189  1.0000
  H   H21       1.0  0.56428  0.31940  0.44990  1.0000
  H   H22       1.0  0.43572  0.68060  0.55010  1.0000
  H   H23       1.0  0.99287  0.25581  0.50972  1.0000
  H   H24       1.0  0.00713  0.74419  0.49028  1.0000
  H   H25       1.0  0.09139  0.32326  0.32728  1.0000
  H   H26       1.0  0.90862  0.67674  0.67272  1.0000
  H   H27       1.0  0.82758  0.06422  0.82307  1.0000
  H   H28       1.0  0.17242  0.93578  0.17693  1.0000
  H   H29       1.0  0.92798  0.11358  0.64063  1.0000
  H   H30       1.0  0.07202  0.88642  0.35937  1.0000
  H   H31       1.0  0.47879  0.34831  0.60332  1.0000
  H   H32       1.0  0.52121  0.65169  0.39668  1.0000
  H   H33       1.0  0.39614  0.27621  0.78684  1.0000
  H   H34       1.0  0.60386  0.72379  0.21316  1.0000
  H   H35       1.0  0.91740  0.23648  0.97971  1.0000
  H   H36       1.0  0.08260  0.76352  0.02029  1.0000
  H   H37       1.0  0.15868  0.06097  0.99324  1.0000
  H   H38       1.0  0.84132  0.93903  0.00677  1.0000
  C   C1        1.0  0.54774  0.74002  0.81754  1.0000
  C   C2        1.0  0.45226  0.25998  0.18246  1.0000
  C   C3        1.0  0.60499  0.76518  0.70577  1.0000
  C   C4        1.0  0.39501  0.23482  0.29423  1.0000
  C   C5        1.0  0.62134  0.89969  0.65209  1.0000
  C   C6        1.0  0.37865  0.10031  0.34791  1.0000
  C   C7        1.0  0.67576  0.92220  0.54878  1.0000
  C   C8        1.0  0.32425  0.07780  0.45122  1.0000
  C   C9        1.0  0.71702  0.81048  0.49596  1.0000
  C   C10       1.0  0.28298  0.18952  0.50404  1.0000
  C   C11       1.0  0.70152  0.67503  0.55080  1.0000
  C   C12       1.0  0.29848  0.32497  0.44920  1.0000
  C   C13       1.0  0.64584  0.65300  0.65413  1.0000
  C   C14       1.0  0.35416  0.34700  0.34587  1.0000
  C   C15       1.0  0.78006  0.83407  0.38682  1.0000
  C   C16       1.0  0.21994  0.16593  0.61318  1.0000
  C   C17       1.0  0.75867  0.97279  0.32657  1.0000
  C   C18       1.0  0.24133  0.02721  0.67343  1.0000
  C   C19       1.0  0.82487  0.99017  0.22464  1.0000
  C   C20       1.0  0.17513  0.00983  0.77536  1.0000
  C   C21       1.0  0.86801  0.71935  0.33845  1.0000
  C   C22       1.0  0.13199  0.28065  0.66155  1.0000
  C   C23       1.0  0.92917  0.74765  0.23595  1.0000
  C   C24       1.0  0.07083  0.25235  0.76405  1.0000
  C   C25       1.0  0.94363  0.40781  0.17585  1.0000
  C   C26       1.0  0.05637  0.59219  0.82415  1.0000
  C   C27       1.0  0.88427  0.36153  0.28618  1.0000
  C   C28       1.0  0.11573  0.63847  0.71382  1.0000
  C   C29       1.0  0.73555  0.36022  0.32190  1.0000
  C   C30       1.0  0.26445  0.63978  0.67810  1.0000
  C   C31       1.0  0.67969  0.32157  0.42445  1.0000
  C   C32       1.0  0.32031  0.67843  0.57555  1.0000
  C   C33       1.0  0.77085  0.28218  0.49447  1.0000
  C   C34       1.0  0.22915  0.71782  0.50553  1.0000
  C   C35       1.0  0.92006  0.28331  0.45753  1.0000
  C   C36       1.0  0.07994  0.71669  0.54247  1.0000
  C   C37       1.0  0.97602  0.32205  0.35515  1.0000
  C   C38       1.0  0.02398  0.67795  0.64485  1.0000
  C   C39       1.0  0.75294  0.12466  0.77179  1.0000
  C   C40       1.0  0.24706  0.87534  0.22821  1.0000
  C   C41       1.0  0.80920  0.15579  0.66888  1.0000
  C   C42       1.0  0.19080  0.84421  0.33112  1.0000
  C   C43       1.0  0.71342  0.24041  0.60358  1.0000
  C   C44       1.0  0.28658  0.75959  0.39642  1.0000
  C   C45       1.0  0.56121  0.28294  0.64809  1.0000
  C   C46       1.0  0.43879  0.71706  0.35191  1.0000
  C   C47       1.0  0.51417  0.24416  0.75169  1.0000
  C   C48       1.0  0.48583  0.75583  0.24831  1.0000
  C   C49       1.0  0.79917  0.27035  0.97507  1.0000
  C   C50       1.0  0.20083  0.72965  0.02493  1.0000
  C   C51       1.0  0.22397  0.13170  0.99150  1.0000
  C   C52       1.0  0.77603  0.86830  0.00850  1.0000
  N   N1        1.0  0.90981  0.88052  0.17881  1.0000
  N   N2        1.0  0.09019  0.11948  0.82119  1.0000
  N   N3        1.0  0.60778  0.16893  0.81423  1.0000
  N   N4        1.0  0.39222  0.83107  0.18577  1.0000
  O   O1        1.0  0.51403  0.62282  0.85794  1.0000
  O   O2        1.0  0.48597  0.37718  0.14206  1.0000
  O   O3        1.0  0.53828  0.83578  0.86317  1.0000
  O   O4        1.0  0.46171  0.16422  0.13683  1.0000
  O   O5        1.0  0.07792  0.41167  0.14813  1.0000
  O   O6        1.0  0.92209  0.58833  0.85187  1.0000
  O   O7        1.0  0.85420  0.44201  0.11781  1.0000
  O   O8        1.0  0.14580  0.55799  0.88218  1.0000
  O   O9        1.0  0.73967  0.17571  0.98091  1.0000
  O   O10       1.0  0.26033  0.82430  0.01909  1.0000
  O   O11       1.0  0.73302  0.40545  0.96372  1.0000
  O   O12       1.0  0.26698  0.59455  0.03628  1.0000
  O   O13       1.0  0.36265  0.07057  0.99148  1.0000
  O   O14       1.0  0.63735  0.92943  0.00852  1.0000
  O   O15       1.0  0.15951  0.26315  0.98899  1.0000
  O   O16       1.0  0.84049  0.73685  0.01101  1.0000
  O   O17       1.0  0.57268  0.63347  0.04848  1.0000
  O   O18       1.0  0.42732  0.36653  0.95152  1.0000
