data_image0
_chemical_formula_structural       Cd2H24C30S2Br4N4
_chemical_formula_sum              "Cd2 H24 C30 S2 Br4 N4"
_cell_length_a       8.4226
_cell_length_b       9.93804
_cell_length_c       10.6431
_cell_angle_alpha    77.228
_cell_angle_beta     66.4513
_cell_angle_gamma    74.4985

_space_group_name_H-M_alt    "P 1"
_space_group_IT_number       1

loop_
  _space_group_symop_operation_xyz
  'x, y, z'

loop_
  _atom_site_type_symbol
  _atom_site_label
  _atom_site_symmetry_multiplicity
  _atom_site_fract_x
  _atom_site_fract_y
  _atom_site_fract_z
  _atom_site_occupancy
  Cd  Cd1       1.0  0.49279  0.35210  0.66903  1.0000
  Cd  Cd2       1.0  0.50721  0.64791  0.33096  1.0000
  H   H1        1.0  0.64203  0.05273  0.26044  1.0000
  H   H2        1.0  0.35797  0.94727  0.73956  1.0000
  H   H3        1.0  0.35025  0.28709  0.10298  1.0000
  H   H4        1.0  0.64975  0.71291  0.89702  1.0000
  H   H5        1.0  0.79898  0.82795  0.35233  1.0000
  H   H6        1.0  0.20102  0.17205  0.64767  1.0000
  H   H7        1.0  0.91005  0.27726  0.96998  1.0000
  H   H8        1.0  0.08995  0.72274  0.03002  1.0000
  H   H9        1.0  0.53522  0.26065  0.39376  1.0000
  H   H10       1.0  0.46477  0.73936  0.60624  1.0000
  H   H11       1.0  0.00973  0.69770  0.72745  1.0000
  H   H12       1.0  0.99027  0.30230  0.27255  1.0000
  H   H13       1.0  0.93570  0.91710  0.82955  1.0000
  H   H14       1.0  0.06430  0.08290  0.17045  1.0000
  H   H15       1.0  0.29682  0.47087  0.25128  1.0000
  H   H16       1.0  0.70318  0.52913  0.74872  1.0000
  H   H17       1.0  0.83180  0.46732  0.11636  1.0000
  H   H18       1.0  0.16820  0.53268  0.88364  1.0000
  H   H19       1.0  0.92872  0.69682  0.52765  1.0000
  H   H20       1.0  0.07127  0.30318  0.47235  1.0000
  H   H21       1.0  0.54602  0.11549  0.96448  1.0000
  H   H22       1.0  0.45398  0.88451  0.03552  1.0000
  H   H23       1.0  0.76081  0.05590  0.97592  1.0000
  H   H24       1.0  0.23919  0.94410  0.02408  1.0000
  C   C1        1.0  0.67226  0.04641  0.35215  1.0000
  C   C2        1.0  0.32773  0.95359  0.64785  1.0000
  C   C3        1.0  0.63433  0.26508  0.02655  1.0000
  C   C4        1.0  0.36567  0.73492  0.97345  1.0000
  C   C5        1.0  0.74606  0.04316  0.58469  1.0000
  C   C6        1.0  0.25394  0.95685  0.41531  1.0000
  C   C7        1.0  0.46052  0.32294  0.10505  1.0000
  C   C8        1.0  0.53948  0.67706  0.89495  1.0000
  C   C9        1.0  0.75897  0.92210  0.40316  1.0000
  C   C10       1.0  0.24103  0.07790  0.59684  1.0000
  C   C11       1.0  0.77148  0.31728  0.02988  1.0000
  C   C12       1.0  0.22852  0.68272  0.97012  1.0000
  C   C13       1.0  0.61544  0.16327  0.42493  1.0000
  C   C14       1.0  0.38456  0.83673  0.57507  1.0000
  C   C15       1.0  0.93475  0.79289  0.68785  1.0000
  C   C16       1.0  0.06525  0.20712  0.31215  1.0000
  C   C17       1.0  0.89211  0.91803  0.74586  1.0000
  C   C18       1.0  0.10789  0.08197  0.25414  1.0000
  C   C19       1.0  0.79773  0.91639  0.52229  1.0000
  C   C20       1.0  0.20227  0.08362  0.47771  1.0000
  C   C21       1.0  0.43030  0.42628  0.18579  1.0000
  C   C22       1.0  0.56970  0.57372  0.81421  1.0000
  C   C23       1.0  0.80000  0.04205  0.69641  1.0000
  C   C24       1.0  0.20000  0.95795  0.30359  1.0000
  C   C25       1.0  0.72962  0.42226  0.11185  1.0000
  C   C26       1.0  0.27038  0.57774  0.88815  1.0000
  C   C27       1.0  0.89042  0.79193  0.57664  1.0000
  C   C28       1.0  0.10958  0.20808  0.42336  1.0000
  C   C29       1.0  0.66940  0.14708  0.94641  1.0000
  C   C30       1.0  0.33060  0.85292  0.05359  1.0000
  S   S1        1.0  0.76882  0.20098  0.76038  1.0000
  S   S2        1.0  0.23118  0.79902  0.23962  1.0000
  Br  Br1       1.0  0.25971  0.48285  0.54012  1.0000
  Br  Br2       1.0  0.74029  0.51715  0.45988  1.0000
  Br  Br3       1.0  0.25882  0.21282  0.88213  1.0000
  Br  Br4       1.0  0.74118  0.78718  0.11787  1.0000
  N   N1        1.0  0.56231  0.47506  0.18958  1.0000
  N   N2        1.0  0.43769  0.52494  0.81042  1.0000
  N   N3        1.0  0.64999  0.16219  0.53650  1.0000
  N   N4        1.0  0.35000  0.83781  0.46350  1.0000
