data_image0
_chemical_formula_structural       Cd2H24C30S2N8O12
_chemical_formula_sum              "Cd2 H24 C30 S2 N8 O12"
_cell_length_a       7.65157
_cell_length_b       8.14581
_cell_length_c       13.9674
_cell_angle_alpha    92.7796
_cell_angle_beta     98.9629
_cell_angle_gamma    91.1081

_space_group_name_H-M_alt    "P 1"
_space_group_IT_number       1

loop_
  _space_group_symop_operation_xyz
  'x, y, z'

loop_
  _atom_site_type_symbol
  _atom_site_label
  _atom_site_symmetry_multiplicity
  _atom_site_fract_x
  _atom_site_fract_y
  _atom_site_fract_z
  _atom_site_occupancy
  Cd  Cd1       1.0  0.68088  0.71459  0.80593  1.0000
  Cd  Cd2       1.0  0.31912  0.28541  0.19407  1.0000
  H   H1        1.0  0.82602  0.35964  0.72732  1.0000
  H   H2        1.0  0.17398  0.64035  0.27268  1.0000
  H   H3        1.0  0.72559  0.16892  0.75521  1.0000
  H   H4        1.0  0.27441  0.83107  0.24479  1.0000
  H   H5        1.0  0.95689  0.12769  0.09600  1.0000
  H   H6        1.0  0.04311  0.87230  0.90400  1.0000
  H   H7        1.0  0.31214  0.42836  0.98351  1.0000
  H   H8        1.0  0.68786  0.57164  0.01649  1.0000
  H   H9        1.0  0.55916  0.88424  0.61106  1.0000
  H   H10       1.0  0.44083  0.11576  0.38894  1.0000
  H   H11       1.0  0.33679  0.14804  0.74123  1.0000
  H   H12       1.0  0.66321  0.85195  0.25877  1.0000
  H   H13       1.0  0.73986  0.12893  0.94573  1.0000
  H   H14       1.0  0.26014  0.87106  0.05427  1.0000
  H   H15       1.0  0.16482  0.58973  0.41814  1.0000
  H   H16       1.0  0.83518  0.41028  0.58186  1.0000
  H   H17       1.0  0.10426  0.44645  0.82805  1.0000
  H   H18       1.0  0.89574  0.55355  0.17195  1.0000
  H   H19       1.0  0.11577  0.10457  0.59213  1.0000
  H   H20       1.0  0.88422  0.89543  0.40786  1.0000
  H   H21       1.0  0.07819  0.32136  0.46969  1.0000
  H   H22       1.0  0.92180  0.67865  0.53031  1.0000
  H   H23       1.0  0.34652  0.85370  0.45425  1.0000
  H   H24       1.0  0.65348  0.14631  0.54575  1.0000
  C   C1        1.0  0.77232  0.29293  0.78277  1.0000
  C   C2        1.0  0.22768  0.70707  0.21723  1.0000
  C   C3        1.0  0.98657  0.19634  0.03532  1.0000
  C   C4        1.0  0.01343  0.80366  0.96468  1.0000
  C   C5        1.0  0.90498  0.28662  0.87363  1.0000
  C   C6        1.0  0.09502  0.71337  0.12637  1.0000
  C   C7        1.0  0.18358  0.36413  0.97205  1.0000
  C   C8        1.0  0.81642  0.63587  0.02795  1.0000
  C   C9        1.0  0.47864  0.77203  0.59179  1.0000
  C   C10       1.0  0.52136  0.22798  0.40821  1.0000
  C   C11       1.0  0.42703  0.38382  0.70555  1.0000
  C   C12       1.0  0.57298  0.61618  0.29444  1.0000
  C   C13       1.0  0.32203  0.24158  0.68755  1.0000
  C   C14       1.0  0.67797  0.75841  0.31245  1.0000
  C   C15       1.0  0.40569  0.51189  0.63841  1.0000
  C   C16       1.0  0.59431  0.48811  0.36159  1.0000
  C   C17       1.0  0.86503  0.19689  0.95065  1.0000
  C   C18       1.0  0.13497  0.80310  0.04935  1.0000
  C   C19       1.0  0.26004  0.61062  0.48447  1.0000
  C   C20       1.0  0.73996  0.38939  0.51553  1.0000
  C   C21       1.0  0.06812  0.37211  0.88513  1.0000
  C   C22       1.0  0.93189  0.62789  0.11486  1.0000
  C   C23       1.0  0.27922  0.48518  0.55160  1.0000
  C   C24       1.0  0.72077  0.51483  0.44841  1.0000
  C   C25       1.0  0.19659  0.21765  0.60229  1.0000
  C   C26       1.0  0.80340  0.78236  0.39771  1.0000
  C   C27       1.0  0.17643  0.33701  0.53513  1.0000
  C   C28       1.0  0.82356  0.66300  0.46487  1.0000
  C   C29       1.0  0.35939  0.75444  0.50421  1.0000
  C   C30       1.0  0.64061  0.24557  0.49580  1.0000
  S   S1        1.0  0.57864  0.40083  0.81559  1.0000
  S   S2        1.0  0.42136  0.59916  0.18440  1.0000
  N   N1        1.0  0.50162  0.65603  0.65585  1.0000
  N   N2        1.0  0.49838  0.34397  0.34415  1.0000
  N   N3        1.0  0.14301  0.27886  0.04618  1.0000
  N   N4        1.0  0.85699  0.72113  0.95382  1.0000
  N   N5        1.0  0.97518  0.79140  0.70385  1.0000
  N   N6        1.0  0.02481  0.20860  0.29615  1.0000
  N   N7        1.0  0.41290  0.91538  0.86939  1.0000
  N   N8        1.0  0.58710  0.08461  0.13061  1.0000
  O   O1        1.0  0.94977  0.64080  0.72163  1.0000
  O   O2        1.0  0.05023  0.35920  0.27837  1.0000
  O   O3        1.0  0.40461  0.76420  0.88763  1.0000
  O   O4        1.0  0.59539  0.23580  0.11238  1.0000
  O   O5        1.0  0.53793  0.96345  0.82321  1.0000
  O   O6        1.0  0.46207  0.03655  0.17679  1.0000
  O   O7        1.0  0.86783  0.89782  0.73097  1.0000
  O   O8        1.0  0.13216  0.10218  0.26903  1.0000
  O   O9        1.0  0.09813  0.83415  0.66098  1.0000
  O   O10       1.0  0.90187  0.16585  0.33902  1.0000
  O   O11       1.0  0.30687  0.01700  0.89395  1.0000
  O   O12       1.0  0.69313  0.98299  0.10605  1.0000
