data_image0
_chemical_formula_structural       Zn3H14C14N6O12
_chemical_formula_sum              "Zn3 H14 C14 N6 O12"
_cell_length_a       7.30656
_cell_length_b       7.9609
_cell_length_c       10.0121
_cell_angle_alpha    108.565
_cell_angle_beta     96.9984
_cell_angle_gamma    107.463

_space_group_name_H-M_alt    "P 1"
_space_group_IT_number       1

loop_
  _space_group_symop_operation_xyz
  'x, y, z'

loop_
  _atom_site_type_symbol
  _atom_site_label
  _atom_site_symmetry_multiplicity
  _atom_site_fract_x
  _atom_site_fract_y
  _atom_site_fract_z
  _atom_site_occupancy
  Zn  Zn1       1.0  0.50000  0.00000  1.00000  1.0000
  Zn  Zn2       1.0  0.21572  0.06618  0.43732  1.0000
  Zn  Zn3       1.0  0.78428  0.93381  0.56267  1.0000
  H   H1        1.0  0.55752  0.78424  0.74402  1.0000
  H   H2        1.0  0.44249  0.21577  0.25599  1.0000
  H   H3        1.0  0.60160  0.67881  0.84393  1.0000
  H   H4        1.0  0.39841  0.32120  0.15608  1.0000
  H   H5        1.0  0.80063  0.35008  0.05007  1.0000
  H   H6        1.0  0.19936  0.64991  0.94993  1.0000
  H   H7        1.0  0.78733  0.20805  0.89148  1.0000
  H   H8        1.0  0.21267  0.79194  0.10852  1.0000
  H   H9        1.0  0.71135  0.49602  0.34003  1.0000
  H   H10       1.0  0.28865  0.50398  0.65998  1.0000
  H   H11       1.0  0.51305  0.15617  0.73432  1.0000
  H   H12       1.0  0.48694  0.84383  0.26568  1.0000
  H   H13       1.0  0.01162  0.85284  0.84109  1.0000
  H   H14       1.0  0.98837  0.14716  0.15891  1.0000
  C   C1        1.0  0.60511  0.35567  0.54335  1.0000
  C   C2        1.0  0.39488  0.64433  0.45665  1.0000
  C   C3        1.0  0.80920  0.42429  0.51958  1.0000
  C   C4        1.0  0.19080  0.57570  0.48042  1.0000
  C   C5        1.0  0.97398  0.42892  0.61151  1.0000
  C   C6        1.0  0.02602  0.57107  0.38849  1.0000
  C   C7        1.0  0.95639  0.34724  0.72819  1.0000
  C   C8        1.0  0.04361  0.65276  0.27181  1.0000
  C   C9        1.0  0.83745  0.49419  0.40904  1.0000
  C   C10       1.0  0.16255  0.50581  0.59096  1.0000
  C   C11       1.0  0.36212  0.07867  0.73214  1.0000
  C   C12       1.0  0.63787  0.92133  0.26786  1.0000
  C   C13       1.0  0.10718  0.92391  0.78545  1.0000
  C   C14       1.0  0.89282  0.07609  0.21455  1.0000
  N   N1        1.0  0.30653  0.00450  0.83077  1.0000
  N   N2        1.0  0.69347  0.99550  0.16923  1.0000
  N   N3        1.0  0.20704  0.04511  0.62947  1.0000
  N   N4        1.0  0.79295  0.95488  0.37053  1.0000
  N   N5        1.0  0.04238  0.94448  0.66339  1.0000
  N   N6        1.0  0.95762  0.05551  0.33660  1.0000
  O   O1        1.0  0.60406  0.80329  0.84705  1.0000
  O   O2        1.0  0.39595  0.19672  0.15296  1.0000
  O   O3        1.0  0.74434  0.21420  0.98198  1.0000
  O   O4        1.0  0.25566  0.78580  0.01802  1.0000
  O   O5        1.0  0.47333  0.22036  0.42857  1.0000
  O   O6        1.0  0.52666  0.77965  0.57144  1.0000
  O   O7        1.0  0.56952  0.42636  0.66212  1.0000
  O   O8        1.0  0.43048  0.57365  0.33788  1.0000
  O   O9        1.0  0.80518  0.19235  0.69987  1.0000
  O   O10       1.0  0.19482  0.80765  0.30013  1.0000
  O   O11       1.0  0.08522  0.42535  0.84488  1.0000
  O   O12       1.0  0.91478  0.57465  0.15512  1.0000
