data_image0
_chemical_formula_structural       Cu4H28C32N8O4
_chemical_formula_sum              "Cu4 H28 C32 N8 O4"
_cell_length_a       7.2378
_cell_length_b       8.88959
_cell_length_c       11.8494
_cell_angle_alpha    90
_cell_angle_beta     89.0211
_cell_angle_gamma    89.9996

_space_group_name_H-M_alt    "P 1"
_space_group_IT_number       1

loop_
  _space_group_symop_operation_xyz
  'x, y, z'

loop_
  _atom_site_type_symbol
  _atom_site_label
  _atom_site_symmetry_multiplicity
  _atom_site_fract_x
  _atom_site_fract_y
  _atom_site_fract_z
  _atom_site_occupancy
  Cu  Cu1       1.0  0.87541  0.90851  0.53771  1.0000
  Cu  Cu2       1.0  0.62458  0.40851  0.46229  1.0000
  Cu  Cu3       1.0  0.12457  0.09149  0.46229  1.0000
  Cu  Cu4       1.0  0.37541  0.59149  0.53771  1.0000
  H   H1        1.0  0.93553  0.61003  0.64467  1.0000
  H   H2        1.0  0.56448  0.11003  0.35533  1.0000
  H   H3        1.0  0.06447  0.38997  0.35533  1.0000
  H   H4        1.0  0.43551  0.88998  0.64467  1.0000
  H   H5        1.0  0.16948  0.68669  0.97315  1.0000
  H   H6        1.0  0.33052  0.18670  0.02686  1.0000
  H   H7        1.0  0.83052  0.31330  0.02685  1.0000
  H   H8        1.0  0.66949  0.81330  0.97314  1.0000
  H   H9        1.0  0.84719  0.40702  0.71323  1.0000
  H   H10       1.0  0.65281  0.90701  0.28677  1.0000
  H   H11       1.0  0.15281  0.59299  0.28677  1.0000
  H   H12       1.0  0.34719  0.09299  0.71323  1.0000
  H   H13       1.0  0.89349  0.26825  0.81834  1.0000
  H   H14       1.0  0.60651  0.76826  0.18165  1.0000
  H   H15       1.0  0.10650  0.73175  0.18165  1.0000
  H   H16       1.0  0.39349  0.23175  0.81835  1.0000
  H   H17       1.0  0.04968  0.29738  0.70212  1.0000
  H   H18       1.0  0.45032  0.79738  0.29788  1.0000
  H   H19       1.0  0.95032  0.70261  0.29788  1.0000
  H   H20       1.0  0.54968  0.20262  0.70212  1.0000
  H   H21       1.0  0.13793  0.96251  0.93745  1.0000
  H   H22       1.0  0.36207  0.46252  0.06255  1.0000
  H   H23       1.0  0.86207  0.03749  0.06255  1.0000
  H   H24       1.0  0.63794  0.53748  0.93745  1.0000
  H   H25       1.0  0.00356  0.04690  0.75313  1.0000
  H   H26       1.0  0.49645  0.54690  0.24687  1.0000
  H   H27       1.0  0.99644  0.95310  0.24687  1.0000
  H   H28       1.0  0.50355  0.45310  0.75313  1.0000
  C   C1        1.0  0.98061  0.68328  0.71267  1.0000
  C   C2        1.0  0.51940  0.18328  0.28733  1.0000
  C   C3        1.0  0.01939  0.31672  0.28733  1.0000
  C   C4        1.0  0.48060  0.81672  0.71267  1.0000
  C   C5        1.0  0.69763  0.60933  0.47297  1.0000
  C   C6        1.0  0.80236  0.10934  0.52705  1.0000
  C   C7        1.0  0.30236  0.39067  0.52703  1.0000
  C   C8        1.0  0.19763  0.89068  0.47297  1.0000
  C   C9        1.0  0.06582  0.46069  0.83303  1.0000
  C   C10       1.0  0.43418  0.96071  0.16697  1.0000
  C   C11       1.0  0.93418  0.53930  0.16696  1.0000
  C   C12       1.0  0.56582  0.03930  0.83303  1.0000
  C   C13       1.0  0.11078  0.72772  0.89504  1.0000
  C   C14       1.0  0.38923  0.22773  0.10496  1.0000
  C   C15       1.0  0.88923  0.27227  0.10496  1.0000
  C   C16       1.0  0.61078  0.77228  0.89503  1.0000
  C   C17       1.0  0.95554  0.35385  0.76259  1.0000
  C   C18       1.0  0.54446  0.85386  0.23740  1.0000
  C   C19       1.0  0.04446  0.64615  0.23741  1.0000
  C   C20       1.0  0.45554  0.14615  0.76260  1.0000
  C   C21       1.0  0.05124  0.62575  0.81306  1.0000
  C   C22       1.0  0.44877  0.12576  0.18694  1.0000
  C   C23       1.0  0.94876  0.37425  0.18694  1.0000
  C   C24       1.0  0.55124  0.87425  0.81306  1.0000
  C   C25       1.0  0.09334  0.88107  0.87490  1.0000
  C   C26       1.0  0.40667  0.38107  0.12511  1.0000
  C   C27       1.0  0.90666  0.11893  0.12511  1.0000
  C   C28       1.0  0.59334  0.61893  0.87489  1.0000
  C   C29       1.0  0.02005  0.92806  0.77288  1.0000
  C   C30       1.0  0.47995  0.42807  0.22713  1.0000
  C   C31       1.0  0.97994  0.07194  0.22712  1.0000
  C   C32       1.0  0.52005  0.57194  0.77287  1.0000
  N   N1        1.0  0.96602  0.83133  0.69243  1.0000
  N   N2        1.0  0.53398  0.33133  0.30757  1.0000
  N   N3        1.0  0.03398  0.16867  0.30757  1.0000
  N   N4        1.0  0.46601  0.66867  0.69243  1.0000
  N   N5        1.0  0.76922  0.72851  0.47920  1.0000
  N   N6        1.0  0.73078  0.22850  0.52081  1.0000
  N   N7        1.0  0.23077  0.27149  0.52080  1.0000
  N   N8        1.0  0.26922  0.77149  0.47920  1.0000
  O   O1        1.0  0.16858  0.41273  0.90731  1.0000
  O   O2        1.0  0.33142  0.91274  0.09270  1.0000
  O   O3        1.0  0.83142  0.58726  0.09269  1.0000
  O   O4        1.0  0.66859  0.08726  0.90730  1.0000
