data_image0
_chemical_formula_structural       Zn2NiH14C8N8O4
_chemical_formula_sum              "Zn2 Ni1 H14 C8 N8 O4"
_cell_length_a       5.74251
_cell_length_b       7.8631
_cell_length_c       9.7726
_cell_angle_alpha    82.4478
_cell_angle_beta     76.0266
_cell_angle_gamma    86.2933

_space_group_name_H-M_alt    "P 1"
_space_group_IT_number       1

loop_
  _space_group_symop_operation_xyz
  'x, y, z'

loop_
  _atom_site_type_symbol
  _atom_site_label
  _atom_site_symmetry_multiplicity
  _atom_site_fract_x
  _atom_site_fract_y
  _atom_site_fract_z
  _atom_site_occupancy
  Zn  Zn1       1.0  0.46943  0.79957  0.75434  1.0000
  Zn  Zn2       1.0  0.53058  0.20043  0.24566  1.0000
  Ni  Ni1       1.0  0.00000  0.50002  0.50000  1.0000
  H   H1        1.0  0.24074  0.02990  0.90568  1.0000
  H   H2        1.0  0.75926  0.97009  0.09433  1.0000
  H   H3        1.0  0.07498  0.85640  0.93737  1.0000
  H   H4        1.0  0.92502  0.14358  0.06263  1.0000
  H   H5        1.0  0.31162  0.86265  0.00857  1.0000
  H   H6        1.0  0.68837  0.13732  0.99144  1.0000
  H   H7        1.0  0.74848  0.95450  0.53135  1.0000
  H   H8        1.0  0.25152  0.04552  0.46865  1.0000
  H   H9        1.0  0.57661  0.09730  0.62300  1.0000
  H   H10       1.0  0.42338  0.90271  0.37700  1.0000
  H   H11       1.0  0.82159  0.01519  0.67065  1.0000
  H   H12       1.0  0.17840  0.98481  0.32936  1.0000
  H   H13       1.0  0.98436  0.39019  0.88273  1.0000
  H   H14       1.0  0.01565  0.60978  0.11725  1.0000
  C   C1        1.0  0.09563  0.30142  0.59789  1.0000
  C   C2        1.0  0.90436  0.69863  0.40210  1.0000
  C   C3        1.0  0.17673  0.62397  0.58211  1.0000
  C   C4        1.0  0.82327  0.37606  0.41789  1.0000
  C   C5        1.0  0.78418  0.63733  0.90266  1.0000
  C   C6        1.0  0.21584  0.36265  0.09733  1.0000
  C   C7        1.0  0.94875  0.49793  0.94552  1.0000
  C   C8        1.0  0.05125  0.50205  0.05447  1.0000
  N   N1        1.0  0.15567  0.17181  0.65703  1.0000
  N   N2        1.0  0.84433  0.82821  0.34297  1.0000
  N   N3        1.0  0.28607  0.70311  0.63705  1.0000
  N   N4        1.0  0.71393  0.29691  0.36295  1.0000
  N   N5        1.0  0.24861  0.89840  0.91947  1.0000
  N   N6        1.0  0.75138  0.10158  0.08054  1.0000
  N   N7        1.0  0.67930  0.98667  0.63222  1.0000
  N   N8        1.0  0.32069  0.01333  0.36778  1.0000
  O   O1        1.0  0.66040  0.59841  0.81763  1.0000
  O   O2        1.0  0.33960  0.40158  0.18237  1.0000
  O   O3        1.0  0.77294  0.78300  0.94607  1.0000
  O   O4        1.0  0.22709  0.21698  0.05393  1.0000
