data_image0
_chemical_formula_structural       Ag4H36C24Br4N12O4
_chemical_formula_sum              "Ag4 H36 C24 Br4 N12 O4"
_cell_length_a       4.33145
_cell_length_b       11.6131
_cell_length_c       17.4931
_cell_angle_alpha    90.0003
_cell_angle_beta     89.9998
_cell_angle_gamma    90.2419

_space_group_name_H-M_alt    "P 1"
_space_group_IT_number       1

loop_
  _space_group_symop_operation_xyz
  'x, y, z'

loop_
  _atom_site_type_symbol
  _atom_site_label
  _atom_site_symmetry_multiplicity
  _atom_site_fract_x
  _atom_site_fract_y
  _atom_site_fract_z
  _atom_site_occupancy
  Ag  Ag1       1.0  0.28384  0.50453  0.91074  1.0000
  Ag  Ag2       1.0  0.71618  0.99547  0.41074  1.0000
  Ag  Ag3       1.0  0.71618  0.49546  0.08926  1.0000
  Ag  Ag4       1.0  0.28385  0.00453  0.58926  1.0000
  H   H1        1.0  0.69936  0.94817  0.03705  1.0000
  H   H2        1.0  0.30062  0.55183  0.53705  1.0000
  H   H3        1.0  0.30062  0.05183  0.96295  1.0000
  H   H4        1.0  0.69938  0.44817  0.46295  1.0000
  H   H5        1.0  0.91428  0.81885  0.02305  1.0000
  H   H6        1.0  0.08572  0.68115  0.52305  1.0000
  H   H7        1.0  0.08573  0.18114  0.97695  1.0000
  H   H8        1.0  0.91428  0.31885  0.47695  1.0000
  H   H9        1.0  0.23563  0.75363  0.65784  1.0000
  H   H10       1.0  0.76437  0.74637  0.15785  1.0000
  H   H11       1.0  0.76437  0.24637  0.34216  1.0000
  H   H12       1.0  0.23562  0.25364  0.84216  1.0000
  H   H13       1.0  0.64526  0.87007  0.75155  1.0000
  H   H14       1.0  0.35474  0.62993  0.25156  1.0000
  H   H15       1.0  0.35475  0.12992  0.24844  1.0000
  H   H16       1.0  0.64526  0.37008  0.74844  1.0000
  H   H17       1.0  0.93687  0.49823  0.77389  1.0000
  H   H18       1.0  0.06312  0.00177  0.27389  1.0000
  H   H19       1.0  0.06312  0.50177  0.22611  1.0000
  H   H20       1.0  0.93687  0.99823  0.72611  1.0000
  H   H21       1.0  0.13496  0.49273  0.68373  1.0000
  H   H22       1.0  0.86504  0.00727  0.18373  1.0000
  H   H23       1.0  0.86503  0.50727  0.31627  1.0000
  H   H24       1.0  0.13495  0.99273  0.81627  1.0000
  H   H25       1.0  0.82085  0.59122  0.69720  1.0000
  H   H26       1.0  0.17915  0.90878  0.19720  1.0000
  H   H27       1.0  0.17915  0.40878  0.30280  1.0000
  H   H28       1.0  0.82085  0.09123  0.80280  1.0000
  H   H29       1.0  0.97073  0.78007  0.87225  1.0000
  H   H30       1.0  0.02926  0.71994  0.37226  1.0000
  H   H31       1.0  0.02928  0.21993  0.12774  1.0000
  H   H32       1.0  0.97073  0.28007  0.62774  1.0000
  H   H33       1.0  0.75923  0.68139  0.92892  1.0000
  H   H34       1.0  0.24077  0.81861  0.42892  1.0000
  H   H35       1.0  0.24078  0.31861  0.07108  1.0000
  H   H36       1.0  0.75924  0.18139  0.57108  1.0000
  C   C1        1.0  0.36662  0.62925  0.82429  1.0000
  C   C2        1.0  0.63338  0.87075  0.32429  1.0000
  C   C3        1.0  0.63339  0.37075  0.17571  1.0000
  C   C4        1.0  0.36662  0.12925  0.67571  1.0000
  C   C5        1.0  0.32115  0.73266  0.71434  1.0000
  C   C6        1.0  0.67885  0.76734  0.21434  1.0000
  C   C7        1.0  0.67885  0.26733  0.28566  1.0000
  C   C8        1.0  0.32115  0.23267  0.78566  1.0000
  C   C9        1.0  0.52183  0.79033  0.76062  1.0000
  C   C10       1.0  0.47816  0.70968  0.26062  1.0000
  C   C11       1.0  0.47817  0.20967  0.23937  1.0000
  C   C12       1.0  0.52184  0.29033  0.73938  1.0000
  C   C13       1.0  0.01709  0.54879  0.72484  1.0000
  C   C14       1.0  0.98289  0.95121  0.22484  1.0000
  C   C15       1.0  0.98290  0.45121  0.27516  1.0000
  C   C16       1.0  0.01709  0.04880  0.77516  1.0000
  C   C17       1.0  0.73736  0.75720  0.89187  1.0000
  C   C18       1.0  0.26263  0.74280  0.39187  1.0000
  C   C19       1.0  0.26264  0.24280  0.10813  1.0000
  C   C20       1.0  0.73738  0.25719  0.60813  1.0000
  C   C21       1.0  0.61547  0.85982  0.93719  1.0000
  C   C22       1.0  0.38455  0.64017  0.43719  1.0000
  C   C23       1.0  0.38453  0.14017  0.06280  1.0000
  C   C24       1.0  0.61546  0.35983  0.56281  1.0000
  Br  Br1       1.0  0.80845  0.36521  0.94425  1.0000
  Br  Br2       1.0  0.19156  0.13479  0.44425  1.0000
  Br  Br3       1.0  0.19158  0.63479  0.05575  1.0000
  Br  Br4       1.0  0.80845  0.86521  0.55576  1.0000
  N   N1        1.0  0.22905  0.63542  0.75438  1.0000
  N   N2        1.0  0.77094  0.86458  0.25438  1.0000
  N   N3        1.0  0.77095  0.36458  0.24562  1.0000
  N   N4        1.0  0.22905  0.13542  0.74562  1.0000
  N   N5        1.0  0.54721  0.72605  0.82707  1.0000
  N   N6        1.0  0.45278  0.77395  0.32707  1.0000
  N   N7        1.0  0.45279  0.27394  0.17293  1.0000
  N   N8        1.0  0.54722  0.22605  0.67293  1.0000
  N   N9        1.0  0.75232  0.87625  0.00465  1.0000
  N   N10       1.0  0.24765  0.62375  0.50465  1.0000
  N   N11       1.0  0.24767  0.12374  0.99535  1.0000
  N   N12       1.0  0.75235  0.37625  0.49535  1.0000
  O   O1        1.0  0.41144  0.92442  0.91032  1.0000
  O   O2        1.0  0.58852  0.57559  0.41032  1.0000
  O   O3        1.0  0.58853  0.07558  0.08968  1.0000
  O   O4        1.0  0.41147  0.42442  0.58968  1.0000
