data_image0
_chemical_formula_structural       Zn2H40C64N8O8
_chemical_formula_sum              "Zn2 H40 C64 N8 O8"
_cell_length_a       8.27151
_cell_length_b       10.7107
_cell_length_c       14.2632
_cell_angle_alpha    97.6658
_cell_angle_beta     91.9835
_cell_angle_gamma    98.4864

_space_group_name_H-M_alt    "P 1"
_space_group_IT_number       1

loop_
  _space_group_symop_operation_xyz
  'x, y, z'

loop_
  _atom_site_type_symbol
  _atom_site_label
  _atom_site_symmetry_multiplicity
  _atom_site_fract_x
  _atom_site_fract_y
  _atom_site_fract_z
  _atom_site_occupancy
  Zn  Zn1       1.0  0.77376  0.28896  0.65327  1.0000
  Zn  Zn2       1.0  0.22624  0.71104  0.34673  1.0000
  H   H1        1.0  0.49396  0.18404  0.78265  1.0000
  H   H2        1.0  0.50604  0.81596  0.21735  1.0000
  H   H3        1.0  0.20347  0.07046  0.75908  1.0000
  H   H4        1.0  0.79653  0.92954  0.24092  1.0000
  H   H5        1.0  0.07853  0.01291  0.59390  1.0000
  H   H6        1.0  0.92147  0.98709  0.40611  1.0000
  H   H7        1.0  0.24871  0.06332  0.45770  1.0000
  H   H8        1.0  0.75129  0.93668  0.54230  1.0000
  H   H9        1.0  0.40126  0.13810  0.35398  1.0000
  H   H10       1.0  0.59874  0.86190  0.64602  1.0000
  H   H11       1.0  0.89759  0.30302  0.30647  1.0000
  H   H12       1.0  0.10241  0.69697  0.69353  1.0000
  H   H13       1.0  0.12767  0.37597  0.37146  1.0000
  H   H14       1.0  0.87233  0.62403  0.62854  1.0000
  H   H15       1.0  0.39234  0.45028  0.45997  1.0000
  H   H16       1.0  0.60766  0.54972  0.54002  1.0000
  H   H17       1.0  0.41054  0.45743  0.63905  1.0000
  H   H18       1.0  0.58946  0.54257  0.36095  1.0000
  H   H19       1.0  0.14878  0.39427  0.71856  1.0000
  H   H20       1.0  0.85122  0.60573  0.28144  1.0000
  H   H21       1.0  0.80176  0.34819  0.18201  1.0000
  H   H22       1.0  0.19824  0.65181  0.81799  1.0000
  H   H23       1.0  0.38979  0.05951  0.21373  1.0000
  H   H24       1.0  0.61020  0.94048  0.78626  1.0000
  H   H25       1.0  0.32500  0.04512  0.04042  1.0000
  H   H26       1.0  0.67500  0.95488  0.95958  1.0000
  H   H27       1.0  0.51097  0.17907  0.94530  1.0000
  H   H28       1.0  0.48904  0.82093  0.05470  1.0000
  H   H29       1.0  0.92237  0.60185  0.95651  1.0000
  H   H30       1.0  0.07763  0.39815  0.04349  1.0000
  H   H31       1.0  0.78399  0.61338  0.10838  1.0000
  H   H32       1.0  0.21601  0.38662  0.89162  1.0000
  H   H33       1.0  0.47087  0.43023  0.80411  1.0000
  H   H34       1.0  0.52913  0.56977  0.19589  1.0000
  H   H35       1.0  0.92158  0.86846  0.75402  1.0000
  H   H36       1.0  0.07842  0.13154  0.24598  1.0000
  H   H37       1.0  0.99858  0.76392  0.88935  1.0000
  H   H38       1.0  0.00142  0.23608  0.11064  1.0000
  H   H39       1.0  0.92185  0.22109  0.93735  1.0000
  H   H40       1.0  0.07815  0.77891  0.06265  1.0000
  C   C1        1.0  0.43368  0.15593  0.71210  1.0000
  C   C2        1.0  0.56632  0.84407  0.28789  1.0000
  C   C3        1.0  0.27285  0.09347  0.69854  1.0000
  C   C4        1.0  0.72715  0.90653  0.30146  1.0000
  C   C5        1.0  0.20464  0.06087  0.60603  1.0000
  C   C6        1.0  0.79536  0.93913  0.39397  1.0000
  C   C7        1.0  0.29839  0.09118  0.53049  1.0000
  C   C8        1.0  0.70161  0.90882  0.46951  1.0000
  C   C9        1.0  0.45863  0.15517  0.55021  1.0000
  C   C10       1.0  0.54137  0.84483  0.44979  1.0000
  C   C11       1.0  0.57005  0.19387  0.47604  1.0000
  C   C12       1.0  0.42995  0.80613  0.52396  1.0000
  C   C13       1.0  0.52587  0.17966  0.37945  1.0000
  C   C14       1.0  0.47412  0.82034  0.62055  1.0000
  C   C15       1.0  0.64346  0.21911  0.31588  1.0000
  C   C16       1.0  0.35654  0.78088  0.68412  1.0000
  C   C17       1.0  0.80274  0.27091  0.35289  1.0000
  C   C18       1.0  0.19725  0.72909  0.64712  1.0000
  C   C19       1.0  0.83758  0.28333  0.45038  1.0000
  C   C20       1.0  0.16241  0.71667  0.54962  1.0000
  C   C21       1.0  0.00057  0.33633  0.49765  1.0000
  C   C22       1.0  0.99943  0.66367  0.50235  1.0000
  C   C23       1.0  0.13713  0.37549  0.44785  1.0000
  C   C24       1.0  0.86287  0.62452  0.55215  1.0000
  C   C25       1.0  0.28585  0.41994  0.49876  1.0000
  C   C26       1.0  0.71415  0.58006  0.50124  1.0000
  C   C27       1.0  0.29528  0.42546  0.59716  1.0000
  C   C28       1.0  0.70472  0.57453  0.40284  1.0000
  C   C29       1.0  0.15180  0.38843  0.64171  1.0000
  C   C30       1.0  0.84820  0.61157  0.35829  1.0000
  C   C31       1.0  0.69583  0.27812  0.15363  1.0000
  C   C32       1.0  0.30417  0.72188  0.84637  1.0000
  C   C33       1.0  0.60165  0.20548  0.21346  1.0000
  C   C34       1.0  0.39835  0.79451  0.78654  1.0000
  C   C35       1.0  0.46596  0.11944  0.17128  1.0000
  C   C36       1.0  0.53404  0.88055  0.82872  1.0000
  C   C37       1.0  0.43009  0.11052  0.07458  1.0000
  C   C38       1.0  0.56991  0.88948  0.92542  1.0000
  C   C39       1.0  0.53376  0.18544  0.02187  1.0000
  C   C40       1.0  0.46624  0.81456  0.97813  1.0000
  C   C41       1.0  0.78658  0.51724  0.77920  1.0000
  C   C42       1.0  0.21343  0.48276  0.22080  1.0000
  C   C43       1.0  0.70224  0.51899  0.87085  1.0000
  C   C44       1.0  0.29776  0.48101  0.12916  1.0000
  C   C45       1.0  0.79142  0.56971  0.95779  1.0000
  C   C46       1.0  0.20858  0.43028  0.04221  1.0000
  C   C47       1.0  0.71442  0.57451  0.04179  1.0000
  C   C48       1.0  0.28557  0.42549  0.95821  1.0000
  C   C49       1.0  0.53757  0.47034  0.87122  1.0000
  C   C50       1.0  0.46243  0.52966  0.12878  1.0000
  C   C51       1.0  0.54503  0.52729  0.04368  1.0000
  C   C52       1.0  0.45497  0.47271  0.95632  1.0000
  C   C53       1.0  0.86731  0.10994  0.75426  1.0000
  C   C54       1.0  0.13270  0.89006  0.24574  1.0000
  C   C55       1.0  0.92111  0.05217  0.83787  1.0000
  C   C56       1.0  0.07889  0.94784  0.16214  1.0000
  C   C57       1.0  0.94327  0.92213  0.82495  1.0000
  C   C58       1.0  0.05673  0.07787  0.17505  1.0000
  C   C59       1.0  0.98653  0.86448  0.90056  1.0000
  C   C60       1.0  0.01347  0.13552  0.09944  1.0000
  C   C61       1.0  0.01093  0.93411  0.99323  1.0000
  C   C62       1.0  0.98907  0.06589  0.00677  1.0000
  C   C63       1.0  0.94363  0.12246  0.92747  1.0000
  C   C64       1.0  0.05637  0.87754  0.07254  1.0000
  N   N1        1.0  0.52356  0.18614  0.63993  1.0000
  N   N2        1.0  0.47644  0.81386  0.36007  1.0000
  N   N3        1.0  0.72234  0.24627  0.50901  1.0000
  N   N4        1.0  0.27766  0.75373  0.49099  1.0000
  N   N5        1.0  0.00878  0.34486  0.59314  1.0000
  N   N6        1.0  0.99122  0.65514  0.40685  1.0000
  N   N7        1.0  0.66502  0.26729  0.05994  1.0000
  N   N8        1.0  0.33499  0.73271  0.94006  1.0000
  O   O1        1.0  0.70219  0.45352  0.70438  1.0000
  O   O2        1.0  0.29781  0.54648  0.29562  1.0000
  O   O3        1.0  0.92929  0.57578  0.77773  1.0000
  O   O4        1.0  0.07072  0.42422  0.22228  1.0000
  O   O5        1.0  0.86026  0.23075  0.76872  1.0000
  O   O6        1.0  0.13974  0.76925  0.23128  1.0000
  O   O7        1.0  0.83042  0.04025  0.67574  1.0000
  O   O8        1.0  0.16958  0.95975  0.32426  1.0000
