data_image0
_chemical_formula_structural       Cd2H36C56N8O8
_chemical_formula_sum              "Cd2 H36 C56 N8 O8"
_cell_length_a       9.24306
_cell_length_b       11.4899
_cell_length_c       13.1591
_cell_angle_alpha    73.817
_cell_angle_beta     70.935
_cell_angle_gamma    65.8704

_space_group_name_H-M_alt    "P 1"
_space_group_IT_number       1

loop_
  _space_group_symop_operation_xyz
  'x, y, z'

loop_
  _atom_site_type_symbol
  _atom_site_label
  _atom_site_symmetry_multiplicity
  _atom_site_fract_x
  _atom_site_fract_y
  _atom_site_fract_z
  _atom_site_occupancy
  Cd  Cd1       1.0  0.96762  0.34168  0.25753  1.0000
  Cd  Cd2       1.0  0.03238  0.65833  0.74247  1.0000
  H   H1        1.0  0.88034  0.59834  0.06557  1.0000
  H   H2        1.0  0.11966  0.40166  0.93443  1.0000
  H   H3        1.0  0.64482  0.77968  0.00415  1.0000
  H   H4        1.0  0.35517  0.22033  0.99585  1.0000
  H   H5        1.0  0.35860  0.80038  0.12222  1.0000
  H   H6        1.0  0.64139  0.19962  0.87778  1.0000
  H   H7        1.0  0.32691  0.63883  0.29181  1.0000
  H   H8        1.0  0.67309  0.36116  0.70819  1.0000
  H   H9        1.0  0.31708  0.47664  0.40492  1.0000
  H   H10       1.0  0.68292  0.52334  0.59508  1.0000
  H   H11       1.0  0.59086  0.16845  0.61884  1.0000
  H   H12       1.0  0.40914  0.83155  0.38116  1.0000
  H   H13       1.0  0.80907  0.09393  0.66764  1.0000
  H   H14       1.0  0.19094  0.90605  0.33235  1.0000
  H   H15       1.0  0.09180  0.97475  0.69169  1.0000
  H   H16       1.0  0.90821  0.02522  0.30829  1.0000
  H   H17       1.0  0.32607  0.01434  0.54321  1.0000
  H   H18       1.0  0.67394  0.98564  0.45677  1.0000
  H   H19       1.0  0.26530  0.17045  0.37043  1.0000
  H   H20       1.0  0.73469  0.82956  0.62957  1.0000
  H   H21       1.0  0.38355  0.17957  0.73156  1.0000
  H   H22       1.0  0.61646  0.82043  0.26844  1.0000
  H   H23       1.0  0.12540  0.42369  0.48374  1.0000
  H   H24       1.0  0.87459  0.57630  0.51627  1.0000
  H   H25       1.0  0.11627  0.17523  0.85354  1.0000
  H   H26       1.0  0.88374  0.82476  0.14647  1.0000
  H   H27       1.0  0.86327  0.30657  0.78904  1.0000
  H   H28       1.0  0.13673  0.69341  0.21097  1.0000
  H   H29       1.0  0.26625  0.98724  0.01722  1.0000
  H   H30       1.0  0.73376  0.01276  0.98278  1.0000
  H   H31       1.0  0.74293  0.14844  0.09987  1.0000
  H   H32       1.0  0.25710  0.85155  0.90014  1.0000
  H   H33       1.0  0.56962  0.32696  0.15724  1.0000
  H   H34       1.0  0.43037  0.67306  0.84274  1.0000
  H   H35       1.0  0.21093  0.60820  0.98760  1.0000
  H   H36       1.0  0.78906  0.39183  0.01237  1.0000
  C   C1        1.0  0.75518  0.61179  0.11297  1.0000
  C   C2        1.0  0.24481  0.38821  0.88703  1.0000
  C   C3        1.0  0.62239  0.71300  0.07978  1.0000
  C   C4        1.0  0.37760  0.28701  0.92022  1.0000
  C   C5        1.0  0.46609  0.72322  0.14491  1.0000
  C   C6        1.0  0.53391  0.27678  0.85510  1.0000
  C   C7        1.0  0.44765  0.63273  0.23951  1.0000
  C   C8        1.0  0.55235  0.36726  0.76049  1.0000
  C   C9        1.0  0.58693  0.53387  0.26685  1.0000
  C   C10       1.0  0.41307  0.46613  0.73316  1.0000
  C   C11       1.0  0.57745  0.43407  0.36664  1.0000
  C   C12       1.0  0.42255  0.56592  0.63335  1.0000
  C   C13       1.0  0.43072  0.41657  0.42920  1.0000
  C   C14       1.0  0.56927  0.58343  0.57080  1.0000
  C   C15       1.0  0.43125  0.32148  0.52343  1.0000
  C   C16       1.0  0.56874  0.67852  0.47657  1.0000
  C   C17       1.0  0.58286  0.24543  0.54849  1.0000
  C   C18       1.0  0.41714  0.75457  0.45151  1.0000
  C   C19       1.0  0.72452  0.26840  0.48272  1.0000
  C   C20       1.0  0.27548  0.73160  0.51728  1.0000
  C   C21       1.0  0.88903  0.19293  0.50472  1.0000
  C   C22       1.0  0.11097  0.80707  0.49528  1.0000
  C   C23       1.0  0.91215  0.10847  0.60264  1.0000
  C   C24       1.0  0.08786  0.89152  0.39736  1.0000
  C   C25       1.0  0.07024  0.04250  0.61704  1.0000
  C   C26       1.0  0.92977  0.95748  0.38294  1.0000
  C   C27       1.0  0.20116  0.06322  0.53402  1.0000
  C   C28       1.0  0.79884  0.93678  0.46597  1.0000
  C   C29       1.0  0.16964  0.14788  0.43840  1.0000
  C   C30       1.0  0.83036  0.85212  0.56160  1.0000
  C   C31       1.0  0.27307  0.23164  0.70162  1.0000
  C   C32       1.0  0.72693  0.76836  0.29839  1.0000
  C   C33       1.0  0.27808  0.30570  0.59660  1.0000
  C   C34       1.0  0.72191  0.69429  0.40340  1.0000
  C   C35       1.0  0.12832  0.36935  0.56602  1.0000
  C   C36       1.0  0.87168  0.63064  0.43399  1.0000
  C   C37       1.0  0.12393  0.22939  0.77093  1.0000
  C   C38       1.0  0.87607  0.77060  0.22908  1.0000
  C   C39       1.0  0.98243  0.30178  0.73407  1.0000
  C   C40       1.0  0.01756  0.69820  0.26594  1.0000
  C   C41       1.0  0.01168  0.15568  0.13621  1.0000
  C   C42       1.0  0.98832  0.84434  0.86380  1.0000
  C   C43       1.0  0.00543  0.07465  0.06636  1.0000
  C   C44       1.0  0.99459  0.92535  0.93365  1.0000
  C   C45       1.0  0.15023  0.99077  0.00987  1.0000
  C   C46       1.0  0.84978  0.00923  0.99014  1.0000
  C   C47       1.0  0.85491  0.08324  0.05581  1.0000
  C   C48       1.0  0.14512  0.91676  0.94419  1.0000
  C   C49       1.0  0.24780  0.41729  0.16458  1.0000
  C   C50       1.0  0.75221  0.58274  0.83542  1.0000
  C   C51       1.0  0.37690  0.46334  0.08133  1.0000
  C   C52       1.0  0.62309  0.53669  0.91865  1.0000
  C   C53       1.0  0.54008  0.40232  0.08785  1.0000
  C   C54       1.0  0.45991  0.59771  0.91213  1.0000
  C   C55       1.0  0.33761  0.56178  0.99311  1.0000
  C   C56       1.0  0.66238  0.43825  0.00687  1.0000
  N   N1        1.0  0.73763  0.52551  0.20410  1.0000
  N   N2        1.0  0.26236  0.47449  0.79590  1.0000
  N   N3        1.0  0.71921  0.36166  0.39468  1.0000
  N   N4        1.0  0.28077  0.63834  0.60533  1.0000
  N   N5        1.0  0.01763  0.21015  0.42441  1.0000
  N   N6        1.0  0.98236  0.78986  0.57559  1.0000
  N   N7        1.0  0.98346  0.36887  0.63256  1.0000
  N   N8        1.0  0.01654  0.63111  0.36745  1.0000
  O   O1        1.0  0.14847  0.15159  0.14066  1.0000
  O   O2        1.0  0.85153  0.84843  0.85935  1.0000
  O   O3        1.0  0.87370  0.22578  0.18902  1.0000
  O   O4        1.0  0.12628  0.77421  0.81099  1.0000
  O   O5        1.0  0.10817  0.45974  0.14023  1.0000
  O   O6        1.0  0.89184  0.54025  0.85977  1.0000
  O   O7        1.0  0.27889  0.33970  0.24996  1.0000
  O   O8        1.0  0.72113  0.66035  0.75004  1.0000
