data_image0
_chemical_formula_structural       Bi4H52C40Br8O4
_chemical_formula_sum              "Bi4 H52 C40 Br8 O4"
_cell_length_a       8.11537
_cell_length_b       9.1029
_cell_length_c       17.0669
_cell_angle_alpha    89.9999
_cell_angle_beta     94.2861
_cell_angle_gamma    89.9999

_space_group_name_H-M_alt    "P 1"
_space_group_IT_number       1

loop_
  _space_group_symop_operation_xyz
  'x, y, z'

loop_
  _atom_site_type_symbol
  _atom_site_label
  _atom_site_symmetry_multiplicity
  _atom_site_fract_x
  _atom_site_fract_y
  _atom_site_fract_z
  _atom_site_occupancy
  Bi  Bi1       1.0  0.00182  0.19134  0.23643  1.0000
  Bi  Bi2       1.0  0.99818  0.69134  0.26357  1.0000
  Bi  Bi3       1.0  0.99818  0.80866  0.76357  1.0000
  Bi  Bi4       1.0  0.00182  0.30866  0.73643  1.0000
  H   H1        1.0  0.33720  0.38445  0.20565  1.0000
  H   H2        1.0  0.66280  0.88445  0.29435  1.0000
  H   H3        1.0  0.66280  0.61555  0.79435  1.0000
  H   H4        1.0  0.33720  0.11555  0.70565  1.0000
  H   H5        1.0  0.51588  0.56984  0.27662  1.0000
  H   H6        1.0  0.48412  0.06984  0.22338  1.0000
  H   H7        1.0  0.48412  0.43016  0.72339  1.0000
  H   H8        1.0  0.51588  0.93016  0.77662  1.0000
  H   H9        1.0  0.46267  0.64483  0.41205  1.0000
  H   H10       1.0  0.53732  0.14484  0.08795  1.0000
  H   H11       1.0  0.53732  0.35517  0.58795  1.0000
  H   H12       1.0  0.46268  0.85516  0.91205  1.0000
  H   H13       1.0  0.22852  0.53006  0.47810  1.0000
  H   H14       1.0  0.77148  0.03007  0.02190  1.0000
  H   H15       1.0  0.77147  0.46994  0.52190  1.0000
  H   H16       1.0  0.22853  0.96993  0.97810  1.0000
  H   H17       1.0  0.05083  0.34640  0.40835  1.0000
  H   H18       1.0  0.94917  0.84641  0.09165  1.0000
  H   H19       1.0  0.94916  0.65359  0.59165  1.0000
  H   H20       1.0  0.05084  0.15359  0.90835  1.0000
  H   H21       1.0  0.93203  0.00611  0.42678  1.0000
  H   H22       1.0  0.06797  0.50611  0.07322  1.0000
  H   H23       1.0  0.06797  0.99388  0.57322  1.0000
  H   H24       1.0  0.93203  0.49388  0.92678  1.0000
  H   H25       1.0  0.94161  0.18035  0.47612  1.0000
  H   H26       1.0  0.05839  0.68035  0.02388  1.0000
  H   H27       1.0  0.05839  0.81965  0.52388  1.0000
  H   H28       1.0  0.94161  0.31965  0.97612  1.0000
  H   H29       1.0  0.69652  0.11311  0.53063  1.0000
  H   H30       1.0  0.30348  0.61311  0.96937  1.0000
  H   H31       1.0  0.30348  0.88690  0.46937  1.0000
  H   H32       1.0  0.69652  0.38689  0.03063  1.0000
  H   H33       1.0  0.66012  0.96531  0.46423  1.0000
  H   H34       1.0  0.33988  0.46531  0.03577  1.0000
  H   H35       1.0  0.33988  0.03469  0.53577  1.0000
  H   H36       1.0  0.66012  0.53469  0.96423  1.0000
  H   H37       1.0  0.48878  0.10827  0.37882  1.0000
  H   H38       1.0  0.51122  0.60827  0.12117  1.0000
  H   H39       1.0  0.51122  0.89173  0.62117  1.0000
  H   H40       1.0  0.48878  0.39173  0.87882  1.0000
  H   H41       1.0  0.49674  0.24956  0.44990  1.0000
  H   H42       1.0  0.50326  0.74956  0.05010  1.0000
  H   H43       1.0  0.50326  0.75044  0.55010  1.0000
  H   H44       1.0  0.49674  0.25044  0.94990  1.0000
  H   H45       1.0  0.71895  0.37403  0.39189  1.0000
  H   H46       1.0  0.28105  0.87403  0.10811  1.0000
  H   H47       1.0  0.28105  0.62597  0.60811  1.0000
  H   H48       1.0  0.71895  0.12597  0.89189  1.0000
  H   H49       1.0  0.63259  0.28497  0.30538  1.0000
  H   H50       1.0  0.36741  0.78497  0.19462  1.0000
  H   H51       1.0  0.36741  0.71503  0.69462  1.0000
  H   H52       1.0  0.63259  0.21503  0.80538  1.0000
  C   C1        1.0  0.18180  0.35132  0.30197  1.0000
  C   C2        1.0  0.81820  0.85132  0.19804  1.0000
  C   C3        1.0  0.81820  0.64868  0.69804  1.0000
  C   C4        1.0  0.18180  0.14867  0.80196  1.0000
  C   C5        1.0  0.31313  0.41569  0.26548  1.0000
  C   C6        1.0  0.68686  0.91569  0.23452  1.0000
  C   C7        1.0  0.68687  0.58431  0.73452  1.0000
  C   C8        1.0  0.31313  0.08431  0.76548  1.0000
  C   C9        1.0  0.41293  0.52142  0.30509  1.0000
  C   C10       1.0  0.58707  0.02142  0.19491  1.0000
  C   C11       1.0  0.58707  0.47859  0.69491  1.0000
  C   C12       1.0  0.41293  0.97858  0.80509  1.0000
  C   C13       1.0  0.38319  0.56321  0.38158  1.0000
  C   C14       1.0  0.61680  0.06322  0.11842  1.0000
  C   C15       1.0  0.61680  0.43678  0.61842  1.0000
  C   C16       1.0  0.38320  0.93678  0.88158  1.0000
  C   C17       1.0  0.25328  0.49890  0.41842  1.0000
  C   C18       1.0  0.74672  0.99891  0.08158  1.0000
  C   C19       1.0  0.74672  0.50110  0.58158  1.0000
  C   C20       1.0  0.25329  0.00109  0.91842  1.0000
  C   C21       1.0  0.15285  0.39350  0.37883  1.0000
  C   C22       1.0  0.84715  0.89350  0.12117  1.0000
  C   C23       1.0  0.84715  0.60650  0.62117  1.0000
  C   C24       1.0  0.15285  0.10650  0.87883  1.0000
  C   C25       1.0  0.86404  0.10739  0.43716  1.0000
  C   C26       1.0  0.13596  0.60738  0.06284  1.0000
  C   C27       1.0  0.13596  0.89261  0.56284  1.0000
  C   C28       1.0  0.86404  0.39261  0.93716  1.0000
  C   C29       1.0  0.69416  0.08179  0.46854  1.0000
  C   C30       1.0  0.30584  0.58178  0.03146  1.0000
  C   C31       1.0  0.30584  0.91822  0.53146  1.0000
  C   C32       1.0  0.69416  0.41822  0.96854  1.0000
  C   C33       1.0  0.57317  0.17749  0.41599  1.0000
  C   C34       1.0  0.42683  0.67748  0.08401  1.0000
  C   C35       1.0  0.42683  0.82251  0.58401  1.0000
  C   C36       1.0  0.57317  0.32252  0.91599  1.0000
  C   C37       1.0  0.68433  0.26657  0.36566  1.0000
  C   C38       1.0  0.31567  0.76657  0.13433  1.0000
  C   C39       1.0  0.31567  0.73343  0.63433  1.0000
  C   C40       1.0  0.68433  0.23343  0.86566  1.0000
  Br  Br1       1.0  0.17231  0.19370  0.10470  1.0000
  Br  Br2       1.0  0.82769  0.69370  0.39530  1.0000
  Br  Br3       1.0  0.82769  0.80630  0.89530  1.0000
  Br  Br4       1.0  0.17231  0.30630  0.60470  1.0000
  Br  Br5       1.0  0.19389  0.95424  0.31122  1.0000
  Br  Br6       1.0  0.80611  0.45424  0.18878  1.0000
  Br  Br7       1.0  0.80611  0.04576  0.68878  1.0000
  Br  Br8       1.0  0.19389  0.54576  0.81122  1.0000
  O   O1        1.0  0.83175  0.17776  0.36111  1.0000
  O   O2        1.0  0.16825  0.67776  0.13889  1.0000
  O   O3        1.0  0.16825  0.82224  0.63889  1.0000
  O   O4        1.0  0.83175  0.32223  0.86111  1.0000
