data_image0
_chemical_formula_structural       Bi4H52C40I8O4
_chemical_formula_sum              "Bi4 H52 C40 I8 O4"
_cell_length_a       8.1991
_cell_length_b       9.47669
_cell_length_c       17.3453
_cell_angle_alpha    86.8503
_cell_angle_beta     83.2939
_cell_angle_gamma    88.4003

_space_group_name_H-M_alt    "P 1"
_space_group_IT_number       1

loop_
  _space_group_symop_operation_xyz
  'x, y, z'

loop_
  _atom_site_type_symbol
  _atom_site_label
  _atom_site_symmetry_multiplicity
  _atom_site_fract_x
  _atom_site_fract_y
  _atom_site_fract_z
  _atom_site_occupancy
  Bi  Bi1       1.0  0.05468  0.81071  0.23690  1.0000
  Bi  Bi2       1.0  0.94532  0.18928  0.76311  1.0000
  Bi  Bi3       1.0  0.05198  0.30371  0.26125  1.0000
  Bi  Bi4       1.0  0.94803  0.69628  0.73875  1.0000
  H   H1        1.0  0.11570  0.78377  0.48006  1.0000
  H   H2        1.0  0.88429  0.21622  0.51994  1.0000
  H   H3        1.0  0.10405  0.95830  0.43530  1.0000
  H   H4        1.0  0.89594  0.04170  0.56470  1.0000
  H   H5        1.0  0.38948  0.99743  0.44212  1.0000
  H   H6        1.0  0.61051  0.00257  0.55788  1.0000
  H   H7        1.0  0.35174  0.88392  0.52654  1.0000
  H   H8        1.0  0.64825  0.11608  0.47346  1.0000
  H   H9        1.0  0.49693  0.69148  0.46321  1.0000
  H   H10       1.0  0.50307  0.30852  0.53679  1.0000
  H   H11       1.0  0.57993  0.82267  0.39494  1.0000
  H   H12       1.0  0.42007  0.17733  0.60506  1.0000
  H   H13       1.0  0.42496  0.72855  0.30247  1.0000
  H   H14       1.0  0.57504  0.27145  0.69753  1.0000
  H   H15       1.0  0.32814  0.61022  0.37617  1.0000
  H   H16       1.0  0.67186  0.38978  0.62383  1.0000
  H   H17       1.0  0.94371  0.50972  0.10236  1.0000
  H   H18       1.0  0.05629  0.49028  0.89763  1.0000
  H   H19       1.0  0.97394  0.37857  0.03081  1.0000
  H   H20       1.0  0.02606  0.62143  0.96919  1.0000
  H   H21       1.0  0.71869  0.48789  0.99766  1.0000
  H   H22       1.0  0.28131  0.51212  0.00234  1.0000
  H   H23       1.0  0.64908  0.51896  0.09649  1.0000
  H   H24       1.0  0.35091  0.48104  0.90351  1.0000
  H   H25       1.0  0.51000  0.29796  0.07804  1.0000
  H   H26       1.0  0.49000  0.70204  0.92196  1.0000
  H   H27       1.0  0.68758  0.23301  0.02032  1.0000
  H   H28       1.0  0.31242  0.76699  0.97967  1.0000
  H   H29       1.0  0.73836  0.12375  0.14466  1.0000
  H   H30       1.0  0.26164  0.87625  0.85534  1.0000
  H   H31       1.0  0.63880  0.26633  0.19630  1.0000
  H   H32       1.0  0.36120  0.73367  0.80370  1.0000
  H   H33       1.0  0.72468  0.62946  0.20703  1.0000
  H   H34       1.0  0.27533  0.37055  0.79298  1.0000
  H   H35       1.0  0.54783  0.44617  0.27871  1.0000
  H   H36       1.0  0.45218  0.55384  0.72129  1.0000
  H   H37       1.0  0.59845  0.35793  0.41104  1.0000
  H   H38       1.0  0.40155  0.64207  0.58896  1.0000
  H   H39       1.0  0.82654  0.45868  0.47398  1.0000
  H   H40       1.0  0.17346  0.54131  0.52602  1.0000
  H   H41       1.0  0.00259  0.64094  0.40339  1.0000
  H   H42       1.0  0.99742  0.35905  0.59661  1.0000
  H   H43       1.0  0.10224  0.16886  0.09340  1.0000
  H   H44       1.0  0.89776  0.83114  0.90659  1.0000
  H   H45       1.0  0.27874  0.99395  0.02166  1.0000
  H   H46       1.0  0.72126  0.00606  0.97834  1.0000
  H   H47       1.0  0.50636  0.86803  0.08320  1.0000
  H   H48       1.0  0.49364  0.13197  0.91680  1.0000
  H   H49       1.0  0.55755  0.92377  0.21658  1.0000
  H   H50       1.0  0.44246  0.07623  0.78342  1.0000
  H   H51       1.0  0.38169  0.09999  0.28927  1.0000
  H   H52       1.0  0.61832  0.90000  0.71073  1.0000
  C   C1        1.0  0.18239  0.86327  0.44025  1.0000
  C   C2        1.0  0.81760  0.13673  0.55975  1.0000
  C   C3        1.0  0.35181  0.89067  0.46323  1.0000
  C   C4        1.0  0.64818  0.10933  0.53677  1.0000
  C   C5        1.0  0.46438  0.77740  0.42243  1.0000
  C   C6        1.0  0.53561  0.22260  0.57757  1.0000
  C   C7        1.0  0.36332  0.72090  0.36207  1.0000
  C   C8        1.0  0.63668  0.27909  0.63793  1.0000
  C   C9        1.0  0.89018  0.41783  0.07976  1.0000
  C   C10       1.0  0.10981  0.58217  0.92024  1.0000
  C   C11       1.0  0.71772  0.44452  0.05765  1.0000
  C   C12       1.0  0.28228  0.55549  0.94235  1.0000
  C   C13       1.0  0.64475  0.29683  0.07007  1.0000
  C   C14       1.0  0.35525  0.70317  0.92993  1.0000
  C   C15       1.0  0.71605  0.23842  0.14282  1.0000
  C   C16       1.0  0.28395  0.76158  0.85717  1.0000
  C   C17       1.0  0.74807  0.59211  0.26550  1.0000
  C   C18       1.0  0.25193  0.40789  0.73450  1.0000
  C   C19       1.0  0.64901  0.48789  0.30556  1.0000
  C   C20       1.0  0.35100  0.51211  0.69444  1.0000
  C   C21       1.0  0.67700  0.43889  0.38041  1.0000
  C   C22       1.0  0.32300  0.56111  0.61959  1.0000
  C   C23       1.0  0.80385  0.49501  0.41540  1.0000
  C   C24       1.0  0.19615  0.50498  0.58461  1.0000
  C   C25       1.0  0.90323  0.59926  0.37545  1.0000
  C   C26       1.0  0.09677  0.40073  0.62455  1.0000
  C   C27       1.0  0.87655  0.64831  0.30008  1.0000
  C   C28       1.0  0.12346  0.35169  0.69992  1.0000
  C   C29       1.0  0.20326  0.11756  0.12062  1.0000
  C   C30       1.0  0.79676  0.88244  0.87938  1.0000
  C   C31       1.0  0.30275  0.01741  0.08007  1.0000
  C   C32       1.0  0.69725  0.98259  0.91993  1.0000
  C   C33       1.0  0.42918  0.94657  0.11458  1.0000
  C   C34       1.0  0.57082  0.05343  0.88541  1.0000
  C   C35       1.0  0.45714  0.97721  0.18979  1.0000
  C   C36       1.0  0.54287  0.02279  0.81021  1.0000
  C   C37       1.0  0.35865  0.07772  0.23047  1.0000
  C   C38       1.0  0.64136  0.92227  0.76953  1.0000
  C   C39       1.0  0.23018  0.14805  0.19629  1.0000
  C   C40       1.0  0.76983  0.85195  0.80370  1.0000
  I   I1        1.0  0.88925  0.83159  0.09642  1.0000
  I   I2        1.0  0.11076  0.16841  0.90358  1.0000
  I   I3        1.0  0.22396  0.28899  0.40093  1.0000
  I   I4        1.0  0.77605  0.71102  0.59907  1.0000
  I   I5        1.0  0.83673  0.04199  0.32067  1.0000
  I   I6        1.0  0.16326  0.95802  0.67933  1.0000
  I   I7        1.0  0.26986  0.54659  0.17740  1.0000
  I   I8        1.0  0.73014  0.45342  0.82261  1.0000
  O   O1        1.0  0.21537  0.80963  0.36304  1.0000
  O   O2        1.0  0.78462  0.19037  0.63696  1.0000
  O   O3        1.0  0.87490  0.30583  0.14128  1.0000
  O   O4        1.0  0.12509  0.69417  0.85871  1.0000
