data_image0
_chemical_formula_structural       Zn2H40C52N12O20
_chemical_formula_sum              "Zn2 H40 C52 N12 O20"
_cell_length_a       9.49383
_cell_length_b       10.3289
_cell_length_c       14.2946
_cell_angle_alpha    109.379
_cell_angle_beta     94.6746
_cell_angle_gamma    103.972

_space_group_name_H-M_alt    "P 1"
_space_group_IT_number       1

loop_
  _space_group_symop_operation_xyz
  'x, y, z'

loop_
  _atom_site_type_symbol
  _atom_site_label
  _atom_site_symmetry_multiplicity
  _atom_site_fract_x
  _atom_site_fract_y
  _atom_site_fract_z
  _atom_site_occupancy
  Zn  Zn1       1.0  0.89550  0.14067  0.11284  1.0000
  Zn  Zn2       1.0  0.10450  0.85933  0.88716  1.0000
  H   H1        1.0  0.43138  0.50519  0.57260  1.0000
  H   H2        1.0  0.56862  0.49481  0.42740  1.0000
  H   H3        1.0  0.24489  0.44763  0.58385  1.0000
  H   H4        1.0  0.75511  0.55237  0.41615  1.0000
  H   H5        1.0  0.30080  0.70924  0.69270  1.0000
  H   H6        1.0  0.69920  0.29076  0.30730  1.0000
  H   H7        1.0  0.48660  0.75290  0.67449  1.0000
  H   H8        1.0  0.51340  0.24710  0.32551  1.0000
  H   H9        1.0  0.08577  0.59444  0.47341  1.0000
  H   H10       1.0  0.91424  0.40556  0.52659  1.0000
  H   H11       1.0  0.34014  0.76464  0.53047  1.0000
  H   H12       1.0  0.65987  0.23535  0.46952  1.0000
  H   H13       1.0  0.38894  0.68548  0.22185  1.0000
  H   H14       1.0  0.61106  0.31452  0.77815  1.0000
  H   H15       1.0  0.13196  0.51470  0.16404  1.0000
  H   H16       1.0  0.86804  0.48529  0.83596  1.0000
  H   H17       1.0  0.35341  0.37524  0.21065  1.0000
  H   H18       1.0  0.64659  0.62475  0.78935  1.0000
  H   H19       1.0  0.61115  0.53584  0.24589  1.0000
  H   H20       1.0  0.38885  0.46417  0.75411  1.0000
  H   H21       1.0  0.64317  0.35440  0.93443  1.0000
  H   H22       1.0  0.35683  0.64560  0.06557  1.0000
  H   H23       1.0  0.38172  0.19507  0.89803  1.0000
  H   H24       1.0  0.61828  0.80493  0.10197  1.0000
  H   H25       1.0  0.16782  0.27116  0.26147  1.0000
  H   H26       1.0  0.83218  0.72884  0.73854  1.0000
  H   H27       1.0  0.09987  0.19413  0.53536  1.0000
  H   H28       1.0  0.90013  0.80588  0.46464  1.0000
  H   H29       1.0  0.85154  0.02234  0.44017  1.0000
  H   H30       1.0  0.14846  0.97766  0.55983  1.0000
  H   H31       1.0  0.77529  0.99126  0.26159  1.0000
  H   H32       1.0  0.22471  0.00874  0.73840  1.0000
  H   H33       1.0  0.60018  0.99921  0.98464  1.0000
  H   H34       1.0  0.39982  0.00079  0.01536  1.0000
  H   H35       1.0  0.64057  0.98798  0.68366  1.0000
  H   H36       1.0  0.35943  0.01202  0.31634  1.0000
  H   H37       1.0  0.89329  0.16466  0.75819  1.0000
  H   H38       1.0  0.10671  0.83534  0.24181  1.0000
  H   H39       1.0  0.98201  0.24883  0.94158  1.0000
  H   H40       1.0  0.01799  0.75117  0.05842  1.0000
  C   C1        1.0  0.94139  0.43938  0.28079  1.0000
  C   C2        1.0  0.05861  0.56062  0.71921  1.0000
  C   C3        1.0  0.09324  0.54597  0.31522  1.0000
  C   C4        1.0  0.90676  0.45403  0.68478  1.0000
  C   C5        1.0  0.15163  0.61587  0.41844  1.0000
  C   C6        1.0  0.84838  0.38412  0.58155  1.0000
  C   C7        1.0  0.29333  0.70970  0.45083  1.0000
  C   C8        1.0  0.70667  0.29029  0.54916  1.0000
  C   C9        1.0  0.37570  0.73252  0.37821  1.0000
  C   C10       1.0  0.62430  0.26748  0.62179  1.0000
  C   C11       1.0  0.31990  0.66456  0.27516  1.0000
  C   C12       1.0  0.68010  0.33543  0.72484  1.0000
  C   C13       1.0  0.17822  0.57082  0.24382  1.0000
  C   C14       1.0  0.82178  0.42917  0.75618  1.0000
  C   C15       1.0  0.19324  0.18398  0.02898  1.0000
  C   C16       1.0  0.80676  0.81602  0.97102  1.0000
  C   C17       1.0  0.35042  0.27828  0.05148  1.0000
  C   C18       1.0  0.64958  0.72172  0.94852  1.0000
  C   C19       1.0  0.41578  0.37221  0.14988  1.0000
  C   C20       1.0  0.58422  0.62779  0.85012  1.0000
  C   C21       1.0  0.55918  0.46097  0.17036  1.0000
  C   C22       1.0  0.44082  0.53903  0.82964  1.0000
  C   C23       1.0  0.63713  0.45339  0.09112  1.0000
  C   C24       1.0  0.36286  0.54661  0.90888  1.0000
  C   C25       1.0  0.57661  0.35783  0.99308  1.0000
  C   C26       1.0  0.42338  0.64217  0.00692  1.0000
  C   C27       1.0  0.43263  0.27081  0.97355  1.0000
  C   C28       1.0  0.56737  0.72919  0.02645  1.0000
  C   C29       1.0  0.10125  0.21900  0.30428  1.0000
  C   C30       1.0  0.89876  0.78101  0.69572  1.0000
  C   C31       1.0  0.15365  0.24465  0.40467  1.0000
  C   C32       1.0  0.84635  0.75535  0.59533  1.0000
  C   C33       1.0  0.06323  0.17531  0.45642  1.0000
  C   C34       1.0  0.93677  0.82469  0.54359  1.0000
  C   C35       1.0  0.92639  0.08051  0.40436  1.0000
  C   C36       1.0  0.07361  0.91949  0.59564  1.0000
  C   C37       1.0  0.88204  0.06244  0.30433  1.0000
  C   C38       1.0  0.11796  0.93756  0.69567  1.0000
  C   C39       1.0  0.30363  0.34600  0.44905  1.0000
  C   C40       1.0  0.69637  0.65400  0.55096  1.0000
  C   C41       1.0  0.65979  0.03354  0.93132  1.0000
  C   C42       1.0  0.34021  0.96645  0.06868  1.0000
  C   C43       1.0  0.59777  0.98445  0.82961  1.0000
  C   C44       1.0  0.40223  0.01555  0.17039  1.0000
  C   C45       1.0  0.68356  0.02702  0.76412  1.0000
  C   C46       1.0  0.31643  0.97298  0.23588  1.0000
  C   C47       1.0  0.82325  0.12383  0.80470  1.0000
  C   C48       1.0  0.17675  0.87617  0.19530  1.0000
  C   C49       1.0  0.87541  0.17051  0.90768  1.0000
  C   C50       1.0  0.12460  0.82949  0.09232  1.0000
  C   C51       1.0  0.44079  0.89306  0.79857  1.0000
  C   C52       1.0  0.55921  0.10694  0.20143  1.0000
  N   N1        1.0  0.52550  0.82979  0.41035  1.0000
  N   N2        1.0  0.47450  0.17022  0.58965  1.0000
  N   N3        1.0  0.78544  0.55134  0.11054  1.0000
  N   N4        1.0  0.21455  0.44866  0.88946  1.0000
  N   N5        1.0  0.96715  0.13297  0.25567  1.0000
  N   N6        1.0  0.03286  0.86703  0.74433  1.0000
  N   N7        1.0  0.33042  0.42762  0.54681  1.0000
  N   N8        1.0  0.66958  0.57238  0.45319  1.0000
  N   N9        1.0  0.79666  0.12201  0.96964  1.0000
  N   N10       1.0  0.20334  0.87799  0.03036  1.0000
  N   N11       1.0  0.40433  0.78370  0.71037  1.0000
  N   N12       1.0  0.59567  0.21630  0.28963  1.0000
  O   O1        1.0  0.86085  0.43628  0.34736  1.0000
  O   O2        1.0  0.13916  0.56373  0.65265  1.0000
  O   O3        1.0  0.90621  0.35887  0.18829  1.0000
  O   O4        1.0  0.09378  0.64113  0.81172  1.0000
  O   O5        1.0  0.59463  0.85189  0.34419  1.0000
  O   O6        1.0  0.40538  0.14810  0.65580  1.0000
  O   O7        1.0  0.57742  0.88566  0.50204  1.0000
  O   O8        1.0  0.42257  0.11436  0.49796  1.0000
  O   O9        1.0  0.14830  0.08581  0.94278  1.0000
  O   O10       1.0  0.85170  0.91419  0.05722  1.0000
  O   O11       1.0  0.11772  0.21314  0.09878  1.0000
  O   O12       1.0  0.88228  0.78686  0.90123  1.0000
  O   O13       1.0  0.85605  0.53632  0.04013  1.0000
  O   O14       1.0  0.14394  0.46368  0.95987  1.0000
  O   O15       1.0  0.83195  0.64606  0.19570  1.0000
  O   O16       1.0  0.16805  0.35394  0.80430  1.0000
  O   O17       1.0  0.39897  0.35232  0.39301  1.0000
  O   O18       1.0  0.60103  0.64768  0.60700  1.0000
  O   O19       1.0  0.35144  0.92539  0.85617  1.0000
  O   O20       1.0  0.64856  0.07461  0.14383  1.0000
