data_image0
_chemical_formula_structural       Cu2H24C32N12O4
_chemical_formula_sum              "Cu2 H24 C32 N12 O4"
_cell_length_a       7.45135
_cell_length_b       10.7744
_cell_length_c       11.6373
_cell_angle_alpha    64.4947
_cell_angle_beta     76.5609
_cell_angle_gamma    88.917

_space_group_name_H-M_alt    "P 1"
_space_group_IT_number       1

loop_
  _space_group_symop_operation_xyz
  'x, y, z'

loop_
  _atom_site_type_symbol
  _atom_site_label
  _atom_site_symmetry_multiplicity
  _atom_site_fract_x
  _atom_site_fract_y
  _atom_site_fract_z
  _atom_site_occupancy
  Cu  Cu1       1.0  0.04113  0.89805  0.79951  1.0000
  Cu  Cu2       1.0  0.95887  0.10195  0.20049  1.0000
  H   H1        1.0  0.20045  0.16735  0.39364  1.0000
  H   H2        1.0  0.79955  0.83265  0.60636  1.0000
  H   H3        1.0  0.26917  0.68668  0.77695  1.0000
  H   H4        1.0  0.73083  0.31331  0.22305  1.0000
  H   H5        1.0  0.43541  0.62294  0.59978  1.0000
  H   H6        1.0  0.56459  0.37706  0.40022  1.0000
  H   H7        1.0  0.45835  0.79276  0.36401  1.0000
  H   H8        1.0  0.54165  0.20724  0.63599  1.0000
  H   H9        1.0  0.33513  0.02403  0.31776  1.0000
  H   H10       1.0  0.66487  0.97596  0.68224  1.0000
  H   H11       1.0  0.20385  0.37275  0.40223  1.0000
  H   H12       1.0  0.79614  0.62725  0.59777  1.0000
  H   H13       1.0  0.16841  0.50274  0.53693  1.0000
  H   H14       1.0  0.83159  0.49726  0.46307  1.0000
  H   H15       1.0  0.09004  0.36840  0.78608  1.0000
  H   H16       1.0  0.90997  0.63160  0.21391  1.0000
  H   H17       1.0  0.04630  0.11138  0.88298  1.0000
  H   H18       1.0  0.95371  0.88862  0.11702  1.0000
  H   H19       1.0  0.65317  0.49038  0.02290  1.0000
  H   H20       1.0  0.34683  0.50962  0.97710  1.0000
  H   H21       1.0  0.87209  0.44110  0.96717  1.0000
  H   H22       1.0  0.12791  0.55890  0.03284  1.0000
  H   H23       1.0  0.69603  0.46824  0.87678  1.0000
  H   H24       1.0  0.30397  0.53176  0.12322  1.0000
  C   C1        1.0  0.28783  0.75701  0.67352  1.0000
  C   C2        1.0  0.71217  0.24299  0.32649  1.0000
  C   C3        1.0  0.37759  0.72220  0.57492  1.0000
  C   C4        1.0  0.62241  0.27780  0.42508  1.0000
  C   C5        1.0  0.39195  0.81806  0.44404  1.0000
  C   C6        1.0  0.60805  0.18193  0.55597  1.0000
  C   C7        1.0  0.32303  0.94484  0.41761  1.0000
  C   C8        1.0  0.67697  0.05516  0.58239  1.0000
  C   C9        1.0  0.23656  0.97451  0.52347  1.0000
  C   C10       1.0  0.76344  0.02549  0.47653  1.0000
  C   C11       1.0  0.14556  0.17341  0.57157  1.0000
  C   C12       1.0  0.85443  0.82659  0.42842  1.0000
  C   C13       1.0  0.16508  0.31916  0.50915  1.0000
  C   C14       1.0  0.83492  0.68084  0.49084  1.0000
  C   C15       1.0  0.14625  0.39038  0.58510  1.0000
  C   C16       1.0  0.85375  0.60962  0.41490  1.0000
  C   C17       1.0  0.10433  0.31678  0.72243  1.0000
  C   C18       1.0  0.89567  0.68323  0.27757  1.0000
  C   C19       1.0  0.08176  0.17418  0.77714  1.0000
  C   C20       1.0  0.91824  0.82582  0.22286  1.0000
  C   C21       1.0  0.66302  0.86618  0.97629  1.0000
  C   C22       1.0  0.33698  0.13382  0.02371  1.0000
  C   C23       1.0  0.48624  0.80332  0.04820  1.0000
  C   C24       1.0  0.51376  0.19668  0.95180  1.0000
  C   C25       1.0  0.34168  0.83782  0.98465  1.0000
  C   C26       1.0  0.65833  0.16218  0.01535  1.0000
  C   C27       1.0  0.45592  0.70016  0.17842  1.0000
  C   C28       1.0  0.54408  0.29985  0.82157  1.0000
  C   C29       1.0  0.82569  0.65514  0.85529  1.0000
  C   C30       1.0  0.17431  0.34486  0.14472  1.0000
  C   C31       1.0  0.75999  0.50351  0.93446  1.0000
  C   C32       1.0  0.24001  0.49649  0.06554  1.0000
  N   N1        1.0  0.21399  0.87906  0.64914  1.0000
  N   N2        1.0  0.78601  0.12094  0.35086  1.0000
  N   N3        1.0  0.17773  0.10413  0.49416  1.0000
  N   N4        1.0  0.82226  0.89587  0.50585  1.0000
  N   N5        1.0  0.10077  0.10357  0.70367  1.0000
  N   N6        1.0  0.89923  0.89643  0.29633  1.0000
  N   N7        1.0  0.81135  0.92154  0.91436  1.0000
  N   N8        1.0  0.18865  0.07846  0.08564  1.0000
  N   N9        1.0  0.22279  0.86851  0.92993  1.0000
  N   N10       1.0  0.77721  0.13148  0.07007  1.0000
  N   N11       1.0  0.43100  0.61317  0.28649  1.0000
  N   N12       1.0  0.56899  0.38684  0.71351  1.0000
  O   O1        1.0  0.96011  0.69742  0.88648  1.0000
  O   O2        1.0  0.03989  0.30258  0.11353  1.0000
  O   O3        1.0  0.74721  0.73105  0.76803  1.0000
  O   O4        1.0  0.25280  0.26896  0.23197  1.0000
