data_image0
_chemical_formula_structural       Ni2H36C52N8O8
_chemical_formula_sum              "Ni2 H36 C52 N8 O8"
_cell_length_a       8.98874
_cell_length_b       11.5335
_cell_length_c       11.7174
_cell_angle_alpha    98.5251
_cell_angle_beta     99.8881
_cell_angle_gamma    103.199

_space_group_name_H-M_alt    "P 1"
_space_group_IT_number       1

loop_
  _space_group_symop_operation_xyz
  'x, y, z'

loop_
  _atom_site_type_symbol
  _atom_site_label
  _atom_site_symmetry_multiplicity
  _atom_site_fract_x
  _atom_site_fract_y
  _atom_site_fract_z
  _atom_site_occupancy
  Ni  Ni1       1.0  0.89677  0.90153  0.10718  1.0000
  Ni  Ni2       1.0  0.10323  0.09847  0.89282  1.0000
  H   H1        1.0  0.02979  0.04033  0.35282  1.0000
  H   H2        1.0  0.97020  0.95966  0.64717  1.0000
  H   H3        1.0  0.20963  0.02522  0.53343  1.0000
  H   H4        1.0  0.79036  0.97477  0.46657  1.0000
  H   H5        1.0  0.28440  0.70660  0.32907  1.0000
  H   H6        1.0  0.71560  0.29340  0.67093  1.0000
  H   H7        1.0  0.10000  0.73683  0.15781  1.0000
  H   H8        1.0  0.90000  0.26317  0.84219  1.0000
  H   H9        1.0  0.42003  0.76808  0.53267  1.0000
  H   H10       1.0  0.57996  0.23191  0.46733  1.0000
  H   H11       1.0  0.37482  0.00526  0.66687  1.0000
  H   H12       1.0  0.62519  0.99474  0.33312  1.0000
  H   H13       1.0  0.51519  0.08415  0.85592  1.0000
  H   H14       1.0  0.48481  0.91585  0.14408  1.0000
  H   H15       1.0  0.69182  0.06864  0.03815  1.0000
  H   H16       1.0  0.30818  0.93136  0.96185  1.0000
  H   H17       1.0  0.73779  0.73702  0.88190  1.0000
  H   H18       1.0  0.26221  0.26298  0.11810  1.0000
  H   H19       1.0  0.56289  0.73619  0.69377  1.0000
  H   H20       1.0  0.43711  0.26381  0.30622  1.0000
  H   H21       1.0  0.12043  0.64999  0.99196  1.0000
  H   H22       1.0  0.87956  0.35001  0.00803  1.0000
  H   H23       1.0  0.15311  0.45338  0.88854  1.0000
  H   H24       1.0  0.84689  0.54662  0.11146  1.0000
  H   H25       1.0  0.09384  0.40389  0.66883  1.0000
  H   H26       1.0  0.90617  0.59611  0.33117  1.0000
  H   H27       1.0  0.00133  0.75212  0.65603  1.0000
  H   H28       1.0  0.99867  0.24787  0.34397  1.0000
  H   H29       1.0  0.43133  0.59882  0.04267  1.0000
  H   H30       1.0  0.56868  0.40118  0.95734  1.0000
  H   H31       1.0  0.23147  0.45043  0.10779  1.0000
  H   H32       1.0  0.76853  0.54957  0.89221  1.0000
  H   H33       1.0  0.27573  0.42285  0.31794  1.0000
  H   H34       1.0  0.72427  0.57715  0.68207  1.0000
  H   H35       1.0  0.69920  0.71164  0.40174  1.0000
  H   H36       1.0  0.30081  0.28836  0.59827  1.0000
  C   C1        1.0  0.08978  0.96829  0.35239  1.0000
  C   C2        1.0  0.91022  0.03171  0.64760  1.0000
  C   C3        1.0  0.19077  0.95906  0.45215  1.0000
  C   C4        1.0  0.80922  0.04093  0.54785  1.0000
  C   C5        1.0  0.26624  0.86426  0.44733  1.0000
  C   C6        1.0  0.73375  0.13573  0.55267  1.0000
  C   C7        1.0  0.23171  0.78272  0.33873  1.0000
  C   C8        1.0  0.76828  0.21727  0.66126  1.0000
  C   C9        1.0  0.12903  0.79842  0.24291  1.0000
  C   C10       1.0  0.87096  0.20158  0.75709  1.0000
  C   C11       1.0  0.37453  0.84804  0.54757  1.0000
  C   C12       1.0  0.62547  0.15196  0.45243  1.0000
  C   C13       1.0  0.42011  0.92518  0.65334  1.0000
  C   C14       1.0  0.57989  0.07482  0.34665  1.0000
  C   C15       1.0  0.52583  0.91345  0.75705  1.0000
  C   C16       1.0  0.47417  0.08655  0.24295  1.0000
  C   C17       1.0  0.56535  0.00677  0.85745  1.0000
  C   C18       1.0  0.43465  0.99323  0.14255  1.0000
  C   C19       1.0  0.66431  0.99874  0.95890  1.0000
  C   C20       1.0  0.33569  0.00126  0.04110  1.0000
  C   C21       1.0  0.68825  0.81329  0.87113  1.0000
  C   C22       1.0  0.31175  0.18671  0.12887  1.0000
  C   C23       1.0  0.58964  0.81362  0.76658  1.0000
  C   C24       1.0  0.41036  0.18638  0.23342  1.0000
  C   C25       1.0  0.03838  0.83054  0.89426  1.0000
  C   C26       1.0  0.96161  0.16946  0.10574  1.0000
  C   C27       1.0  0.05877  0.71367  0.83129  1.0000
  C   C28       1.0  0.94123  0.28633  0.16871  1.0000
  C   C29       1.0  0.10067  0.62867  0.89597  1.0000
  C   C30       1.0  0.89933  0.37133  0.10403  1.0000
  C   C31       1.0  0.11704  0.51858  0.83846  1.0000
  C   C32       1.0  0.88296  0.48142  0.16154  1.0000
  C   C33       1.0  0.08608  0.49040  0.71572  1.0000
  C   C34       1.0  0.91392  0.50961  0.28428  1.0000
  C   C35       1.0  0.04232  0.57451  0.64998  1.0000
  C   C36       1.0  0.95768  0.42549  0.35002  1.0000
  C   C37       1.0  0.03294  0.68710  0.70801  1.0000
  C   C38       1.0  0.96706  0.31290  0.29198  1.0000
  C   C39       1.0  0.69582  0.75569  0.17844  1.0000
  C   C40       1.0  0.30418  0.24431  0.82157  1.0000
  C   C41       1.0  0.57708  0.66561  0.21767  1.0000
  C   C42       1.0  0.42293  0.33440  0.78234  1.0000
  C   C43       1.0  0.44638  0.59030  0.13518  1.0000
  C   C44       1.0  0.55363  0.40970  0.86483  1.0000
  C   C45       1.0  0.33565  0.50563  0.17173  1.0000
  C   C46       1.0  0.66435  0.49437  0.82828  1.0000
  C   C47       1.0  0.35961  0.48968  0.28840  1.0000
  C   C48       1.0  0.64039  0.51033  0.71160  1.0000
  C   C49       1.0  0.49381  0.56231  0.37021  1.0000
  C   C50       1.0  0.50619  0.43769  0.62980  1.0000
  C   C51       1.0  0.59840  0.65393  0.33599  1.0000
  C   C52       1.0  0.40161  0.34607  0.66402  1.0000
  N   N1        1.0  0.05885  0.88970  0.24843  1.0000
  N   N2        1.0  0.94115  0.11030  0.75157  1.0000
  N   N3        1.0  0.72817  0.90479  0.96631  1.0000
  N   N4        1.0  0.27182  0.09521  0.03369  1.0000
  N   N5        1.0  0.00344  0.55339  0.52515  1.0000
  N   N6        1.0  0.99656  0.44661  0.47485  1.0000
  N   N7        1.0  0.53097  0.55146  0.48994  1.0000
  N   N8        1.0  0.46903  0.44854  0.51006  1.0000
  O   O1        1.0  0.72739  0.86816  0.22450  1.0000
  O   O2        1.0  0.27261  0.13185  0.77551  1.0000
  O   O3        1.0  0.76311  0.71706  0.09893  1.0000
  O   O4        1.0  0.23689  0.28294  0.90108  1.0000
  O   O5        1.0  0.02451  0.83386  0.00075  1.0000
  O   O6        1.0  0.97549  0.16614  0.99925  1.0000
  O   O7        1.0  0.03832  0.91581  0.83666  1.0000
  O   O8        1.0  0.96168  0.08418  0.16334  1.0000
