data_image0
_chemical_formula_structural       Ag4H12C24N4O8
_chemical_formula_sum              "Ag4 H12 C24 N4 O8"
_cell_length_a       6.63355
_cell_length_b       9.06029
_cell_length_c       9.06026
_cell_angle_alpha    83.9378
_cell_angle_beta     90.0946
_cell_angle_gamma    90.0942

_space_group_name_H-M_alt    "P 1"
_space_group_IT_number       1

loop_
  _space_group_symop_operation_xyz
  'x, y, z'

loop_
  _atom_site_type_symbol
  _atom_site_label
  _atom_site_symmetry_multiplicity
  _atom_site_fract_x
  _atom_site_fract_y
  _atom_site_fract_z
  _atom_site_occupancy
  Ag  Ag1       1.0  0.25001  0.04713  0.95287  1.0000
  Ag  Ag2       1.0  0.74999  0.95287  0.04713  1.0000
  Ag  Ag3       1.0  0.75000  0.63677  0.36323  1.0000
  Ag  Ag4       1.0  0.25000  0.36323  0.63677  1.0000
  H   H1        1.0  0.25027  0.51187  0.96313  1.0000
  H   H2        1.0  0.24973  0.03687  0.48814  1.0000
  H   H3        1.0  0.74972  0.48814  0.03687  1.0000
  H   H4        1.0  0.75028  0.96312  0.51186  1.0000
  H   H5        1.0  0.41034  0.27056  0.06778  1.0000
  H   H6        1.0  0.08966  0.93221  0.72945  1.0000
  H   H7        1.0  0.58965  0.72944  0.93221  1.0000
  H   H8        1.0  0.91035  0.06778  0.27056  1.0000
  H   H9        1.0  0.43389  0.21775  0.34258  1.0000
  H   H10       1.0  0.06612  0.65742  0.78226  1.0000
  H   H11       1.0  0.56612  0.78226  0.65741  1.0000
  H   H12       1.0  0.93389  0.34258  0.21774  1.0000
  C   C1        1.0  0.26312  0.56021  0.32995  1.0000
  C   C2        1.0  0.23687  0.67005  0.43979  1.0000
  C   C3        1.0  0.73688  0.43979  0.67004  1.0000
  C   C4        1.0  0.76313  0.32995  0.56021  1.0000
  C   C5        1.0  0.21908  0.59135  0.17745  1.0000
  C   C6        1.0  0.28092  0.82256  0.40865  1.0000
  C   C7        1.0  0.78093  0.40865  0.82256  1.0000
  C   C8        1.0  0.71908  0.17744  0.59135  1.0000
  C   C9        1.0  0.27512  0.48659  0.08202  1.0000
  C   C10       1.0  0.22488  0.91798  0.51341  1.0000
  C   C11       1.0  0.72488  0.51341  0.91798  1.0000
  C   C12       1.0  0.77512  0.08202  0.48659  1.0000
  C   C13       1.0  0.36030  0.35279  0.13909  1.0000
  C   C14       1.0  0.13970  0.86090  0.64721  1.0000
  C   C15       1.0  0.63970  0.64721  0.86090  1.0000
  C   C16       1.0  0.86030  0.13910  0.35279  1.0000
  C   C17       1.0  0.37903  0.32464  0.29270  1.0000
  C   C18       1.0  0.12097  0.70730  0.67536  1.0000
  C   C19       1.0  0.62097  0.67536  0.70730  1.0000
  C   C20       1.0  0.87904  0.29270  0.32464  1.0000
  C   C21       1.0  0.10926  0.72767  0.11027  1.0000
  C   C22       1.0  0.39073  0.88973  0.27233  1.0000
  C   C23       1.0  0.89074  0.27233  0.88973  1.0000
  C   C24       1.0  0.60926  0.11027  0.72767  1.0000
  N   N1        1.0  0.33376  0.42571  0.38530  1.0000
  N   N2        1.0  0.16624  0.61470  0.57429  1.0000
  N   N3        1.0  0.66625  0.57429  0.61469  1.0000
  N   N4        1.0  0.83376  0.38530  0.42571  1.0000
  O   O1        1.0  0.95306  0.76837  0.17836  1.0000
  O   O2        1.0  0.54694  0.82165  0.23163  1.0000
  O   O3        1.0  0.04694  0.23163  0.82165  1.0000
  O   O4        1.0  0.45306  0.17836  0.76836  1.0000
  O   O5        1.0  0.17543  0.78932  0.98866  1.0000
  O   O6        1.0  0.32456  0.01134  0.21069  1.0000
  O   O7        1.0  0.82456  0.21069  0.01134  1.0000
  O   O8        1.0  0.67543  0.98866  0.78931  1.0000
