data_image0
_chemical_formula_structural       Tb4H24C24N36
_chemical_formula_sum              "Tb4 H24 C24 N36"
_cell_length_a       9.33954
_cell_length_b       9.33953
_cell_length_c       12.6597
_cell_angle_alpha    91.6602
_cell_angle_beta     91.6602
_cell_angle_gamma    119.556

_space_group_name_H-M_alt    "P 1"
_space_group_IT_number       1

loop_
  _space_group_symop_operation_xyz
  'x, y, z'

loop_
  _atom_site_type_symbol
  _atom_site_label
  _atom_site_symmetry_multiplicity
  _atom_site_fract_x
  _atom_site_fract_y
  _atom_site_fract_z
  _atom_site_occupancy
  Tb  Tb1       1.0  0.51929  0.25727  0.42778  1.0000
  Tb  Tb2       1.0  0.74273  0.48071  0.07222  1.0000
  Tb  Tb3       1.0  0.48071  0.74273  0.57222  1.0000
  Tb  Tb4       1.0  0.25727  0.51929  0.92778  1.0000
  H   H1        1.0  0.22009  0.29224  0.23535  1.0000
  H   H2        1.0  0.70776  0.77991  0.26466  1.0000
  H   H3        1.0  0.77991  0.70776  0.76466  1.0000
  H   H4        1.0  0.29224  0.22009  0.73534  1.0000
  H   H5        1.0  0.13277  0.53543  0.27228  1.0000
  H   H6        1.0  0.46457  0.86723  0.22772  1.0000
  H   H7        1.0  0.86723  0.46457  0.72772  1.0000
  H   H8        1.0  0.53543  0.13277  0.77228  1.0000
  H   H9        1.0  0.90053  0.25507  0.33552  1.0000
  H   H10       1.0  0.74494  0.09947  0.16448  1.0000
  H   H11       1.0  0.09947  0.74494  0.66448  1.0000
  H   H12       1.0  0.25506  0.90053  0.83552  1.0000
  H   H13       1.0  0.97287  0.01277  0.39991  1.0000
  H   H14       1.0  0.98723  0.02713  0.10009  1.0000
  H   H15       1.0  0.02713  0.98723  0.60009  1.0000
  H   H16       1.0  0.01277  0.97287  0.89991  1.0000
  H   H17       1.0  0.15935  0.88545  0.15966  1.0000
  H   H18       1.0  0.11455  0.84065  0.34034  1.0000
  H   H19       1.0  0.84065  0.11455  0.84034  1.0000
  H   H20       1.0  0.88545  0.15935  0.65966  1.0000
  H   H21       1.0  0.36552  0.07632  0.00399  1.0000
  H   H22       1.0  0.92368  0.63448  0.49601  1.0000
  H   H23       1.0  0.63448  0.92367  0.99601  1.0000
  H   H24       1.0  0.07632  0.36552  0.50399  1.0000
  C   C1        1.0  0.26269  0.38931  0.29697  1.0000
  C   C2        1.0  0.61069  0.73731  0.20303  1.0000
  C   C3        1.0  0.73731  0.61069  0.70303  1.0000
  C   C4        1.0  0.38931  0.26269  0.79697  1.0000
  C   C5        1.0  0.21873  0.50991  0.31568  1.0000
  C   C6        1.0  0.49009  0.78127  0.18432  1.0000
  C   C7        1.0  0.78127  0.49009  0.68432  1.0000
  C   C8        1.0  0.50991  0.21873  0.81568  1.0000
  C   C9        1.0  0.83081  0.14800  0.38123  1.0000
  C   C10       1.0  0.85200  0.16919  0.11877  1.0000
  C   C11       1.0  0.16919  0.85200  0.61877  1.0000
  C   C12       1.0  0.14800  0.83081  0.88123  1.0000
  C   C13       1.0  0.86659  0.02734  0.41341  1.0000
  C   C14       1.0  0.97266  0.13342  0.08659  1.0000
  C   C15       1.0  0.13342  0.97266  0.58659  1.0000
  C   C16       1.0  0.02734  0.86659  0.91341  1.0000
  C   C17       1.0  0.27655  0.99922  0.16694  1.0000
  C   C18       1.0  0.00078  0.72345  0.33306  1.0000
  C   C19       1.0  0.72345  0.00078  0.83306  1.0000
  C   C20       1.0  0.99922  0.27655  0.66694  1.0000
  C   C21       1.0  0.37936  0.09328  0.08928  1.0000
  C   C22       1.0  0.90672  0.62064  0.41072  1.0000
  C   C23       1.0  0.62064  0.90672  0.91072  1.0000
  C   C24       1.0  0.09328  0.37936  0.58928  1.0000
  N   N1        1.0  0.37896  0.41163  0.37236  1.0000
  N   N2        1.0  0.58837  0.62104  0.12764  1.0000
  N   N3        1.0  0.62104  0.58837  0.62764  1.0000
  N   N4        1.0  0.41163  0.37896  0.87236  1.0000
  N   N5        1.0  0.40534  0.54183  0.43362  1.0000
  N   N6        1.0  0.45817  0.59466  0.06638  1.0000
  N   N7        1.0  0.59466  0.45817  0.56638  1.0000
  N   N8        1.0  0.54183  0.40534  0.93362  1.0000
  N   N9        1.0  0.31031  0.60329  0.40173  1.0000
  N   N10       1.0  0.39671  0.68969  0.09827  1.0000
  N   N11       1.0  0.68969  0.39671  0.59827  1.0000
  N   N12       1.0  0.60329  0.31031  0.90173  1.0000
  N   N13       1.0  0.68355  0.11326  0.41925  1.0000
  N   N14       1.0  0.88674  0.31645  0.08075  1.0000
  N   N15       1.0  0.31645  0.88674  0.58075  1.0000
  N   N16       1.0  0.11326  0.68355  0.91925  1.0000
  N   N17       1.0  0.63210  0.97644  0.47247  1.0000
  N   N18       1.0  0.02357  0.36790  0.02753  1.0000
  N   N19       1.0  0.36790  0.02357  0.52753  1.0000
  N   N20       1.0  0.97643  0.63210  0.97247  1.0000
  N   N21       1.0  0.73981  0.92192  0.47055  1.0000
  N   N22       1.0  0.07808  0.26019  0.02945  1.0000
  N   N23       1.0  0.26019  0.07808  0.52945  1.0000
  N   N24       1.0  0.92192  0.73980  0.97055  1.0000
  N   N25       1.0  0.35160  0.07365  0.26187  1.0000
  N   N26       1.0  0.92635  0.64840  0.23813  1.0000
  N   N27       1.0  0.64840  0.92635  0.73813  1.0000
  N   N28       1.0  0.07365  0.35160  0.76187  1.0000
  N   N29       1.0  0.49383  0.20683  0.24213  1.0000
  N   N30       1.0  0.79317  0.50617  0.25787  1.0000
  N   N31       1.0  0.50617  0.79317  0.75787  1.0000
  N   N32       1.0  0.20683  0.49383  0.74213  1.0000
  N   N33       1.0  0.51389  0.22259  0.13832  1.0000
  N   N34       1.0  0.77741  0.48611  0.36168  1.0000
  N   N35       1.0  0.48611  0.77741  0.86168  1.0000
  N   N36       1.0  0.22259  0.51389  0.63832  1.0000
