data_image0
_chemical_formula_structural       Tb2H12C12N18
_chemical_formula_sum              "Tb2 H12 C12 N18"
_cell_length_a       8.53405
_cell_length_b       8.53407
_cell_length_c       9.31264
_cell_angle_alpha    62.7261
_cell_angle_beta     62.7252
_cell_angle_gamma    59.9964

_space_group_name_H-M_alt    "P 1"
_space_group_IT_number       1

loop_
  _space_group_symop_operation_xyz
  'x, y, z'

loop_
  _atom_site_type_symbol
  _atom_site_label
  _atom_site_symmetry_multiplicity
  _atom_site_fract_x
  _atom_site_fract_y
  _atom_site_fract_z
  _atom_site_occupancy
  Tb  Tb1       1.0  0.80743  0.80746  0.57767  1.0000
  Tb  Tb2       1.0  0.19257  0.19253  0.42233  1.0000
  H   H1        1.0  0.51571  0.14737  0.96535  1.0000
  H   H2        1.0  0.14752  0.37156  0.96522  1.0000
  H   H3        1.0  0.37159  0.51567  0.96538  1.0000
  H   H4        1.0  0.48428  0.85263  0.03465  1.0000
  H   H5        1.0  0.85248  0.62844  0.03478  1.0000
  H   H6        1.0  0.62841  0.48432  0.03462  1.0000
  H   H7        1.0  0.77905  0.32533  0.79296  1.0000
  H   H8        1.0  0.32544  0.10270  0.79277  1.0000
  H   H9        1.0  0.10262  0.77906  0.79305  1.0000
  H   H10       1.0  0.22095  0.67467  0.20704  1.0000
  H   H11       1.0  0.67456  0.89730  0.20722  1.0000
  H   H12       1.0  0.89738  0.22095  0.20695  1.0000
  C   C1        1.0  0.63850  0.12936  0.85487  1.0000
  C   C2        1.0  0.12950  0.37735  0.85473  1.0000
  C   C3        1.0  0.37731  0.63844  0.85488  1.0000
  C   C4        1.0  0.36150  0.87064  0.14513  1.0000
  C   C5        1.0  0.87050  0.62265  0.14527  1.0000
  C   C6        1.0  0.62269  0.36156  0.14512  1.0000
  C   C7        1.0  0.76977  0.21755  0.76972  1.0000
  C   C8        1.0  0.21771  0.24306  0.76955  1.0000
  C   C9        1.0  0.24295  0.76973  0.76977  1.0000
  C   C10       1.0  0.23023  0.78245  0.23029  1.0000
  C   C11       1.0  0.78229  0.75694  0.23045  1.0000
  C   C12       1.0  0.75704  0.23027  0.23023  1.0000
  N   N1        1.0  0.84520  0.01891  0.64534  1.0000
  N   N2        1.0  0.01890  0.49059  0.64531  1.0000
  N   N3        1.0  0.49053  0.84520  0.64538  1.0000
  N   N4        1.0  0.15480  0.98109  0.35466  1.0000
  N   N5        1.0  0.98110  0.50941  0.35469  1.0000
  N   N6        1.0  0.50947  0.15480  0.35462  1.0000
  N   N7        1.0  0.89719  0.14628  0.63913  1.0000
  N   N8        1.0  0.14632  0.31747  0.63905  1.0000
  N   N9        1.0  0.31737  0.89718  0.63920  1.0000
  N   N10       1.0  0.10281  0.85372  0.36087  1.0000
  N   N11       1.0  0.85368  0.68253  0.36095  1.0000
  N   N12       1.0  0.68262  0.10282  0.36080  1.0000
  N   N13       1.0  0.68953  0.00574  0.77418  1.0000
  N   N14       1.0  0.00577  0.53062  0.77411  1.0000
  N   N15       1.0  0.53058  0.68951  0.77419  1.0000
  N   N16       1.0  0.31047  0.99427  0.22582  1.0000
  N   N17       1.0  0.99423  0.46938  0.22590  1.0000
  N   N18       1.0  0.46942  0.31049  0.22581  1.0000
