data_image0
_chemical_formula_structural       Ba2H24C16S4N8O14
_chemical_formula_sum              "Ba2 H24 C16 S4 N8 O14"
_cell_length_a       9.08904
_cell_length_b       9.24405
_cell_length_c       10.1859
_cell_angle_alpha    105.476
_cell_angle_beta     97.8806
_cell_angle_gamma    104.258

_space_group_name_H-M_alt    "P 1"
_space_group_IT_number       1

loop_
  _space_group_symop_operation_xyz
  'x, y, z'

loop_
  _atom_site_type_symbol
  _atom_site_label
  _atom_site_symmetry_multiplicity
  _atom_site_fract_x
  _atom_site_fract_y
  _atom_site_fract_z
  _atom_site_occupancy
  Ba  Ba1       1.0  0.19347  0.48788  0.63620  1.0000
  Ba  Ba2       1.0  0.80653  0.51212  0.36380  1.0000
  H   H1        1.0  0.40389  0.56366  0.98378  1.0000
  H   H2        1.0  0.59612  0.43634  0.01622  1.0000
  H   H3        1.0  0.07055  0.68384  0.19083  1.0000
  H   H4        1.0  0.92947  0.31617  0.80917  1.0000
  H   H5        1.0  0.37974  0.48053  0.36998  1.0000
  H   H6        1.0  0.62026  0.51948  0.63002  1.0000
  H   H7        1.0  0.05552  0.23562  0.99602  1.0000
  H   H8        1.0  0.94448  0.76438  0.00398  1.0000
  H   H9        1.0  0.40033  0.03089  0.05725  1.0000
  H   H10       1.0  0.59968  0.96911  0.94275  1.0000
  H   H11       1.0  0.30910  0.14241  0.68176  1.0000
  H   H12       1.0  0.69087  0.85757  0.31823  1.0000
  H   H13       1.0  0.90969  0.17131  0.37734  1.0000
  H   H14       1.0  0.09032  0.82869  0.62267  1.0000
  H   H15       1.0  0.02578  0.23134  0.29199  1.0000
  H   H16       1.0  0.97423  0.76865  0.70802  1.0000
  H   H17       1.0  0.44541  0.27797  0.48357  1.0000
  H   H18       1.0  0.55459  0.72203  0.51643  1.0000
  H   H19       1.0  0.28207  0.22887  0.39415  1.0000
  H   H20       1.0  0.71793  0.77113  0.60586  1.0000
  H   H21       1.0  0.43214  0.86437  0.68416  1.0000
  H   H22       1.0  0.56786  0.13563  0.31583  1.0000
  H   H23       1.0  0.31550  0.76415  0.53555  1.0000
  H   H24       1.0  0.68450  0.23585  0.46445  1.0000
  C   C1        1.0  0.23194  0.63459  0.07348  1.0000
  C   C2        1.0  0.76807  0.36541  0.92652  1.0000
  C   C3        1.0  0.21418  0.58778  0.29514  1.0000
  C   C4        1.0  0.78582  0.41222  0.70486  1.0000
  C   C5        1.0  0.34131  0.52847  0.28981  1.0000
  C   C6        1.0  0.65869  0.47153  0.71020  1.0000
  C   C7        1.0  0.41750  0.52518  0.17889  1.0000
  C   C8        1.0  0.58252  0.47481  0.82110  1.0000
  C   C9        1.0  0.22040  0.12911  0.04212  1.0000
  C   C10       1.0  0.77959  0.87090  0.95788  1.0000
  C   C11       1.0  0.36964  0.07317  0.86414  1.0000
  C   C12       1.0  0.63033  0.92684  0.13585  1.0000
  C   C13       1.0  0.28315  0.13644  0.78170  1.0000
  C   C14       1.0  0.71685  0.86355  0.21830  1.0000
  C   C15       1.0  0.17364  0.20658  0.83344  1.0000
  C   C16       1.0  0.82634  0.79342  0.16655  1.0000
  S   S1        1.0  0.15975  0.69336  0.94145  1.0000
  S   S2        1.0  0.84026  0.30664  0.05854  1.0000
  S   S3        1.0  0.16234  0.09486  0.18441  1.0000
  S   S4        1.0  0.83767  0.90515  0.81559  1.0000
  N   N1        1.0  0.35584  0.57743  0.07285  1.0000
  N   N2        1.0  0.64417  0.42257  0.92715  1.0000
  N   N3        1.0  0.16823  0.64351  0.18682  1.0000
  N   N4        1.0  0.83177  0.35651  0.81318  1.0000
  N   N5        1.0  0.14854  0.20056  0.96456  1.0000
  N   N6        1.0  0.85147  0.79944  0.03544  1.0000
  N   N7        1.0  0.33554  0.07690  0.99446  1.0000
  N   N8        1.0  0.66446  0.92310  0.00554  1.0000
  O   O1        1.0  0.13728  0.59720  0.39228  1.0000
  O   O2        1.0  0.86272  0.40281  0.60772  1.0000
  O   O3        1.0  0.53647  0.47684  0.16722  1.0000
  O   O4        1.0  0.46353  0.52315  0.83278  1.0000
  O   O5        1.0  0.47545  0.01191  0.82936  1.0000
  O   O6        1.0  0.52455  0.98809  0.17064  1.0000
  O   O7        1.0  0.09525  0.27485  0.77096  1.0000
  O   O8        1.0  0.90474  0.72514  0.22904  1.0000
  O   O9        1.0  0.97464  0.26873  0.36987  1.0000
  O   O10       1.0  0.02537  0.73127  0.63013  1.0000
  O   O11       1.0  0.34023  0.28670  0.49142  1.0000
  O   O12       1.0  0.65977  0.71329  0.50859  1.0000
  O   O13       1.0  0.39885  0.76164  0.60604  1.0000
  O   O14       1.0  0.60116  0.23836  0.39397  1.0000
