data_image0
_chemical_formula_structural       Co2H16C20N20
_chemical_formula_sum              "Co2 H16 C20 N20"
_cell_length_a       6.3504
_cell_length_b       7.26824
_cell_length_c       13.5512
_cell_angle_alpha    90.0008
_cell_angle_beta     89.9999
_cell_angle_gamma    96.0791

_space_group_name_H-M_alt    "P 1"
_space_group_IT_number       1

loop_
  _space_group_symop_operation_xyz
  'x, y, z'

loop_
  _atom_site_type_symbol
  _atom_site_label
  _atom_site_symmetry_multiplicity
  _atom_site_fract_x
  _atom_site_fract_y
  _atom_site_fract_z
  _atom_site_occupancy
  Co  Co1       1.0  0.00001  0.50000  0.00000  1.0000
  Co  Co2       1.0  1.00000  0.00001  0.50000  1.0000
  H   H1        1.0  0.51962  0.54668  0.70821  1.0000
  H   H2        1.0  0.48037  0.95332  0.20821  1.0000
  H   H3        1.0  0.48038  0.45333  0.29179  1.0000
  H   H4        1.0  0.51963  0.04668  0.79180  1.0000
  H   H5        1.0  0.55772  0.56755  0.89856  1.0000
  H   H6        1.0  0.44228  0.93244  0.39856  1.0000
  H   H7        1.0  0.44230  0.43243  0.10144  1.0000
  H   H8        1.0  0.55771  0.06756  0.60144  1.0000
  H   H9        1.0  0.85002  0.45352  0.62746  1.0000
  H   H10       1.0  0.14997  0.04648  0.12746  1.0000
  H   H11       1.0  0.14998  0.54649  0.37253  1.0000
  H   H12       1.0  0.85004  0.95352  0.87254  1.0000
  H   H13       1.0  0.13369  0.42003  0.78138  1.0000
  H   H14       1.0  0.86630  0.07996  0.28139  1.0000
  H   H15       1.0  0.86631  0.57998  0.21861  1.0000
  H   H16       1.0  0.13370  0.92002  0.71862  1.0000
  C   C1        1.0  0.67782  0.53115  0.84730  1.0000
  C   C2        1.0  0.32219  0.96885  0.34730  1.0000
  C   C3        1.0  0.32219  0.46884  0.15270  1.0000
  C   C4        1.0  0.67780  0.03115  0.65271  1.0000
  C   C5        1.0  0.83477  0.47268  0.70616  1.0000
  C   C6        1.0  0.16522  0.02732  0.20617  1.0000
  C   C7        1.0  0.16524  0.52733  0.29383  1.0000
  C   C8        1.0  0.83479  0.97268  0.79383  1.0000
  C   C9        1.0  0.97302  0.45616  0.78271  1.0000
  C   C10       1.0  0.02698  0.04383  0.28271  1.0000
  C   C11       1.0  0.02701  0.54384  0.21729  1.0000
  C   C12       1.0  0.97301  0.95617  0.71729  1.0000
  C   C13       1.0  0.28807  0.86827  0.92867  1.0000
  C   C14       1.0  0.71192  0.63173  0.42867  1.0000
  C   C15       1.0  0.71191  0.13170  0.07132  1.0000
  C   C16       1.0  0.28807  0.36830  0.57133  1.0000
  C   C17       1.0  0.23350  0.17482  0.93733  1.0000
  C   C18       1.0  0.76650  0.32520  0.43734  1.0000
  C   C19       1.0  0.76648  0.82517  0.06267  1.0000
  C   C20       1.0  0.23349  0.67482  0.56266  1.0000
  N   N1        1.0  0.87350  0.49332  0.87003  1.0000
  N   N2        1.0  0.12650  0.00668  0.37003  1.0000
  N   N3        1.0  0.12651  0.50668  0.12996  1.0000
  N   N4        1.0  0.87349  0.99332  0.62997  1.0000
  N   N5        1.0  0.65052  0.51922  0.74830  1.0000
  N   N6        1.0  0.34947  0.98078  0.24829  1.0000
  N   N7        1.0  0.34948  0.48078  0.25171  1.0000
  N   N8        1.0  0.65053  0.01922  0.75171  1.0000
  N   N9        1.0  0.26283  0.70885  0.94721  1.0000
  N   N10       1.0  0.73717  0.79117  0.44721  1.0000
  N   N11       1.0  0.73717  0.29113  0.05279  1.0000
  N   N12       1.0  0.26283  0.20886  0.55279  1.0000
  N   N13       1.0  0.33010  0.04059  0.90121  1.0000
  N   N14       1.0  0.66991  0.45943  0.40121  1.0000
  N   N15       1.0  0.66989  0.95940  0.09879  1.0000
  N   N16       1.0  0.33009  0.54060  0.59879  1.0000
  N   N17       1.0  0.15543  0.30530  0.96441  1.0000
  N   N18       1.0  0.84458  0.19471  0.46442  1.0000
  N   N19       1.0  0.84458  0.69467  0.03559  1.0000
  N   N20       1.0  0.15541  0.80532  0.53558  1.0000
