data_image0
_chemical_formula_structural       Na2H20C18S2N2O14
_chemical_formula_sum              "Na2 H20 C18 S2 N2 O14"
_cell_length_a       5.36723
_cell_length_b       7.59199
_cell_length_c       14.1364
_cell_angle_alpha    80.4888
_cell_angle_beta     90.6176
_cell_angle_gamma    76.0451

_space_group_name_H-M_alt    "P 1"
_space_group_IT_number       1

loop_
  _space_group_symop_operation_xyz
  'x, y, z'

loop_
  _atom_site_type_symbol
  _atom_site_label
  _atom_site_symmetry_multiplicity
  _atom_site_fract_x
  _atom_site_fract_y
  _atom_site_fract_z
  _atom_site_occupancy
  Na  Na1       1.0  0.83941  0.43973  0.20939  1.0000
  Na  Na2       1.0  0.16057  0.56028  0.79061  1.0000
  H   H1        1.0  0.66134  0.46921  0.69691  1.0000
  H   H2        1.0  0.33865  0.53079  0.30310  1.0000
  H   H3        1.0  0.85753  0.62481  0.03685  1.0000
  H   H4        1.0  0.14247  0.37519  0.96313  1.0000
  H   H5        1.0  0.67855  0.56907  0.96636  1.0000
  H   H6        1.0  0.32142  0.43092  0.03364  1.0000
  H   H7        1.0  0.68832  0.86206  0.12255  1.0000
  H   H8        1.0  0.31169  0.13794  0.87745  1.0000
  H   H9        1.0  0.90461  0.63497  0.47722  1.0000
  H   H10       1.0  0.09540  0.36503  0.52278  1.0000
  H   H11       1.0  0.91069  0.81793  0.31531  1.0000
  H   H12       1.0  0.08932  0.18207  0.68469  1.0000
  H   H13       1.0  0.10957  0.09083  0.32937  1.0000
  H   H14       1.0  0.89044  0.90917  0.67062  1.0000
  H   H15       1.0  0.10562  0.89214  0.48906  1.0000
  H   H16       1.0  0.89437  0.10786  0.51094  1.0000
  H   H17       1.0  0.29077  0.88229  0.02137  1.0000
  H   H18       1.0  0.70923  0.11771  0.97863  1.0000
  H   H19       1.0  0.11548  0.02337  0.09828  1.0000
  H   H20       1.0  0.88452  0.97663  0.90171  1.0000
  C   C1        1.0  0.48180  0.65002  0.59051  1.0000
  C   C2        1.0  0.51820  0.34997  0.40950  1.0000
  C   C3        1.0  0.50179  0.75518  0.49314  1.0000
  C   C4        1.0  0.49821  0.24482  0.50686  1.0000
  C   C5        1.0  0.73050  0.73274  0.44445  1.0000
  C   C6        1.0  0.26951  0.26726  0.55556  1.0000
  C   C7        1.0  0.73496  0.83684  0.35407  1.0000
  C   C8        1.0  0.26504  0.16316  0.64593  1.0000
  C   C9        1.0  0.51184  0.96647  0.31363  1.0000
  C   C10       1.0  0.48816  0.03354  0.68636  1.0000
  C   C11       1.0  0.28260  0.99013  0.36102  1.0000
  C   C12       1.0  0.71740  0.00986  0.63899  1.0000
  C   C13       1.0  0.28035  0.88180  0.45033  1.0000
  C   C14       1.0  0.71966  0.11819  0.54967  1.0000
  C   C15       1.0  0.28146  0.90730  0.09574  1.0000
  C   C16       1.0  0.71855  0.09270  0.90426  1.0000
  C   C17       1.0  0.23463  0.73610  0.15901  1.0000
  C   C18       1.0  0.76537  0.26391  0.84099  1.0000
  S   S1        1.0  0.51877  0.09508  0.19716  1.0000
  S   S2        1.0  0.48125  0.90492  0.80284  1.0000
  N   N1        1.0  0.51537  0.96073  0.11884  1.0000
  N   N2        1.0  0.48464  0.03928  0.88116  1.0000
  O   O1        1.0  0.70136  0.54100  0.63035  1.0000
  O   O2        1.0  0.29862  0.45901  0.36965  1.0000
  O   O3        1.0  0.27365  0.66638  0.62990  1.0000
  O   O4        1.0  0.72634  0.33362  0.37010  1.0000
  O   O5        1.0  0.76625  0.14069  0.18992  1.0000
  O   O6        1.0  0.23375  0.85931  0.81008  1.0000
  O   O7        1.0  0.28642  0.24331  0.17978  1.0000
  O   O8        1.0  0.71358  0.75669  0.82022  1.0000
  O   O9        1.0  0.41416  0.64054  0.21905  1.0000
  O   O10       1.0  0.58585  0.35947  0.78096  1.0000
  O   O11       1.0  0.01818  0.70008  0.14750  1.0000
  O   O12       1.0  0.98184  0.29992  0.85250  1.0000
  O   O13       1.0  0.72565  0.55587  0.03439  1.0000
  O   O14       1.0  0.27433  0.44414  0.96562  1.0000
