data_image0
_chemical_formula_structural       Sc4H24C28N8O32
_chemical_formula_sum              "Sc4 H24 C28 N8 O32"
_cell_length_a       10.6318
_cell_length_b       10.6324
_cell_length_c       11.9769
_cell_angle_alpha    112.853
_cell_angle_beta     105.078
_cell_angle_gamma    105.638

_space_group_name_H-M_alt    "P 1"
_space_group_IT_number       1

loop_
  _space_group_symop_operation_xyz
  'x, y, z'

loop_
  _atom_site_type_symbol
  _atom_site_label
  _atom_site_symmetry_multiplicity
  _atom_site_fract_x
  _atom_site_fract_y
  _atom_site_fract_z
  _atom_site_occupancy
  Sc  Sc1       1.0  0.91955  0.78087  0.22643  1.0000
  Sc  Sc2       1.0  0.55473  0.19282  0.27377  1.0000
  Sc  Sc3       1.0  0.08045  0.21913  0.77356  1.0000
  Sc  Sc4       1.0  0.44526  0.80717  0.72622  1.0000
  H   H1        1.0  0.79166  0.45090  0.24284  1.0000
  H   H2        1.0  0.20879  0.04855  0.25718  1.0000
  H   H3        1.0  0.20834  0.54910  0.75717  1.0000
  H   H4        1.0  0.79122  0.95145  0.74282  1.0000
  H   H5        1.0  0.37002  0.55303  0.13270  1.0000
  H   H6        1.0  0.42070  0.73657  0.36674  1.0000
  H   H7        1.0  0.62999  0.44699  0.86734  1.0000
  H   H8        1.0  0.57930  0.26342  0.63324  1.0000
  H   H9        1.0  0.83757  0.62052  0.94461  1.0000
  H   H10       1.0  0.67579  0.39331  0.55568  1.0000
  H   H11       1.0  0.16243  0.37948  0.05538  1.0000
  H   H12       1.0  0.32420  0.60669  0.44431  1.0000
  H   H13       1.0  0.86635  0.51239  0.00795  1.0000
  H   H14       1.0  0.50427  0.35843  0.49176  1.0000
  H   H15       1.0  0.13366  0.48761  0.99205  1.0000
  H   H16       1.0  0.49573  0.64158  0.50824  1.0000
  H   H17       1.0  0.91344  0.85482  0.01412  1.0000
  H   H18       1.0  0.84080  0.39986  0.48657  1.0000
  H   H19       1.0  0.08657  0.14519  0.98588  1.0000
  H   H20       1.0  0.15920  0.60013  0.51343  1.0000
  H   H21       1.0  0.92671  0.98725  0.14137  1.0000
  H   H22       1.0  0.84639  0.28532  0.35993  1.0000
  H   H23       1.0  0.07328  0.01276  0.85863  1.0000
  H   H24       1.0  0.15361  0.71468  0.64007  1.0000
  C   C1        1.0  0.69724  0.47352  0.21925  1.0000
  C   C2        1.0  0.25491  0.97770  0.28078  1.0000
  C   C3        1.0  0.30276  0.52648  0.78076  1.0000
  C   C4        1.0  0.74509  0.02229  0.71921  1.0000
  C   C5        1.0  0.46251  0.41766  0.19238  1.0000
  C   C6        1.0  0.22573  0.76965  0.30734  1.0000
  C   C7        1.0  0.53749  0.58234  0.80764  1.0000
  C   C8        1.0  0.77426  0.23034  0.69265  1.0000
  C   C9        1.0  0.46295  0.52932  0.15963  1.0000
  C   C10       1.0  0.37015  0.80272  0.34003  1.0000
  C   C11       1.0  0.53706  0.47069  0.84039  1.0000
  C   C12       1.0  0.62985  0.19728  0.65996  1.0000
  C   C13       1.0  0.58985  0.61288  0.16158  1.0000
  C   C14       1.0  0.45191  0.92788  0.33845  1.0000
  C   C15       1.0  0.41016  0.38713  0.83845  1.0000
  C   C16       1.0  0.54809  0.07211  0.66155  1.0000
  C   C17       1.0  0.60424  0.73736  0.12726  1.0000
  C   C18       1.0  0.61077  0.97679  0.37298  1.0000
  C   C19       1.0  0.39576  0.26265  0.87276  1.0000
  C   C20       1.0  0.38925  0.02321  0.62703  1.0000
  C   C21       1.0  0.33465  0.31827  0.19766  1.0000
  C   C22       1.0  0.12093  0.63647  0.30191  1.0000
  C   C23       1.0  0.66533  0.68173  0.80233  1.0000
  C   C24       1.0  0.87908  0.36353  0.69808  1.0000
  C   C25       1.0  0.01769  0.06288  0.48275  1.0000
  C   C26       1.0  0.58015  0.03484  0.01728  1.0000
  C   C27       1.0  0.98232  0.93713  0.51726  1.0000
  C   C28       1.0  0.41984  0.96514  0.98271  1.0000
  N   N1        1.0  0.70662  0.58537  0.19150  1.0000
  N   N2        1.0  0.39454  0.01482  0.30865  1.0000
  N   N3        1.0  0.29339  0.41464  0.80851  1.0000
  N   N4        1.0  0.60546  0.98517  0.69134  1.0000
  N   N5        1.0  0.57999  0.39038  0.22233  1.0000
  N   N6        1.0  0.16861  0.85735  0.27761  1.0000
  N   N7        1.0  0.42002  0.60962  0.77768  1.0000
  N   N8        1.0  0.83139  0.14265  0.72238  1.0000
  O   O1        1.0  0.73230  0.80855  0.14317  1.0000
  O   O2        1.0  0.66597  0.08897  0.35707  1.0000
  O   O3        1.0  0.26770  0.19145  0.85685  1.0000
  O   O4        1.0  0.33405  0.91104  0.64293  1.0000
  O   O5        1.0  0.49629  0.75870  0.08605  1.0000
  O   O6        1.0  0.67340  0.91020  0.41431  1.0000
  O   O7        1.0  0.50371  0.24131  0.91396  1.0000
  O   O8        1.0  0.32662  0.08980  0.58570  1.0000
  O   O9        1.0  0.36195  0.24407  0.25452  1.0000
  O   O10       1.0  0.98989  0.60728  0.24547  1.0000
  O   O11       1.0  0.63804  0.75591  0.74547  1.0000
  O   O12       1.0  0.01011  0.39271  0.75453  1.0000
  O   O13       1.0  0.21281  0.31480  0.14729  1.0000
  O   O14       1.0  0.16770  0.56460  0.35183  1.0000
  O   O15       1.0  0.78719  0.68519  0.85269  1.0000
  O   O16       1.0  0.83230  0.43540  0.64816  1.0000
  O   O17       1.0  0.00153  0.02397  0.36388  1.0000
  O   O18       1.0  0.66019  0.13729  0.13625  1.0000
  O   O19       1.0  0.99848  0.97603  0.63611  1.0000
  O   O20       1.0  0.33979  0.86270  0.86375  1.0000
  O   O21       1.0  0.05935  0.19431  0.57670  1.0000
  O   O22       1.0  0.61755  0.98274  0.92326  1.0000
  O   O23       1.0  0.94065  0.80569  0.42330  1.0000
  O   O24       1.0  0.38243  0.01725  0.07674  1.0000
  O   O25       1.0  0.88797  0.61486  0.02608  1.0000
  O   O26       1.0  0.58874  0.36178  0.47392  1.0000
  O   O27       1.0  0.11202  0.38515  0.97392  1.0000
  O   O28       1.0  0.41125  0.63822  0.52608  1.0000
  O   O29       1.0  0.96774  0.91522  0.11158  1.0000
  O   O30       1.0  0.80400  0.35615  0.38906  1.0000
  O   O31       1.0  0.03225  0.08479  0.88841  1.0000
  O   O32       1.0  0.19600  0.64385  0.61094  1.0000
