data_image0
_chemical_formula_structural       Cd4H56C36S4N8Cl8
_chemical_formula_sum              "Cd4 H56 C36 S4 N8 Cl8"
_cell_length_a       9.93493
_cell_length_b       10.925
_cell_length_c       12.3214
_cell_angle_alpha    90.0001
_cell_angle_beta     100.497
_cell_angle_gamma    89.9999

_space_group_name_H-M_alt    "P 1"
_space_group_IT_number       1

loop_
  _space_group_symop_operation_xyz
  'x, y, z'

loop_
  _atom_site_type_symbol
  _atom_site_label
  _atom_site_symmetry_multiplicity
  _atom_site_fract_x
  _atom_site_fract_y
  _atom_site_fract_z
  _atom_site_occupancy
  Cd  Cd1       1.0  0.84729  0.23075  0.72800  1.0000
  Cd  Cd2       1.0  0.65271  0.73075  0.27200  1.0000
  Cd  Cd3       1.0  0.15271  0.76925  0.27200  1.0000
  Cd  Cd4       1.0  0.34729  0.26925  0.72800  1.0000
  H   H1        1.0  0.63886  0.40028  0.74693  1.0000
  H   H2        1.0  0.86114  0.90028  0.25307  1.0000
  H   H3        1.0  0.36114  0.59972  0.25307  1.0000
  H   H4        1.0  0.13886  0.09972  0.74693  1.0000
  H   H5        1.0  0.95422  0.12767  0.98881  1.0000
  H   H6        1.0  0.54578  0.62767  0.01119  1.0000
  H   H7        1.0  0.04578  0.87233  0.01119  1.0000
  H   H8        1.0  0.45422  0.37233  0.98881  1.0000
  H   H9        1.0  0.95145  0.19536  0.18220  1.0000
  H   H10       1.0  0.54854  0.69536  0.81780  1.0000
  H   H11       1.0  0.04855  0.80464  0.81780  1.0000
  H   H12       1.0  0.45146  0.30464  0.18220  1.0000
  H   H13       1.0  0.85837  0.40847  0.21082  1.0000
  H   H14       1.0  0.64163  0.90847  0.78918  1.0000
  H   H15       1.0  0.14163  0.59153  0.78918  1.0000
  H   H16       1.0  0.35837  0.09153  0.21082  1.0000
  H   H17       1.0  0.79220  0.54315  0.04888  1.0000
  H   H18       1.0  0.70780  0.04315  0.95113  1.0000
  H   H19       1.0  0.20780  0.45685  0.95112  1.0000
  H   H20       1.0  0.29220  0.95685  0.04887  1.0000
  H   H21       1.0  0.74542  0.56752  0.85096  1.0000
  H   H22       1.0  0.75458  0.06752  0.14904  1.0000
  H   H23       1.0  0.25458  0.43248  0.14904  1.0000
  H   H24       1.0  0.24542  0.93248  0.85096  1.0000
  H   H25       1.0  0.90314  0.52223  0.81448  1.0000
  H   H26       1.0  0.59686  0.02223  0.18553  1.0000
  H   H27       1.0  0.09686  0.47777  0.18553  1.0000
  H   H28       1.0  0.40314  0.97777  0.81447  1.0000
  H   H29       1.0  0.82778  0.51674  0.62110  1.0000
  H   H30       1.0  0.67222  0.01674  0.37890  1.0000
  H   H31       1.0  0.17222  0.48326  0.37890  1.0000
  H   H32       1.0  0.32778  0.98326  0.62110  1.0000
  H   H33       1.0  0.66362  0.57269  0.63483  1.0000
  H   H34       1.0  0.83639  0.07269  0.36517  1.0000
  H   H35       1.0  0.33638  0.42731  0.36517  1.0000
  H   H36       1.0  0.16362  0.92731  0.63483  1.0000
  H   H37       1.0  0.63173  0.46486  0.45912  1.0000
  H   H38       1.0  0.86827  0.96486  0.54088  1.0000
  H   H39       1.0  0.36826  0.53514  0.54088  1.0000
  H   H40       1.0  0.13173  0.03514  0.45912  1.0000
  H   H41       1.0  0.55710  0.37512  0.55364  1.0000
  H   H42       1.0  0.94290  0.87512  0.44636  1.0000
  H   H43       1.0  0.44290  0.62488  0.44636  1.0000
  H   H44       1.0  0.05710  0.12488  0.55364  1.0000
  H   H45       1.0  0.83301  0.41761  0.38371  1.0000
  H   H46       1.0  0.66699  0.91761  0.61629  1.0000
  H   H47       1.0  0.16699  0.58239  0.61629  1.0000
  H   H48       1.0  0.33301  0.08239  0.38371  1.0000
  H   H49       1.0  0.93167  0.27901  0.40447  1.0000
  H   H50       1.0  0.56833  0.77901  0.59553  1.0000
  H   H51       1.0  0.06833  0.72099  0.59553  1.0000
  H   H52       1.0  0.43167  0.22099  0.40447  1.0000
  H   H53       1.0  0.95691  0.39338  0.50914  1.0000
  H   H54       1.0  0.54309  0.89338  0.49085  1.0000
  H   H55       1.0  0.04308  0.60662  0.49085  1.0000
  H   H56       1.0  0.45691  0.10662  0.50914  1.0000
  C   C1        1.0  0.91873  0.21910  0.00613  1.0000
  C   C2        1.0  0.58127  0.71910  0.99387  1.0000
  C   C3        1.0  0.08127  0.78090  0.99387  1.0000
  C   C4        1.0  0.41873  0.28090  0.00613  1.0000
  C   C5        1.0  0.91538  0.25718  0.11362  1.0000
  C   C6        1.0  0.58462  0.75718  0.88638  1.0000
  C   C7        1.0  0.08462  0.74282  0.88638  1.0000
  C   C8        1.0  0.41538  0.24282  0.11362  1.0000
  C   C9        1.0  0.86618  0.37426  0.12926  1.0000
  C   C10       1.0  0.63382  0.87426  0.87074  1.0000
  C   C11       1.0  0.13382  0.62574  0.87074  1.0000
  C   C12       1.0  0.36618  0.12574  0.12926  1.0000
  C   C13       1.0  0.82768  0.45034  0.03809  1.0000
  C   C14       1.0  0.67232  0.95034  0.96191  1.0000
  C   C15       1.0  0.17232  0.54966  0.96191  1.0000
  C   C16       1.0  0.32768  0.04966  0.03809  1.0000
  C   C17       1.0  0.83664  0.40658  0.93327  1.0000
  C   C18       1.0  0.66336  0.90658  0.06673  1.0000
  C   C19       1.0  0.16336  0.59342  0.06673  1.0000
  C   C20       1.0  0.33664  0.09342  0.93327  1.0000
  C   C21       1.0  0.80544  0.48780  0.83262  1.0000
  C   C22       1.0  0.69455  0.98780  0.16738  1.0000
  C   C23       1.0  0.19455  0.51220  0.16738  1.0000
  C   C24       1.0  0.30545  0.01220  0.83262  1.0000
  C   C25       1.0  0.72486  0.48862  0.63212  1.0000
  C   C26       1.0  0.77514  0.98862  0.36788  1.0000
  C   C27       1.0  0.27514  0.51138  0.36788  1.0000
  C   C28       1.0  0.22486  0.01138  0.63212  1.0000
  C   C29       1.0  0.65410  0.41099  0.53566  1.0000
  C   C30       1.0  0.84590  0.91099  0.46434  1.0000
  C   C31       1.0  0.34590  0.58901  0.46434  1.0000
  C   C32       1.0  0.15410  0.08901  0.53566  1.0000
  C   C33       1.0  0.88071  0.35033  0.44498  1.0000
  C   C34       1.0  0.61929  0.85034  0.55502  1.0000
  C   C35       1.0  0.11929  0.64966  0.55502  1.0000
  C   C36       1.0  0.38071  0.14966  0.44498  1.0000
  S   S1        1.0  0.74838  0.27679  0.50469  1.0000
  S   S2        1.0  0.75162  0.77679  0.49531  1.0000
  S   S3        1.0  0.25162  0.72321  0.49531  1.0000
  S   S4        1.0  0.24838  0.22321  0.50469  1.0000
  N   N1        1.0  0.87867  0.29151  0.91821  1.0000
  N   N2        1.0  0.62133  0.79150  0.08179  1.0000
  N   N3        1.0  0.12133  0.70850  0.08179  1.0000
  N   N4        1.0  0.37867  0.20849  0.91821  1.0000
  N   N5        1.0  0.73663  0.42058  0.73565  1.0000
  N   N6        1.0  0.76337  0.92058  0.26435  1.0000
  N   N7        1.0  0.26337  0.57942  0.26435  1.0000
  N   N8        1.0  0.23663  0.07942  0.73565  1.0000
  Cl  Cl1       1.0  0.07725  0.34956  0.71304  1.0000
  Cl  Cl2       1.0  0.42275  0.84956  0.28696  1.0000
  Cl  Cl3       1.0  0.92276  0.65044  0.28696  1.0000
  Cl  Cl4       1.0  0.57725  0.15044  0.71304  1.0000
  Cl  Cl5       1.0  0.92478  0.01344  0.75507  1.0000
  Cl  Cl6       1.0  0.57522  0.51344  0.24493  1.0000
  Cl  Cl7       1.0  0.07522  0.98656  0.24493  1.0000
  Cl  Cl8       1.0  0.42478  0.48655  0.75507  1.0000
