data_image0
_chemical_formula_structural       Cu2H16C24N8Cl4O2
_chemical_formula_sum              "Cu2 H16 C24 N8 Cl4 O2"
_cell_length_a       7.98249
_cell_length_b       7.98265
_cell_length_c       11.5231
_cell_angle_alpha    101.77
_cell_angle_beta     101.771
_cell_angle_gamma    107.875

_space_group_name_H-M_alt    "P 1"
_space_group_IT_number       1

loop_
  _space_group_symop_operation_xyz
  'x, y, z'

loop_
  _atom_site_type_symbol
  _atom_site_label
  _atom_site_symmetry_multiplicity
  _atom_site_fract_x
  _atom_site_fract_y
  _atom_site_fract_z
  _atom_site_occupancy
  Cu  Cu1       1.0  0.50000  0.50000  0.00000  1.0000
  Cu  Cu2       1.0  0.50000  0.50000  0.50000  1.0000
  H   H1        1.0  0.46773  0.26316  0.75877  1.0000
  H   H2        1.0  0.26315  0.46774  0.25877  1.0000
  H   H3        1.0  0.53227  0.73684  0.24123  1.0000
  H   H4        1.0  0.73684  0.53226  0.74123  1.0000
  H   H5        1.0  0.59926  0.02744  0.68128  1.0000
  H   H6        1.0  0.02743  0.59928  0.18127  1.0000
  H   H7        1.0  0.40074  0.97256  0.31872  1.0000
  H   H8        1.0  0.97256  0.40072  0.81873  1.0000
  H   H9        1.0  0.78542  0.92686  0.83494  1.0000
  H   H10       1.0  0.92685  0.78544  0.33493  1.0000
  H   H11       1.0  0.21458  0.07313  0.16505  1.0000
  H   H12       1.0  0.07314  0.21457  0.66507  1.0000
  H   H13       1.0  0.82132  0.04918  0.06002  1.0000
  H   H14       1.0  0.04917  0.82132  0.56001  1.0000
  H   H15       1.0  0.17868  0.95081  0.93998  1.0000
  H   H16       1.0  0.95083  0.17869  0.43999  1.0000
  C   C1        1.0  0.54726  0.21297  0.82259  1.0000
  C   C2        1.0  0.21296  0.54727  0.32259  1.0000
  C   C3        1.0  0.45275  0.78703  0.17741  1.0000
  C   C4        1.0  0.78703  0.45274  0.67741  1.0000
  C   C5        1.0  0.62058  0.08252  0.78009  1.0000
  C   C6        1.0  0.08251  0.62060  0.28009  1.0000
  C   C7        1.0  0.37942  0.91748  0.21991  1.0000
  C   C8        1.0  0.91748  0.37941  0.71992  1.0000
  C   C9        1.0  0.72460  0.02645  0.86579  1.0000
  C   C10       1.0  0.02645  0.72461  0.36578  1.0000
  C   C11       1.0  0.27540  0.97354  0.13421  1.0000
  C   C12       1.0  0.97355  0.27540  0.63422  1.0000
  C   C13       1.0  0.74762  0.09711  0.99159  1.0000
  C   C14       1.0  0.09711  0.74764  0.49158  1.0000
  C   C15       1.0  0.25238  0.90288  0.00841  1.0000
  C   C16       1.0  0.90289  0.25237  0.50842  1.0000
  C   C17       1.0  0.66782  0.22482  0.02670  1.0000
  C   C18       1.0  0.22482  0.66783  0.52670  1.0000
  C   C19       1.0  0.33218  0.77517  0.97330  1.0000
  C   C20       1.0  0.77518  0.33218  0.47331  1.0000
  C   C21       1.0  0.66785  0.29547  0.15299  1.0000
  C   C22       1.0  0.29546  0.66785  0.65298  1.0000
  C   C23       1.0  0.33216  0.70453  0.84701  1.0000
  C   C24       1.0  0.70454  0.33216  0.34702  1.0000
  N   N1        1.0  0.57331  0.28546  0.94305  1.0000
  N   N2        1.0  0.28545  0.57332  0.44304  1.0000
  N   N3        1.0  0.42669  0.71453  0.05695  1.0000
  N   N4        1.0  0.71455  0.42668  0.55696  1.0000
  N   N5        1.0  0.57800  0.40003  0.18800  1.0000
  N   N6        1.0  0.40003  0.57800  0.68799  1.0000
  N   N7        1.0  0.42200  0.59996  0.81200  1.0000
  N   N8        1.0  0.59997  0.42201  0.31200  1.0000
  Cl  Cl1       1.0  0.80320  0.69457  0.03843  1.0000
  Cl  Cl2       1.0  0.69457  0.80320  0.53845  1.0000
  Cl  Cl3       1.0  0.19680  0.30542  0.96156  1.0000
  Cl  Cl4       1.0  0.30543  0.19680  0.46155  1.0000
  O   O1        1.0  0.75271  0.24729  0.25001  1.0000
  O   O2        1.0  0.24729  0.75271  0.75000  1.0000
