data_image0
_chemical_formula_structural       Cu4H48C28N8O16
_chemical_formula_sum              "Cu4 H48 C28 N8 O16"
_cell_length_a       5.86082
_cell_length_b       9.1919
_cell_length_c       17.7107
_cell_angle_alpha    90.0003
_cell_angle_beta     89.9998
_cell_angle_gamma    107.502

_space_group_name_H-M_alt    "P 1"
_space_group_IT_number       1

loop_
  _space_group_symop_operation_xyz
  'x, y, z'

loop_
  _atom_site_type_symbol
  _atom_site_label
  _atom_site_symmetry_multiplicity
  _atom_site_fract_x
  _atom_site_fract_y
  _atom_site_fract_z
  _atom_site_occupancy
  Cu  Cu1       1.0  0.93662  0.24304  0.28832  1.0000
  Cu  Cu2       1.0  0.06338  0.25696  0.78833  1.0000
  Cu  Cu3       1.0  0.06337  0.75696  0.71167  1.0000
  Cu  Cu4       1.0  0.93662  0.74304  0.21167  1.0000
  H   H1        1.0  0.11954  0.15598  0.40185  1.0000
  H   H2        1.0  0.88045  0.34402  0.90186  1.0000
  H   H3        1.0  0.88045  0.84402  0.59815  1.0000
  H   H4        1.0  0.11955  0.65598  0.09815  1.0000
  H   H5        1.0  0.39351  0.32941  0.28940  1.0000
  H   H6        1.0  0.60649  0.17058  0.78941  1.0000
  H   H7        1.0  0.60649  0.67058  0.71060  1.0000
  H   H8        1.0  0.39351  0.82941  0.21059  1.0000
  H   H9        1.0  0.29245  0.43312  0.22781  1.0000
  H   H10       1.0  0.70756  0.06687  0.72782  1.0000
  H   H11       1.0  0.70755  0.56687  0.77219  1.0000
  H   H12       1.0  0.29244  0.93313  0.27218  1.0000
  H   H13       1.0  0.58454  0.85010  0.42126  1.0000
  H   H14       1.0  0.41545  0.64991  0.92126  1.0000
  H   H15       1.0  0.41546  0.14991  0.57874  1.0000
  H   H16       1.0  0.58456  0.35008  0.07874  1.0000
  H   H17       1.0  0.88846  0.90186  0.44729  1.0000
  H   H18       1.0  0.11152  0.59815  0.94730  1.0000
  H   H19       1.0  0.11153  0.09814  0.55271  1.0000
  H   H20       1.0  0.88848  0.40186  0.05270  1.0000
  H   H21       1.0  0.72856  0.10101  0.48405  1.0000
  H   H22       1.0  0.27142  0.39900  0.98406  1.0000
  H   H23       1.0  0.27142  0.89899  0.51595  1.0000
  H   H24       1.0  0.72858  0.60100  0.01594  1.0000
  H   H25       1.0  0.03991  0.32679  0.50188  1.0000
  H   H26       1.0  0.96008  0.17322  0.00188  1.0000
  H   H27       1.0  0.96009  0.67321  0.49812  1.0000
  H   H28       1.0  0.03992  0.82678  0.99812  1.0000
  H   H29       1.0  0.90431  0.40578  0.42890  1.0000
  H   H30       1.0  0.09570  0.09422  0.92891  1.0000
  H   H31       1.0  0.09570  0.59422  0.57110  1.0000
  H   H32       1.0  0.90431  0.90577  0.07109  1.0000
  H   H33       1.0  0.33383  0.55429  0.45562  1.0000
  H   H34       1.0  0.66618  0.94571  0.95562  1.0000
  H   H35       1.0  0.66617  0.44571  0.54438  1.0000
  H   H36       1.0  0.33383  0.05429  0.04438  1.0000
  H   H37       1.0  0.42430  0.39600  0.42822  1.0000
  H   H38       1.0  0.57569  0.10400  0.92823  1.0000
  H   H39       1.0  0.57569  0.60400  0.57178  1.0000
  H   H40       1.0  0.42431  0.89600  0.07177  1.0000
  H   H41       1.0  0.17777  0.57384  0.32600  1.0000
  H   H42       1.0  0.82224  0.92616  0.82601  1.0000
  H   H43       1.0  0.82223  0.42616  0.67400  1.0000
  H   H44       1.0  0.17776  0.07383  0.17399  1.0000
  H   H45       1.0  0.49054  0.59392  0.32853  1.0000
  H   H46       1.0  0.50947  0.90607  0.82853  1.0000
  H   H47       1.0  0.50946  0.40607  0.67147  1.0000
  H   H48       1.0  0.49053  0.09393  0.17147  1.0000
  C   C1        1.0  0.82889  0.89735  0.32850  1.0000
  C   C2        1.0  0.17111  0.60265  0.82851  1.0000
  C   C3        1.0  0.17111  0.10265  0.67150  1.0000
  C   C4        1.0  0.82892  0.39735  0.17149  1.0000
  C   C5        1.0  0.76198  0.92955  0.40838  1.0000
  C   C6        1.0  0.23801  0.57046  0.90838  1.0000
  C   C7        1.0  0.23801  0.07046  0.59162  1.0000
  C   C8        1.0  0.76200  0.42954  0.09162  1.0000
  C   C9        1.0  0.75505  0.09244  0.42271  1.0000
  C   C10       1.0  0.24493  0.40757  0.92272  1.0000
  C   C11       1.0  0.24493  0.90757  0.57729  1.0000
  C   C12       1.0  0.75507  0.59243  0.07728  1.0000
  C   C13       1.0  0.53998  0.12152  0.38267  1.0000
  C   C14       1.0  0.46001  0.37848  0.88267  1.0000
  C   C15       1.0  0.46000  0.87848  0.61733  1.0000
  C   C16       1.0  0.53999  0.62151  0.11733  1.0000
  C   C17       1.0  0.04290  0.35006  0.44056  1.0000
  C   C18       1.0  0.95709  0.14994  0.94057  1.0000
  C   C19       1.0  0.95710  0.64994  0.55944  1.0000
  C   C20       1.0  0.04291  0.85006  0.05943  1.0000
  C   C21       1.0  0.28875  0.45475  0.41786  1.0000
  C   C22       1.0  0.71125  0.04525  0.91786  1.0000
  C   C23       1.0  0.71126  0.54525  0.58214  1.0000
  C   C24       1.0  0.28875  0.95475  0.08214  1.0000
  C   C25       1.0  0.31057  0.51355  0.33682  1.0000
  C   C26       1.0  0.68944  0.98645  0.83683  1.0000
  C   C27       1.0  0.68943  0.48644  0.66318  1.0000
  C   C28       1.0  0.31056  0.01355  0.16317  1.0000
  N   N1        1.0  0.98079  0.20506  0.39857  1.0000
  N   N2        1.0  0.01921  0.29495  0.89857  1.0000
  N   N3        1.0  0.01921  0.79495  0.60143  1.0000
  N   N4        1.0  0.98079  0.70505  0.10143  1.0000
  N   N5        1.0  0.26993  0.38814  0.28113  1.0000
  N   N6        1.0  0.73008  0.11186  0.78114  1.0000
  N   N7        1.0  0.73007  0.61186  0.71887  1.0000
  N   N8        1.0  0.26993  0.88814  0.21886  1.0000
  O   O1        1.0  0.33415  0.05486  0.40797  1.0000
  O   O2        1.0  0.66583  0.44514  0.90798  1.0000
  O   O3        1.0  0.66583  0.94514  0.59203  1.0000
  O   O4        1.0  0.33417  0.55486  0.09202  1.0000
  O   O5        1.0  0.58440  0.21112  0.32546  1.0000
  O   O6        1.0  0.41560  0.28888  0.82547  1.0000
  O   O7        1.0  0.41560  0.78888  0.67454  1.0000
  O   O8        1.0  0.58440  0.71110  0.17454  1.0000
  O   O9        1.0  0.84372  0.99172  0.27560  1.0000
  O   O10       1.0  0.15628  0.50828  0.77561  1.0000
  O   O11       1.0  0.15627  0.00828  0.72440  1.0000
  O   O12       1.0  0.84378  0.49173  0.22439  1.0000
  O   O13       1.0  0.86460  0.76703  0.31919  1.0000
  O   O14       1.0  0.13537  0.73298  0.81919  1.0000
  O   O15       1.0  0.13540  0.23298  0.68081  1.0000
  O   O16       1.0  0.86462  0.26702  0.18080  1.0000
