data_image0
_chemical_formula_structural       Cu2H20C12N4O8
_chemical_formula_sum              "Cu2 H20 C12 N4 O8"
_cell_length_a       5.58512
_cell_length_b       7.64172
_cell_length_c       9.99478
_cell_angle_alpha    99.6354
_cell_angle_beta     90.0078
_cell_angle_gamma    111.454

_space_group_name_H-M_alt    "P 1"
_space_group_IT_number       1

loop_
  _space_group_symop_operation_xyz
  'x, y, z'

loop_
  _atom_site_type_symbol
  _atom_site_label
  _atom_site_symmetry_multiplicity
  _atom_site_fract_x
  _atom_site_fract_y
  _atom_site_fract_z
  _atom_site_occupancy
  Cu  Cu1       1.0  0.51132  0.73136  0.14005  1.0000
  Cu  Cu2       1.0  0.21993  0.73124  0.63999  1.0000
  H   H1        1.0  0.94327  0.70654  0.18348  1.0000
  H   H2        1.0  0.76300  0.70620  0.68339  1.0000
  H   H3        1.0  0.19943  0.39236  0.12664  1.0000
  H   H4        1.0  0.19283  0.39236  0.62674  1.0000
  H   H5        1.0  0.27994  0.40878  0.96537  1.0000
  H   H6        1.0  0.12874  0.40870  0.46544  1.0000
  H   H7        1.0  0.19384  0.98117  0.34566  1.0000
  H   H8        1.0  0.78733  0.98085  0.84553  1.0000
  H   H9        1.0  0.03216  0.06712  0.47384  1.0000
  H   H10       1.0  0.03520  0.06685  0.97369  1.0000
  H   H11       1.0  0.92675  0.71883  0.43892  1.0000
  H   H12       1.0  0.79196  0.71855  0.93880  1.0000
  H   H13       1.0  0.52829  0.42078  0.30402  1.0000
  H   H14       1.0  0.89209  0.42054  0.80403  1.0000
  H   H15       1.0  0.82730  0.40450  0.25191  1.0000
  H   H16       1.0  0.57680  0.40411  0.75174  1.0000
  H   H17       1.0  0.68126  0.38991  0.01005  1.0000
  H   H18       1.0  0.70836  0.38944  0.50996  1.0000
  H   H19       1.0  0.45450  0.20577  0.08279  1.0000
  H   H20       1.0  0.75123  0.20550  0.58283  1.0000
  C   C1        1.0  0.92926  0.08844  0.27156  1.0000
  C   C2        1.0  0.15916  0.08815  0.77140  1.0000
  C   C3        1.0  0.00241  0.98220  0.37101  1.0000
  C   C4        1.0  0.97983  0.98190  0.87088  1.0000
  C   C5        1.0  0.82480  0.77652  0.37380  1.0000
  C   C6        1.0  0.95162  0.77625  0.87369  1.0000
  C   C7        1.0  0.56687  0.76333  0.43517  1.0000
  C   C8        1.0  0.19641  0.76315  0.93508  1.0000
  C   C9        1.0  0.67433  0.45544  0.22891  1.0000
  C   C10       1.0  0.78081  0.45514  0.72884  1.0000
  C   C11       1.0  0.54209  0.36158  0.08901  1.0000
  C   C12       1.0  0.81930  0.36131  0.58899  1.0000
  N   N1        1.0  0.77716  0.66461  0.23546  1.0000
  N   N2        1.0  0.88721  0.66431  0.73536  1.0000
  N   N3        1.0  0.34925  0.44675  0.06608  1.0000
  N   N4        1.0  0.09738  0.44667  0.56613  1.0000
  O   O1        1.0  0.73929  0.00635  0.18163  1.0000
  O   O2        1.0  0.26706  0.00616  0.68150  1.0000
  O   O3        1.0  0.07239  0.26288  0.28129  1.0000
  O   O4        1.0  0.19034  0.26253  0.78109  1.0000
  O   O5        1.0  0.37310  0.73455  0.35876  1.0000
  O   O6        1.0  0.36138  0.73438  0.85871  1.0000
  O   O7        1.0  0.56867  0.78387  0.56597  1.0000
  O   O8        1.0  0.21518  0.78372  0.06590  1.0000
