data_image0
_chemical_formula_structural       Cd4H28C12N2Cl10O2
_chemical_formula_sum              "Cd4 H28 C12 N2 Cl10 O2"
_cell_length_a       6.69497
_cell_length_b       9.60751
_cell_length_c       11.3834
_cell_angle_alpha    76.0537
_cell_angle_beta     90.2543
_cell_angle_gamma    89.3618

_space_group_name_H-M_alt    "P 1"
_space_group_IT_number       1

loop_
  _space_group_symop_operation_xyz
  'x, y, z'

loop_
  _atom_site_type_symbol
  _atom_site_label
  _atom_site_symmetry_multiplicity
  _atom_site_fract_x
  _atom_site_fract_y
  _atom_site_fract_z
  _atom_site_occupancy
  Cd  Cd1       1.0  0.74326  0.23311  0.75935  1.0000
  Cd  Cd2       1.0  0.25674  0.76688  0.24066  1.0000
  Cd  Cd3       1.0  0.24559  0.07580  0.91779  1.0000
  Cd  Cd4       1.0  0.75441  0.92420  0.08221  1.0000
  H   H1        1.0  0.70492  0.48699  0.88620  1.0000
  H   H2        1.0  0.29507  0.51301  0.11380  1.0000
  H   H3        1.0  0.81609  0.64118  0.91485  1.0000
  H   H4        1.0  0.18390  0.35882  0.08515  1.0000
  H   H5        1.0  0.65134  0.61578  0.66681  1.0000
  H   H6        1.0  0.34866  0.38423  0.33318  1.0000
  H   H7        1.0  0.54277  0.71364  0.76616  1.0000
  H   H8        1.0  0.45723  0.28637  0.23384  1.0000
  H   H9        1.0  0.08279  0.85290  0.59610  1.0000
  H   H10       1.0  0.91721  0.14709  0.40390  1.0000
  H   H11       1.0  0.96825  0.69857  0.56617  1.0000
  H   H12       1.0  0.03175  0.30143  0.43383  1.0000
  H   H13       1.0  0.16490  0.72528  0.80578  1.0000
  H   H14       1.0  0.83511  0.27472  0.19422  1.0000
  H   H15       1.0  0.25540  0.62435  0.70478  1.0000
  H   H16       1.0  0.74460  0.37565  0.29522  1.0000
  H   H17       1.0  0.78216  0.99858  0.55128  1.0000
  H   H18       1.0  0.21785  0.00142  0.44872  1.0000
  H   H19       1.0  0.55314  0.93088  0.61985  1.0000
  H   H20       1.0  0.44688  0.06913  0.38016  1.0000
  H   H21       1.0  0.66289  0.84934  0.50846  1.0000
  H   H22       1.0  0.33712  0.15067  0.49154  1.0000
  H   H23       1.0  0.10483  0.39423  0.72265  1.0000
  H   H24       1.0  0.89517  0.60577  0.27736  1.0000
  H   H25       1.0  0.83593  0.85682  0.74538  1.0000
  H   H26       1.0  0.16408  0.14318  0.25463  1.0000
  H   H27       1.0  0.08241  0.47774  0.89236  1.0000
  H   H28       1.0  0.91758  0.52226  0.10764  1.0000
  C   C1        1.0  0.00025  0.53333  0.81036  1.0000
  C   C2        1.0  0.99975  0.46667  0.18963  1.0000
  C   C3        1.0  0.79587  0.58030  0.84525  1.0000
  C   C4        1.0  0.20413  0.41970  0.15475  1.0000
  C   C5        1.0  0.68305  0.67243  0.73785  1.0000
  C   C6        1.0  0.31695  0.32757  0.26214  1.0000
  C   C7        1.0  0.00186  0.75497  0.63682  1.0000
  C   C8        1.0  0.99813  0.24503  0.36318  1.0000
  C   C9        1.0  0.11938  0.66171  0.74178  1.0000
  C   C10       1.0  0.88062  0.33829  0.25822  1.0000
  C   C11       1.0  0.69303  0.90206  0.58176  1.0000
  C   C12       1.0  0.30697  0.09795  0.41824  1.0000
  N   N1        1.0  0.80549  0.80093  0.68001  1.0000
  N   N2        1.0  0.19451  0.19907  0.31999  1.0000
  Cl  Cl1       1.0  0.58818  0.96272  0.86037  1.0000
  Cl  Cl2       1.0  0.41182  0.03728  0.13963  1.0000
  Cl  Cl3       1.0  0.41582  0.32264  0.85229  1.0000
  Cl  Cl4       1.0  0.58418  0.67736  0.14771  1.0000
  Cl  Cl5       1.0  0.90793  0.18381  0.98904  1.0000
  Cl  Cl6       1.0  0.09207  0.81619  0.01096  1.0000
  Cl  Cl7       1.0  0.62578  0.30381  0.54946  1.0000
  Cl  Cl8       1.0  0.37422  0.69619  0.45054  1.0000
  Cl  Cl9       1.0  0.06836  0.08837  0.71403  1.0000
  Cl  Cl10      1.0  0.93164  0.91163  0.28597  1.0000
  O   O1        1.0  0.97230  0.43387  0.73380  1.0000
  O   O2        1.0  0.02769  0.56613  0.26620  1.0000
