data_image0
_chemical_formula_structural       Bi8H12C28N4O24
_chemical_formula_sum              "Bi8 H12 C28 N4 O24"
_cell_length_a       3.98141
_cell_length_b       11.911
_cell_length_c       20.811
_cell_angle_alpha    89.0842
_cell_angle_beta     84.5233
_cell_angle_gamma    80.4002

_space_group_name_H-M_alt    "P 1"
_space_group_IT_number       1

loop_
  _space_group_symop_operation_xyz
  'x, y, z'

loop_
  _atom_site_type_symbol
  _atom_site_label
  _atom_site_symmetry_multiplicity
  _atom_site_fract_x
  _atom_site_fract_y
  _atom_site_fract_z
  _atom_site_occupancy
  Bi  Bi1       1.0  0.18690  0.72620  0.90864  1.0000
  Bi  Bi2       1.0  0.82141  0.27388  0.09149  1.0000
  Bi  Bi3       1.0  0.84684  0.22609  0.59136  1.0000
  Bi  Bi4       1.0  0.66349  0.77373  0.40851  1.0000
  Bi  Bi5       1.0  0.78698  0.46875  0.92644  1.0000
  Bi  Bi6       1.0  0.18455  0.53114  0.07347  1.0000
  Bi  Bi7       1.0  0.46495  0.96851  0.57351  1.0000
  Bi  Bi8       1.0  0.00947  0.03113  0.42654  1.0000
  H   H1        1.0  0.20690  0.02154  0.04858  1.0000
  H   H2        1.0  0.27887  0.97841  0.95154  1.0000
  H   H3        1.0  0.00547  0.52167  0.45142  1.0000
  H   H4        1.0  0.98018  0.47825  0.54843  1.0000
  H   H5        1.0  0.63246  0.77208  0.18363  1.0000
  H   H6        1.0  0.58437  0.22820  0.81610  1.0000
  H   H7        1.0  0.56507  0.27205  0.31638  1.0000
  H   H8        1.0  0.15123  0.72804  0.68382  1.0000
  H   H9        1.0  0.35106  0.12921  0.23086  1.0000
  H   H10       1.0  0.70793  0.87103  0.76893  1.0000
  H   H11       1.0  0.33198  0.62919  0.26913  1.0000
  H   H12       1.0  0.22651  0.37094  0.73109  1.0000
  C   C1        1.0  0.29863  0.99835  0.09550  1.0000
  C   C2        1.0  0.39185  0.00173  0.90445  1.0000
  C   C3        1.0  0.14384  0.49840  0.40450  1.0000
  C   C4        1.0  0.04605  0.50161  0.59553  1.0000
  C   C5        1.0  0.42688  0.88505  0.10946  1.0000
  C   C6        1.0  0.41924  0.11514  0.89040  1.0000
  C   C7        1.0  0.28574  0.38506  0.39056  1.0000
  C   C8        1.0  0.05980  0.61500  0.60955  1.0000
  C   C9        1.0  0.53501  0.85967  0.17063  1.0000
  C   C10       1.0  0.56223  0.14058  0.82919  1.0000
  C   C11       1.0  0.45482  0.35964  0.32939  1.0000
  C   C12       1.0  0.14195  0.64043  0.67075  1.0000
  C   C13       1.0  0.50572  0.94762  0.21562  1.0000
  C   C14       1.0  0.66691  0.05259  0.78426  1.0000
  C   C15       1.0  0.47072  0.44756  0.28438  1.0000
  C   C16       1.0  0.20125  0.55248  0.71571  1.0000
  C   C17       1.0  0.37668  0.05876  0.19696  1.0000
  C   C18       1.0  0.63010  0.94144  0.80288  1.0000
  C   C19       1.0  0.32351  0.55872  0.30303  1.0000
  C   C20       1.0  0.18278  0.44133  0.69712  1.0000
  C   C21       1.0  0.42235  0.79364  0.06074  1.0000
  C   C22       1.0  0.27644  0.20636  0.93933  1.0000
  C   C23       1.0  0.23291  0.29371  0.43935  1.0000
  C   C24       1.0  0.96614  0.70623  0.56062  1.0000
  C   C25       1.0  0.58973  0.92302  0.28389  1.0000
  C   C26       1.0  0.79614  0.07705  0.71606  1.0000
  C   C27       1.0  0.62316  0.42296  0.21613  1.0000
  C   C28       1.0  0.26194  0.57698  0.78393  1.0000
  N   N1        1.0  0.27716  0.08396  0.13769  1.0000
  N   N2        1.0  0.49724  0.91620  0.86219  1.0000
  N   N3        1.0  0.16485  0.58397  0.36230  1.0000
  N   N4        1.0  0.10920  0.41610  0.63781  1.0000
  O   O1        1.0  0.24416  0.82254  0.01356  1.0000
  O   O2        1.0  0.07992  0.17750  0.98652  1.0000
  O   O3        1.0  0.00743  0.32263  0.48650  1.0000
  O   O4        1.0  0.81627  0.67745  0.51347  1.0000
  O   O5        1.0  0.58047  0.69425  0.07086  1.0000
  O   O6        1.0  0.34733  0.30560  0.92944  1.0000
  O   O7        1.0  0.40176  0.19440  0.42935  1.0000
  O   O8        1.0  0.02788  0.80539  0.57046  1.0000
  O   O9        1.0  0.68163  0.81731  0.29727  1.0000
  O   O10       1.0  0.79524  0.18275  0.70257  1.0000
  O   O11       1.0  0.72873  0.31727  0.20278  1.0000
  O   O12       1.0  0.24700  0.68270  0.79742  1.0000
  O   O13       1.0  0.55565  0.00507  0.32315  1.0000
  O   O14       1.0  0.88555  0.99483  0.67696  1.0000
  O   O15       1.0  0.62840  0.50503  0.17686  1.0000
  O   O16       1.0  0.31237  0.49479  0.82305  1.0000
  O   O17       1.0  0.71333  0.64659  0.89904  1.0000
  O   O18       1.0  0.25919  0.35340  0.10117  1.0000
  O   O19       1.0  0.36340  0.14640  0.60088  1.0000
  O   O20       1.0  0.11065  0.85339  0.39893  1.0000
  O   O21       1.0  0.22479  0.55044  0.96398  1.0000
  O   O22       1.0  0.73916  0.44934  0.03593  1.0000
  O   O23       1.0  0.93943  0.05023  0.53601  1.0000
  O   O24       1.0  0.52597  0.94933  0.46407  1.0000
