data_image0
_chemical_formula_structural       Cs4H32C56N4O16
_chemical_formula_sum              "Cs4 H32 C56 N4 O16"
_cell_length_a       5.04157
_cell_length_b       15.6301
_cell_length_c       16.5328
_cell_angle_alpha    101.489
_cell_angle_beta     89.9703
_cell_angle_gamma    99.3112

_space_group_name_H-M_alt    "P 1"
_space_group_IT_number       1

loop_
  _space_group_symop_operation_xyz
  'x, y, z'

loop_
  _atom_site_type_symbol
  _atom_site_label
  _atom_site_symmetry_multiplicity
  _atom_site_fract_x
  _atom_site_fract_y
  _atom_site_fract_z
  _atom_site_occupancy
  Cs  Cs1       1.0  0.99999  0.00000  0.50000  1.0000
  Cs  Cs2       1.0  1.00000  0.00000  0.00000  1.0000
  Cs  Cs3       1.0  0.19499  0.99992  0.75000  1.0000
  Cs  Cs4       1.0  0.80501  0.00008  0.25000  1.0000
  H   H1        1.0  0.80913  0.52871  0.48376  1.0000
  H   H2        1.0  0.28229  0.47096  0.01576  1.0000
  H   H3        1.0  0.19087  0.47130  0.51625  1.0000
  H   H4        1.0  0.71765  0.52904  0.98424  1.0000
  H   H5        1.0  0.42717  0.46883  0.38224  1.0000
  H   H6        1.0  0.96075  0.53112  0.11733  1.0000
  H   H7        1.0  0.57283  0.53118  0.61776  1.0000
  H   H8        1.0  0.03918  0.46886  0.88268  1.0000
  H   H9        1.0  0.36956  0.54210  0.26429  1.0000
  H   H10       1.0  0.82881  0.45795  0.23533  1.0000
  H   H11       1.0  0.63045  0.45791  0.73571  1.0000
  H   H12       1.0  0.17118  0.54204  0.76468  1.0000
  H   H13       1.0  0.53086  0.65966  0.18520  1.0000
  H   H14       1.0  0.87230  0.34068  0.31468  1.0000
  H   H15       1.0  0.46915  0.34035  0.81480  1.0000
  H   H16       1.0  0.12770  0.65931  0.68533  1.0000
  H   H17       1.0  0.85717  0.79215  0.17130  1.0000
  H   H18       1.0  0.06599  0.20834  0.32889  1.0000
  H   H19       1.0  0.14284  0.20786  0.82869  1.0000
  H   H20       1.0  0.93401  0.79165  0.67112  1.0000
  H   H21       1.0  0.24088  0.84911  0.27226  1.0000
  H   H22       1.0  0.39295  0.15123  0.22801  1.0000
  H   H23       1.0  0.75913  0.15090  0.72773  1.0000
  H   H24       1.0  0.60704  0.84876  0.77198  1.0000
  H   H25       1.0  0.76888  0.80348  0.51153  1.0000
  H   H26       1.0  0.96725  0.19645  0.98848  1.0000
  H   H27       1.0  0.23113  0.19654  0.48846  1.0000
  H   H28       1.0  0.03273  0.80354  0.01152  1.0000
  H   H29       1.0  0.58976  0.73721  0.57582  1.0000
  H   H30       1.0  0.85443  0.26256  0.92410  1.0000
  H   H31       1.0  0.41027  0.26280  0.42418  1.0000
  H   H32       1.0  0.14556  0.73744  0.07590  1.0000
  C   C1        1.0  0.19175  0.66942  0.48477  1.0000
  C   C2        1.0  0.52403  0.33031  0.01499  1.0000
  C   C3        1.0  0.80827  0.33058  0.51523  1.0000
  C   C4        1.0  0.47594  0.66969  0.98500  1.0000
  C   C5        1.0  0.96978  0.63398  0.42308  1.0000
  C   C6        1.0  0.33712  0.36578  0.07659  1.0000
  C   C7        1.0  0.03024  0.36602  0.57692  1.0000
  C   C8        1.0  0.66286  0.63421  0.92341  1.0000
  C   C9        1.0  0.94324  0.67567  0.35552  1.0000
  C   C10       1.0  0.26862  0.32421  0.14423  1.0000
  C   C11       1.0  0.05678  0.32434  0.64447  1.0000
  C   C12       1.0  0.73139  0.67578  0.85578  1.0000
  C   C13       1.0  0.13018  0.75076  0.34560  1.0000
  C   C14       1.0  0.38058  0.24925  0.15434  1.0000
  C   C15       1.0  0.86983  0.24924  0.65439  1.0000
  C   C16       1.0  0.61941  0.75074  0.84566  1.0000
  C   C17       1.0  0.35427  0.78687  0.40643  1.0000
  C   C18       1.0  0.56891  0.21312  0.09362  1.0000
  C   C19       1.0  0.64575  0.21313  0.59356  1.0000
  C   C20       1.0  0.43107  0.78687  0.90638  1.0000
  C   C21       1.0  0.78468  0.56062  0.43210  1.0000
  C   C22       1.0  0.22576  0.43913  0.06749  1.0000
  C   C23       1.0  0.21534  0.43939  0.56790  1.0000
  C   C24       1.0  0.77420  0.56086  0.93251  1.0000
  C   C25       1.0  0.56873  0.52703  0.37458  1.0000
  C   C26       1.0  0.04342  0.47283  0.12498  1.0000
  C   C27       1.0  0.43127  0.47298  0.62542  1.0000
  C   C28       1.0  0.95655  0.52716  0.87502  1.0000
  C   C29       1.0  0.53731  0.56738  0.30876  1.0000
  C   C30       1.0  0.97123  0.43258  0.19086  1.0000
  C   C31       1.0  0.46271  0.43263  0.69124  1.0000
  C   C32       1.0  0.02875  0.56742  0.80915  1.0000
  C   C33       1.0  0.72306  0.64215  0.29722  1.0000
  C   C34       1.0  0.08189  0.35782  0.20248  1.0000
  C   C35       1.0  0.27696  0.35786  0.70277  1.0000
  C   C36       1.0  0.91812  0.64217  0.79753  1.0000
  C   C37       1.0  0.69674  0.68505  0.23042  1.0000
  C   C38       1.0  0.01264  0.31514  0.26945  1.0000
  C   C39       1.0  0.30328  0.31495  0.76958  1.0000
  C   C40       1.0  0.98736  0.68485  0.73055  1.0000
  C   C41       1.0  0.88035  0.75853  0.22212  1.0000
  C   C42       1.0  0.12285  0.24178  0.27794  1.0000
  C   C43       1.0  0.11968  0.24147  0.77787  1.0000
  C   C44       1.0  0.87716  0.75821  0.72207  1.0000
  C   C45       1.0  0.09725  0.79125  0.27950  1.0000
  C   C46       1.0  0.30705  0.20896  0.22060  1.0000
  C   C47       1.0  0.90277  0.20876  0.72050  1.0000
  C   C48       1.0  0.69294  0.79103  0.77940  1.0000
  C   C49       1.0  0.57240  0.78560  0.53728  1.0000
  C   C50       1.0  0.78863  0.21420  0.96268  1.0000
  C   C51       1.0  0.42762  0.21441  0.46272  1.0000
  C   C52       1.0  0.21136  0.78579  0.03732  1.0000
  C   C53       1.0  0.48431  0.86852  0.59167  1.0000
  C   C54       1.0  0.61795  0.13119  0.90829  1.0000
  C   C55       1.0  0.51570  0.13149  0.40833  1.0000
  C   C56       1.0  0.38206  0.86880  0.09171  1.0000
  N   N1        1.0  0.37443  0.74282  0.47141  1.0000
  N   N2        1.0  0.63308  0.25698  0.02849  1.0000
  N   N3        1.0  0.62558  0.25719  0.52859  1.0000
  N   N4        1.0  0.36689  0.74302  0.97150  1.0000
  O   O1        1.0  0.21936  0.63721  0.54623  1.0000
  O   O2        1.0  0.58435  0.36246  0.95351  1.0000
  O   O3        1.0  0.78065  0.36280  0.45377  1.0000
  O   O4        1.0  0.41561  0.63754  0.04649  1.0000
  O   O5        1.0  0.51925  0.85411  0.40249  1.0000
  O   O6        1.0  0.66715  0.14609  0.09781  1.0000
  O   O7        1.0  0.48075  0.14590  0.59751  1.0000
  O   O8        1.0  0.33283  0.85391  0.90218  1.0000
  O   O9        1.0  0.66155  0.91826  0.64185  1.0000
  O   O10       1.0  0.74577  0.08165  0.85802  1.0000
  O   O11       1.0  0.33846  0.08174  0.35816  1.0000
  O   O12       1.0  0.25426  0.91834  0.14198  1.0000
  O   O13       1.0  0.24346  0.87910  0.58247  1.0000
  O   O14       1.0  0.36652  0.12034  0.91759  1.0000
  O   O15       1.0  0.75655  0.12091  0.41753  1.0000
  O   O16       1.0  0.63348  0.87965  0.08240  1.0000
