data_image0
_chemical_formula_structural       Cd2H12C14N4O8
_chemical_formula_sum              "Cd2 H12 C14 N4 O8"
_cell_length_a       7.01464
_cell_length_b       7.86849
_cell_length_c       7.86852
_cell_angle_alpha    73.4433
_cell_angle_beta     75.0962
_cell_angle_gamma    75.0953

_space_group_name_H-M_alt    "P 1"
_space_group_IT_number       1

loop_
  _space_group_symop_operation_xyz
  'x, y, z'

loop_
  _atom_site_type_symbol
  _atom_site_label
  _atom_site_symmetry_multiplicity
  _atom_site_fract_x
  _atom_site_fract_y
  _atom_site_fract_z
  _atom_site_occupancy
  Cd  Cd1       1.0  0.63628  0.37710  0.04194  1.0000
  Cd  Cd2       1.0  0.13628  0.04194  0.37710  1.0000
  H   H1        1.0  0.70485  0.13042  0.45107  1.0000
  H   H2        1.0  0.20486  0.45107  0.13042  1.0000
  H   H3        1.0  0.74415  0.06361  0.66354  1.0000
  H   H4        1.0  0.24415  0.66353  0.06362  1.0000
  H   H5        1.0  0.66388  0.36888  0.64268  1.0000
  H   H6        1.0  0.16387  0.64269  0.36888  1.0000
  H   H7        1.0  0.71172  0.88938  0.28560  1.0000
  H   H8        1.0  0.21171  0.28560  0.88937  1.0000
  H   H9        1.0  0.74827  0.76649  0.84965  1.0000
  H   H10       1.0  0.24828  0.84965  0.76650  1.0000
  H   H11       1.0  0.46627  0.94611  0.00373  1.0000
  H   H12       1.0  0.96628  0.00373  0.94611  1.0000
  C   C1        1.0  0.67056  0.55227  0.29166  1.0000
  C   C2        1.0  0.17055  0.29166  0.55227  1.0000
  C   C3        1.0  0.68819  0.62127  0.44460  1.0000
  C   C4        1.0  0.18818  0.44461  0.62127  1.0000
  C   C5        1.0  0.68510  0.50642  0.61633  1.0000
  C   C6        1.0  0.18510  0.61634  0.50642  1.0000
  C   C7        1.0  0.71134  0.79800  0.41828  1.0000
  C   C8        1.0  0.21133  0.41828  0.79801  1.0000
  C   C9        1.0  0.73035  0.73109  0.73134  1.0000
  C   C10       1.0  0.23035  0.73134  0.73109  1.0000
  C   C11       1.0  0.73422  0.85602  0.56322  1.0000
  C   C12       1.0  0.23422  0.56322  0.85602  1.0000
  C   C13       1.0  0.51256  0.06480  0.01662  1.0000
  C   C14       1.0  0.01256  0.01662  0.06480  1.0000
  N   N1        1.0  0.77454  0.02727  0.54180  1.0000
  N   N2        1.0  0.27454  0.54180  0.02727  1.0000
  N   N3        1.0  0.70627  0.56107  0.75592  1.0000
  N   N4        1.0  0.20627  0.75593  0.56108  1.0000
  O   O1        1.0  0.70952  0.64565  0.13193  1.0000
  O   O2        1.0  0.20951  0.13193  0.64565  1.0000
  O   O3        1.0  0.61609  0.39910  0.33045  1.0000
  O   O4        1.0  0.11608  0.33046  0.39910  1.0000
  O   O5        1.0  0.63981  0.13840  0.88979  1.0000
  O   O6        1.0  0.13981  0.88978  0.13840  1.0000
  O   O7        1.0  0.43489  0.12294  0.16021  1.0000
  O   O8        1.0  0.93489  0.16020  0.12294  1.0000
