data_image0
_chemical_formula_structural       Ni2H56C40O14
_chemical_formula_sum              "Ni2 H56 C40 O14"
_cell_length_a       7.56785
_cell_length_b       9.71201
_cell_length_c       15.4346
_cell_angle_alpha    105.095
_cell_angle_beta     90.3941
_cell_angle_gamma    90.7029

_space_group_name_H-M_alt    "P 1"
_space_group_IT_number       1

loop_
  _space_group_symop_operation_xyz
  'x, y, z'

loop_
  _atom_site_type_symbol
  _atom_site_label
  _atom_site_symmetry_multiplicity
  _atom_site_fract_x
  _atom_site_fract_y
  _atom_site_fract_z
  _atom_site_occupancy
  Ni  Ni1       1.0  0.50000  0.50000  0.50000  1.0000
  Ni  Ni2       1.0  0.00001  0.50000  0.50000  1.0000
  H   H1        1.0  0.70629  0.42248  0.61639  1.0000
  H   H2        1.0  0.29372  0.57752  0.38361  1.0000
  H   H3        1.0  0.50937  0.42525  0.65510  1.0000
  H   H4        1.0  0.49063  0.57475  0.34490  1.0000
  H   H5        1.0  0.25985  0.32737  0.45306  1.0000
  H   H6        1.0  0.74015  0.67263  0.54694  1.0000
  H   H7        1.0  0.23478  0.39134  0.56705  1.0000
  H   H8        1.0  0.76522  0.60866  0.43295  1.0000
  H   H9        1.0  0.98645  0.25718  0.36983  1.0000
  H   H10       1.0  0.01355  0.74281  0.63017  1.0000
  H   H11       1.0  0.79019  0.29592  0.40583  1.0000
  H   H12       1.0  0.20981  0.70408  0.59417  1.0000
  H   H13       1.0  0.82395  0.82677  0.25015  1.0000
  H   H14       1.0  0.17604  0.17323  0.74984  1.0000
  H   H15       1.0  0.63720  0.04449  0.05876  1.0000
  H   H16       1.0  0.36280  0.95552  0.94124  1.0000
  H   H17       1.0  0.68053  0.87779  0.39765  1.0000
  H   H18       1.0  0.31946  0.12221  0.60235  1.0000
  H   H19       1.0  0.55141  0.03346  0.43721  1.0000
  H   H20       1.0  0.44858  0.96653  0.56278  1.0000
  H   H21       1.0  0.78425  0.04849  0.43413  1.0000
  H   H22       1.0  0.21573  0.95150  0.56587  1.0000
  H   H23       1.0  0.98040  0.88545  0.06530  1.0000
  H   H24       1.0  0.01961  0.11455  0.93469  1.0000
  H   H25       1.0  0.78548  0.80301  0.01050  1.0000
  H   H26       1.0  0.21452  0.19699  0.98950  1.0000
  H   H27       1.0  0.89207  0.73385  0.09350  1.0000
  H   H28       1.0  0.10793  0.26615  0.90649  1.0000
  H   H29       1.0  0.43612  0.23482  0.10033  1.0000
  H   H30       1.0  0.56388  0.76518  0.89967  1.0000
  H   H31       1.0  0.48500  0.35033  0.20728  1.0000
  H   H32       1.0  0.51501  0.64967  0.79272  1.0000
  H   H33       1.0  0.29925  0.23464  0.19369  1.0000
  H   H34       1.0  0.70075  0.76536  0.80631  1.0000
  H   H35       1.0  0.65161  0.12810  0.80136  1.0000
  H   H36       1.0  0.34839  0.87190  0.19864  1.0000
  H   H37       1.0  0.83296  0.53448  0.96558  1.0000
  H   H38       1.0  0.16703  0.46552  0.03442  1.0000
  H   H39       1.0  0.77682  0.03107  0.65593  1.0000
  H   H40       1.0  0.22318  0.96893  0.34407  1.0000
  H   H41       1.0  0.95046  0.12233  0.61574  1.0000
  H   H42       1.0  0.04954  0.87767  0.38426  1.0000
  H   H43       1.0  0.72806  0.16588  0.60089  1.0000
  H   H44       1.0  0.27194  0.83411  0.39911  1.0000
  H   H45       1.0  0.51021  0.23942  0.94759  1.0000
  H   H46       1.0  0.48978  0.76058  0.05241  1.0000
  H   H47       1.0  0.59296  0.40424  0.01777  1.0000
  H   H48       1.0  0.40703  0.59576  0.98223  1.0000
  H   H49       1.0  0.71090  0.24506  0.00782  1.0000
  H   H50       1.0  0.28910  0.75494  0.99218  1.0000
  H   H51       1.0  0.17841  0.58942  0.83089  1.0000
  H   H52       1.0  0.82159  0.41059  0.16912  1.0000
  H   H53       1.0  0.02107  0.68505  0.90790  1.0000
  H   H54       1.0  0.97893  0.31496  0.09210  1.0000
  H   H55       1.0  0.99848  0.67050  0.79121  1.0000
  H   H56       1.0  0.00151  0.32951  0.20880  1.0000
  C   C1        1.0  0.47014  0.22343  0.35595  1.0000
  C   C2        1.0  0.52986  0.77657  0.64405  1.0000
  C   C3        1.0  0.55933  0.11516  0.28271  1.0000
  C   C4        1.0  0.44067  0.88484  0.71729  1.0000
  C   C5        1.0  0.65824  0.00665  0.30399  1.0000
  C   C6        1.0  0.34176  0.99335  0.69601  1.0000
  C   C7        1.0  0.74992  0.91330  0.23487  1.0000
  C   C8        1.0  0.25008  0.08670  0.76513  1.0000
  C   C9        1.0  0.74782  0.92780  0.14714  1.0000
  C   C10       1.0  0.25218  0.07219  0.85285  1.0000
  C   C11       1.0  0.64402  0.03476  0.12766  1.0000
  C   C12       1.0  0.35598  0.96524  0.87234  1.0000
  C   C13       1.0  0.54821  0.12882  0.19416  1.0000
  C   C14       1.0  0.45180  0.87119  0.80584  1.0000
  C   C15       1.0  0.66835  0.99048  0.39826  1.0000
  C   C16       1.0  0.33164  0.00952  0.60174  1.0000
  C   C17       1.0  0.85602  0.83182  0.07531  1.0000
  C   C18       1.0  0.14398  0.16818  0.92469  1.0000
  C   C19       1.0  0.43637  0.24266  0.17241  1.0000
  C   C20       1.0  0.56363  0.75734  0.82759  1.0000
  C   C21       1.0  0.02055  0.40035  0.66904  1.0000
  C   C22       1.0  0.97945  0.59965  0.33096  1.0000
  C   C23       1.0  0.92491  0.37305  0.74786  1.0000
  C   C24       1.0  0.07509  0.62695  0.25214  1.0000
  C   C25       1.0  0.82552  0.24593  0.73640  1.0000
  C   C26       1.0  0.17449  0.75407  0.26361  1.0000
  C   C27       1.0  0.72934  0.22620  0.80948  1.0000
  C   C28       1.0  0.27064  0.77380  0.19052  1.0000
  C   C29       1.0  0.73016  0.32906  0.89203  1.0000
  C   C30       1.0  0.26983  0.67094  0.10797  1.0000
  C   C31       1.0  0.83077  0.45407  0.90123  1.0000
  C   C32       1.0  0.16922  0.54593  0.09877  1.0000
  C   C33       1.0  0.92929  0.47815  0.83014  1.0000
  C   C34       1.0  0.07071  0.52185  0.16986  1.0000
  C   C35       1.0  0.82024  0.13499  0.64775  1.0000
  C   C36       1.0  0.17976  0.86501  0.35225  1.0000
  C   C37       1.0  0.62997  0.30375  0.97025  1.0000
  C   C38       1.0  0.37003  0.69625  0.02975  1.0000
  C   C39       1.0  0.03711  0.61291  0.84093  1.0000
  C   C40       1.0  0.96288  0.38709  0.15907  1.0000
  O   O1        1.0  0.57410  0.32228  0.40228  1.0000
  O   O2        1.0  0.42590  0.67773  0.59771  1.0000
  O   O3        1.0  0.30590  0.21585  0.36863  1.0000
  O   O4        1.0  0.69411  0.78415  0.63137  1.0000
  O   O5        1.0  0.57854  0.39827  0.60044  1.0000
  O   O6        1.0  0.42146  0.60172  0.39956  1.0000
  O   O7        1.0  0.24861  0.41774  0.50637  1.0000
  O   O8        1.0  0.75139  0.58225  0.49363  1.0000
  O   O9        1.0  0.92264  0.44959  0.61541  1.0000
  O   O10       1.0  0.07736  0.55041  0.38459  1.0000
  O   O11       1.0  0.18372  0.37603  0.65861  1.0000
  O   O12       1.0  0.81628  0.62397  0.34140  1.0000
  O   O13       1.0  0.91738  0.29198  0.42396  1.0000
  O   O14       1.0  0.08262  0.70801  0.57604  1.0000
