data_image0
_chemical_formula_structural       Ag4H32C56N4O8
_chemical_formula_sum              "Ag4 H32 C56 N4 O8"
_cell_length_a       8.06899
_cell_length_b       9.18383
_cell_length_c       17.5799
_cell_angle_alpha    89.9999
_cell_angle_beta     90.0005
_cell_angle_gamma    90.0003

_space_group_name_H-M_alt    "P 1"
_space_group_IT_number       1

loop_
  _space_group_symop_operation_xyz
  'x, y, z'

loop_
  _atom_site_type_symbol
  _atom_site_label
  _atom_site_symmetry_multiplicity
  _atom_site_fract_x
  _atom_site_fract_y
  _atom_site_fract_z
  _atom_site_occupancy
  Ag  Ag1       1.0  0.63600  0.69819  0.24098  1.0000
  Ag  Ag2       1.0  0.36400  0.30181  0.74098  1.0000
  Ag  Ag3       1.0  0.86400  0.69819  0.74098  1.0000
  Ag  Ag4       1.0  0.13600  0.30181  0.24098  1.0000
  H   H1        1.0  0.43591  0.35085  0.34524  1.0000
  H   H2        1.0  0.56409  0.64915  0.84524  1.0000
  H   H3        1.0  0.06410  0.35085  0.84524  1.0000
  H   H4        1.0  0.93590  0.64915  0.34524  1.0000
  H   H5        1.0  0.28405  0.20874  0.44337  1.0000
  H   H6        1.0  0.71595  0.79126  0.94337  1.0000
  H   H7        1.0  0.21595  0.20874  0.94337  1.0000
  H   H8        1.0  0.78405  0.79126  0.44337  1.0000
  H   H9        1.0  0.28558  0.93718  0.43875  1.0000
  H   H10       1.0  0.71443  0.06282  0.93875  1.0000
  H   H11       1.0  0.21443  0.93718  0.93875  1.0000
  H   H12       1.0  0.78558  0.06282  0.43875  1.0000
  H   H13       1.0  0.95597  0.93296  0.02498  1.0000
  H   H14       1.0  0.04403  0.06704  0.52498  1.0000
  H   H15       1.0  0.54403  0.93296  0.52498  1.0000
  H   H16       1.0  0.45596  0.06703  0.02498  1.0000
  H   H17       1.0  0.95559  0.20410  0.01861  1.0000
  H   H18       1.0  0.04441  0.79590  0.51860  1.0000
  H   H19       1.0  0.54441  0.20410  0.51860  1.0000
  H   H20       1.0  0.45558  0.79589  0.01861  1.0000
  H   H21       1.0  0.79658  0.34801  0.11278  1.0000
  H   H22       1.0  0.20341  0.65200  0.61278  1.0000
  H   H23       1.0  0.70341  0.34801  0.61278  1.0000
  H   H24       1.0  0.29658  0.65199  0.11278  1.0000
  H   H25       1.0  0.79918  0.80365  0.12549  1.0000
  H   H26       1.0  0.20082  0.19635  0.62549  1.0000
  H   H27       1.0  0.70082  0.80365  0.62549  1.0000
  H   H28       1.0  0.29918  0.19635  0.12549  1.0000
  H   H29       1.0  0.44224  0.80676  0.33859  1.0000
  H   H30       1.0  0.55776  0.19323  0.83859  1.0000
  H   H31       1.0  0.05776  0.80677  0.83859  1.0000
  H   H32       1.0  0.94224  0.19324  0.33858  1.0000
  C   C1        1.0  0.58962  0.39822  0.21899  1.0000
  C   C2        1.0  0.41038  0.60178  0.71899  1.0000
  C   C3        1.0  0.91038  0.39822  0.71899  1.0000
  C   C4        1.0  0.08962  0.60178  0.21899  1.0000
  C   C5        1.0  0.60921  0.23608  0.22697  1.0000
  C   C6        1.0  0.39079  0.76392  0.72697  1.0000
  C   C7        1.0  0.89079  0.23608  0.72697  1.0000
  C   C8        1.0  0.10921  0.76392  0.22697  1.0000
  C   C9        1.0  0.52646  0.16002  0.28521  1.0000
  C   C10       1.0  0.47355  0.83998  0.78521  1.0000
  C   C11       1.0  0.97355  0.16002  0.78521  1.0000
  C   C12       1.0  0.02645  0.83998  0.28521  1.0000
  C   C13       1.0  0.43521  0.23214  0.34384  1.0000
  C   C14       1.0  0.56480  0.76786  0.84384  1.0000
  C   C15       1.0  0.06480  0.23214  0.84384  1.0000
  C   C16       1.0  0.93520  0.76786  0.34384  1.0000
  C   C17       1.0  0.35305  0.15316  0.39865  1.0000
  C   C18       1.0  0.64695  0.84684  0.89865  1.0000
  C   C19       1.0  0.14695  0.15316  0.89865  1.0000
  C   C20       1.0  0.85305  0.84684  0.39865  1.0000
  C   C21       1.0  0.35507  0.99871  0.39642  1.0000
  C   C22       1.0  0.64493  0.00129  0.89642  1.0000
  C   C23       1.0  0.14493  0.99871  0.89642  1.0000
  C   C24       1.0  0.85507  0.00129  0.39642  1.0000
  C   C25       1.0  0.44186  0.92582  0.34098  1.0000
  C   C26       1.0  0.55815  0.07418  0.84099  1.0000
  C   C27       1.0  0.05815  0.92582  0.84099  1.0000
  C   C28       1.0  0.94186  0.07419  0.34098  1.0000
  C   C29       1.0  0.53174  0.00341  0.28444  1.0000
  C   C30       1.0  0.46826  0.99659  0.78444  1.0000
  C   C31       1.0  0.96826  0.00341  0.78444  1.0000
  C   C32       1.0  0.03174  0.99659  0.28444  1.0000
  C   C33       1.0  0.70430  0.00170  0.17690  1.0000
  C   C34       1.0  0.29570  0.99829  0.67690  1.0000
  C   C35       1.0  0.79570  0.00171  0.67690  1.0000
  C   C36       1.0  0.20430  0.99829  0.17690  1.0000
  C   C37       1.0  0.79679  0.92254  0.12188  1.0000
  C   C38       1.0  0.20321  0.07746  0.62188  1.0000
  C   C39       1.0  0.70321  0.92254  0.62188  1.0000
  C   C40       1.0  0.29679  0.07746  0.12188  1.0000
  C   C41       1.0  0.88392  0.99489  0.06632  1.0000
  C   C42       1.0  0.11608  0.00512  0.56632  1.0000
  C   C43       1.0  0.61607  0.99488  0.56632  1.0000
  C   C44       1.0  0.38392  0.00511  0.06632  1.0000
  C   C45       1.0  0.88382  0.14933  0.06258  1.0000
  C   C46       1.0  0.11618  0.85068  0.56258  1.0000
  C   C47       1.0  0.61618  0.14932  0.56258  1.0000
  C   C48       1.0  0.38381  0.85067  0.06258  1.0000
  C   C49       1.0  0.79527  0.22936  0.11460  1.0000
  C   C50       1.0  0.20473  0.77064  0.61460  1.0000
  C   C51       1.0  0.70473  0.22936  0.61460  1.0000
  C   C52       1.0  0.29527  0.77064  0.11460  1.0000
  C   C53       1.0  0.70259  0.15824  0.17288  1.0000
  C   C54       1.0  0.29741  0.84176  0.67288  1.0000
  C   C55       1.0  0.79741  0.15824  0.67288  1.0000
  C   C56       1.0  0.20259  0.84176  0.17288  1.0000
  N   N1        1.0  0.61871  0.92841  0.23125  1.0000
  N   N2        1.0  0.38129  0.07159  0.73125  1.0000
  N   N3        1.0  0.88129  0.92841  0.73125  1.0000
  N   N4        1.0  0.11871  0.07159  0.23125  1.0000
  O   O1        1.0  0.49870  0.44307  0.16647  1.0000
  O   O2        1.0  0.50131  0.55692  0.66647  1.0000
  O   O3        1.0  0.00130  0.44308  0.66648  1.0000
  O   O4        1.0  0.99869  0.55692  0.16647  1.0000
  O   O5        1.0  0.66924  0.47518  0.26800  1.0000
  O   O6        1.0  0.33076  0.52482  0.76800  1.0000
  O   O7        1.0  0.83076  0.47518  0.76800  1.0000
  O   O8        1.0  0.16924  0.52482  0.26800  1.0000
