data_image0
_chemical_formula_structural       Cu4H24C32N12Cl4
_chemical_formula_sum              "Cu4 H24 C32 N12 Cl4"
_cell_length_a       3.77831
_cell_length_b       13.8122
_cell_length_c       15.2741
_cell_angle_alpha    90.0444
_cell_angle_beta     90.0897
_cell_angle_gamma    94.1977

_space_group_name_H-M_alt    "P 1"
_space_group_IT_number       1

loop_
  _space_group_symop_operation_xyz
  'x, y, z'

loop_
  _atom_site_type_symbol
  _atom_site_label
  _atom_site_symmetry_multiplicity
  _atom_site_fract_x
  _atom_site_fract_y
  _atom_site_fract_z
  _atom_site_occupancy
  Cu  Cu1       1.0  0.66412  0.42463  0.60035  1.0000
  Cu  Cu2       1.0  0.33954  0.07547  0.09963  1.0000
  Cu  Cu3       1.0  0.33588  0.57538  0.39965  1.0000
  Cu  Cu4       1.0  0.66043  0.92453  0.90037  1.0000
  H   H1        1.0  0.46651  0.66903  0.83631  1.0000
  H   H2        1.0  0.53124  0.83100  0.33622  1.0000
  H   H3        1.0  0.53348  0.33097  0.16369  1.0000
  H   H4        1.0  0.46876  0.16900  0.66378  1.0000
  H   H5        1.0  0.66059  0.57288  0.96337  1.0000
  H   H6        1.0  0.33853  0.92745  0.46320  1.0000
  H   H7        1.0  0.33938  0.42712  0.03662  1.0000
  H   H8        1.0  0.66155  0.07255  0.53681  1.0000
  H   H9        1.0  0.84699  0.40291  0.93695  1.0000
  H   H10       1.0  0.15385  0.09759  0.43674  1.0000
  H   H11       1.0  0.15299  0.59709  0.06304  1.0000
  H   H12       1.0  0.84620  0.90242  0.56328  1.0000
  H   H13       1.0  0.85576  0.34196  0.78242  1.0000
  H   H14       1.0  0.14616  0.15843  0.28220  1.0000
  H   H15       1.0  0.14425  0.65805  0.21758  1.0000
  H   H16       1.0  0.85385  0.84156  0.71780  1.0000
  H   H17       1.0  0.25474  0.74765  0.69816  1.0000
  H   H18       1.0  0.74494  0.75215  0.19779  1.0000
  H   H19       1.0  0.74524  0.25235  0.30184  1.0000
  H   H20       1.0  0.25503  0.24785  0.80221  1.0000
  H   H21       1.0  0.13152  0.74629  0.51825  1.0000
  H   H22       1.0  0.86626  0.75422  0.01751  1.0000
  H   H23       1.0  0.86844  0.25371  0.48176  1.0000
  H   H24       1.0  0.13377  0.24578  0.98248  1.0000
  C   C1        1.0  0.56106  0.55585  0.74318  1.0000
  C   C2        1.0  0.43876  0.94435  0.24312  1.0000
  C   C3        1.0  0.43894  0.44416  0.25682  1.0000
  C   C4        1.0  0.56121  0.05565  0.75688  1.0000
  C   C5        1.0  0.55542  0.59645  0.82718  1.0000
  C   C6        1.0  0.44366  0.90369  0.32707  1.0000
  C   C7        1.0  0.44457  0.40355  0.17281  1.0000
  C   C8        1.0  0.55635  0.09630  0.67292  1.0000
  C   C9        1.0  0.66219  0.54225  0.89764  1.0000
  C   C10       1.0  0.33748  0.95805  0.39749  1.0000
  C   C11       1.0  0.33780  0.45774  0.10236  1.0000
  C   C12       1.0  0.66257  0.04194  0.60252  1.0000
  C   C13       1.0  0.76712  0.44864  0.88348  1.0000
  C   C14       1.0  0.23347  0.05173  0.38330  1.0000
  C   C15       1.0  0.23288  0.55136  0.11652  1.0000
  C   C16       1.0  0.76657  0.94826  0.61670  1.0000
  C   C17       1.0  0.77116  0.41349  0.79815  1.0000
  C   C18       1.0  0.23025  0.08686  0.29797  1.0000
  C   C19       1.0  0.22886  0.58651  0.20185  1.0000
  C   C20       1.0  0.76976  0.91314  0.70203  1.0000
  C   C21       1.0  0.44737  0.60345  0.66526  1.0000
  C   C22       1.0  0.55180  0.89644  0.16533  1.0000
  C   C23       1.0  0.55263  0.39655  0.33473  1.0000
  C   C24       1.0  0.44817  0.10356  0.83467  1.0000
  C   C25       1.0  0.30764  0.69311  0.64986  1.0000
  C   C26       1.0  0.69134  0.80675  0.14964  1.0000
  C   C27       1.0  0.69234  0.30690  0.35014  1.0000
  C   C28       1.0  0.30864  0.19325  0.85036  1.0000
  C   C29       1.0  0.24652  0.69358  0.56001  1.0000
  C   C30       1.0  0.75135  0.80648  0.05976  1.0000
  C   C31       1.0  0.75345  0.30642  0.43999  1.0000
  C   C32       1.0  0.24866  0.19353  0.94023  1.0000
  N   N1        1.0  0.46644  0.55457  0.58831  1.0000
  N   N2        1.0  0.53208  0.94501  0.08822  1.0000
  N   N3        1.0  0.53356  0.44544  0.41169  1.0000
  N   N4        1.0  0.46791  0.05497  0.91178  1.0000
  N   N5        1.0  0.34377  0.60900  0.52461  1.0000
  N   N6        1.0  0.65320  0.89143  0.02509  1.0000
  N   N7        1.0  0.65622  0.39100  0.47539  1.0000
  N   N8        1.0  0.34681  0.10857  0.97490  1.0000
  N   N9        1.0  0.67436  0.46598  0.72956  1.0000
  N   N10       1.0  0.32715  0.03428  0.22949  1.0000
  N   N11       1.0  0.32565  0.53403  0.27044  1.0000
  N   N12       1.0  0.67284  0.96571  0.77051  1.0000
  Cl  Cl1       1.0  0.07722  0.31192  0.63120  1.0000
  Cl  Cl2       1.0  0.92246  0.18782  0.13065  1.0000
  Cl  Cl3       1.0  0.92279  0.68808  0.36880  1.0000
  Cl  Cl4       1.0  0.07754  0.81217  0.86935  1.0000
