data_image0
_chemical_formula_structural       Cu3P2H10C12N2O12
_chemical_formula_sum              "Cu3 P2 H10 C12 N2 O12"
_cell_length_a       6.00525
_cell_length_b       8.32858
_cell_length_c       9.24806
_cell_angle_alpha    83.5151
_cell_angle_beta     72.9559
_cell_angle_gamma    72.7939

_space_group_name_H-M_alt    "P 1"
_space_group_IT_number       1

loop_
  _space_group_symop_operation_xyz
  'x, y, z'

loop_
  _atom_site_type_symbol
  _atom_site_label
  _atom_site_symmetry_multiplicity
  _atom_site_fract_x
  _atom_site_fract_y
  _atom_site_fract_z
  _atom_site_occupancy
  Cu  Cu1       1.0  0.50000  1.00000  1.00000  1.0000
  Cu  Cu2       1.0  0.60593  0.42876  0.13410  1.0000
  Cu  Cu3       1.0  0.39407  0.57124  0.86590  1.0000
  P   P1        1.0  0.14454  0.33594  0.15515  1.0000
  P   P2        1.0  0.85546  0.66406  0.84485  1.0000
  H   H1        1.0  0.98354  0.15215  0.44361  1.0000
  H   H2        1.0  0.01646  0.84785  0.55639  1.0000
  H   H3        1.0  0.14131  0.08966  0.67361  1.0000
  H   H4        1.0  0.85869  0.91035  0.32639  1.0000
  H   H5        1.0  0.66821  0.35745  0.44912  1.0000
  H   H6        1.0  0.33179  0.64255  0.55088  1.0000
  H   H7        1.0  0.23532  0.77894  0.11073  1.0000
  H   H8        1.0  0.76468  0.22107  0.88927  1.0000
  H   H9        1.0  0.05479  0.84169  0.00269  1.0000
  H   H10       1.0  0.94521  0.15831  0.99731  1.0000
  C   C1        1.0  0.24600  0.28437  0.32642  1.0000
  C   C2        1.0  0.75400  0.71563  0.67358  1.0000
  C   C3        1.0  0.13479  0.19531  0.44932  1.0000
  C   C4        1.0  0.86521  0.80469  0.55068  1.0000
  C   C5        1.0  0.22154  0.16066  0.57628  1.0000
  C   C6        1.0  0.77846  0.83934  0.42372  1.0000
  C   C7        1.0  0.41506  0.21990  0.57945  1.0000
  C   C8        1.0  0.58493  0.78010  0.42055  1.0000
  C   C9        1.0  0.51802  0.30806  0.45280  1.0000
  C   C10       1.0  0.48198  0.69194  0.54720  1.0000
  C   C11       1.0  0.51577  0.18474  0.71458  1.0000
  C   C12       1.0  0.48422  0.81527  0.28542  1.0000
  N   N1        1.0  0.43808  0.33572  0.32853  1.0000
  N   N2        1.0  0.56192  0.66428  0.67147  1.0000
  O   O1        1.0  0.18207  0.17083  0.08195  1.0000
  O   O2        1.0  0.81794  0.82917  0.91805  1.0000
  O   O3        1.0  0.31251  0.44492  0.06470  1.0000
  O   O4        1.0  0.68749  0.55508  0.93530  1.0000
  O   O5        1.0  0.87867  0.43859  0.20261  1.0000
  O   O6        1.0  0.12133  0.56141  0.79739  1.0000
  O   O7        1.0  0.65172  0.26771  0.72960  1.0000
  O   O8        1.0  0.34827  0.73230  0.27040  1.0000
  O   O9        1.0  0.45021  0.06615  0.80165  1.0000
  O   O10       1.0  0.54979  0.93385  0.19835  1.0000
  O   O11       1.0  0.22523  0.81140  0.00543  1.0000
  O   O12       1.0  0.77477  0.18860  0.99457  1.0000
