data_image0
_chemical_formula_structural       Sm2H48C66N6O18
_chemical_formula_sum              "Sm2 H48 C66 N6 O18"
_cell_length_a       10.3239
_cell_length_b       11.6791
_cell_length_c       13.857
_cell_angle_alpha    66.7734
_cell_angle_beta     82.657
_cell_angle_gamma    76.942

_space_group_name_H-M_alt    "P 1"
_space_group_IT_number       1

loop_
  _space_group_symop_operation_xyz
  'x, y, z'

loop_
  _atom_site_type_symbol
  _atom_site_label
  _atom_site_symmetry_multiplicity
  _atom_site_fract_x
  _atom_site_fract_y
  _atom_site_fract_z
  _atom_site_occupancy
  Sm  Sm1       1.0  0.61629  0.26048  0.29091  1.0000
  Sm  Sm2       1.0  0.38371  0.73952  0.70909  1.0000
  H   H1        1.0  0.29582  0.30034  0.94752  1.0000
  H   H2        1.0  0.70419  0.69966  0.05249  1.0000
  H   H3        1.0  0.23380  0.17805  0.85663  1.0000
  H   H4        1.0  0.76620  0.82195  0.14337  1.0000
  H   H5        1.0  0.01656  0.10822  0.89798  1.0000
  H   H6        1.0  0.98344  0.89178  0.10202  1.0000
  H   H7        1.0  0.85301  0.17400  0.02581  1.0000
  H   H8        1.0  0.14700  0.82599  0.97419  1.0000
  H   H9        1.0  0.84707  0.44076  0.21618  1.0000
  H   H10       1.0  0.15293  0.55923  0.78382  1.0000
  H   H11       1.0  0.07183  0.49322  0.17600  1.0000
  H   H12       1.0  0.92817  0.50678  0.82400  1.0000
  H   H13       1.0  0.26143  0.49659  0.09665  1.0000
  H   H14       1.0  0.73857  0.50342  0.90334  1.0000
  H   H15       1.0  0.30727  0.44571  0.99148  1.0000
  H   H16       1.0  0.69272  0.55430  0.00851  1.0000
  H   H17       1.0  0.37761  0.00444  0.14882  1.0000
  H   H18       1.0  0.62239  0.99556  0.85118  1.0000
  H   H19       1.0  0.32301  0.99580  0.98573  1.0000
  H   H20       1.0  0.67699  0.00420  0.01427  1.0000
  H   H21       1.0  0.37353  0.79184  0.95619  1.0000
  H   H22       1.0  0.62646  0.20816  0.04382  1.0000
  H   H23       1.0  0.48278  0.59389  0.09576  1.0000
  H   H24       1.0  0.51721  0.40611  0.90425  1.0000
  H   H25       1.0  0.61925  0.49026  0.44176  1.0000
  H   H26       1.0  0.38075  0.50974  0.55824  1.0000
  H   H27       1.0  0.56100  0.69822  0.46314  1.0000
  H   H28       1.0  0.43900  0.30177  0.53686  1.0000
  H   H29       1.0  0.46418  0.89840  0.41345  1.0000
  H   H30       1.0  0.53583  0.10160  0.58655  1.0000
  H   H31       1.0  0.41636  0.99674  0.28403  1.0000
  H   H32       1.0  0.58364  0.00326  0.71597  1.0000
  H   H33       1.0  0.83804  0.45228  0.42749  1.0000
  H   H34       1.0  0.16196  0.54772  0.57251  1.0000
  H   H35       1.0  0.88341  0.66552  0.32468  1.0000
  H   H36       1.0  0.11659  0.33448  0.67532  1.0000
  H   H37       1.0  0.11590  0.69649  0.26181  1.0000
  H   H38       1.0  0.88409  0.30351  0.73818  1.0000
  H   H39       1.0  0.30260  0.50802  0.30473  1.0000
  H   H40       1.0  0.69740  0.49197  0.69527  1.0000
  H   H41       1.0  0.32862  0.05870  0.48490  1.0000
  H   H42       1.0  0.67138  0.94130  0.51511  1.0000
  H   H43       1.0  0.09893  0.04151  0.55414  1.0000
  H   H44       1.0  0.90106  0.95849  0.44586  1.0000
  H   H45       1.0  0.84148  0.28483  0.56398  1.0000
  H   H46       1.0  0.15851  0.71517  0.43602  1.0000
  H   H47       1.0  0.89917  0.12073  0.59511  1.0000
  H   H48       1.0  0.10083  0.87927  0.40489  1.0000
  C   C1        1.0  0.10644  0.31287  0.03517  1.0000
  C   C2        1.0  0.89356  0.68712  0.96484  1.0000
  C   C3        1.0  0.19828  0.27454  0.96409  1.0000
  C   C4        1.0  0.80172  0.72547  0.03591  1.0000
  C   C5        1.0  0.16436  0.20426  0.91421  1.0000
  C   C6        1.0  0.83564  0.79574  0.08579  1.0000
  C   C7        1.0  0.04015  0.16608  0.93635  1.0000
  C   C8        1.0  0.95986  0.83392  0.06365  1.0000
  C   C9        1.0  0.94989  0.20158  0.00692  1.0000
  C   C10       1.0  0.05011  0.79841  0.99308  1.0000
  C   C11       1.0  0.98002  0.27684  0.05640  1.0000
  C   C12       1.0  0.01999  0.72315  0.94361  1.0000
  C   C13       1.0  0.88202  0.31911  0.12657  1.0000
  C   C14       1.0  0.11798  0.68088  0.87344  1.0000
  C   C15       1.0  0.91823  0.40093  0.16732  1.0000
  C   C16       1.0  0.08178  0.59906  0.83269  1.0000
  C   C17       1.0  0.04213  0.43139  0.14470  1.0000
  C   C18       1.0  0.95788  0.56861  0.85530  1.0000
  C   C19       1.0  0.26831  0.41594  0.07332  1.0000
  C   C20       1.0  0.73169  0.58406  0.92668  1.0000
  C   C21       1.0  0.36631  0.30145  0.14404  1.0000
  C   C22       1.0  0.63370  0.69857  0.85596  1.0000
  C   C23       1.0  0.46257  0.80184  0.21823  1.0000
  C   C24       1.0  0.53743  0.19816  0.78177  1.0000
  C   C25       1.0  0.40101  0.91388  0.13884  1.0000
  C   C26       1.0  0.59899  0.08612  0.86116  1.0000
  C   C27       1.0  0.37025  0.90873  0.04635  1.0000
  C   C28       1.0  0.62975  0.09128  0.95365  1.0000
  C   C29       1.0  0.39840  0.79433  0.02933  1.0000
  C   C30       1.0  0.60160  0.20567  0.97067  1.0000
  C   C31       1.0  0.45964  0.68435  0.10612  1.0000
  C   C32       1.0  0.54036  0.31566  0.89388  1.0000
  C   C33       1.0  0.49416  0.68611  0.20081  1.0000
  C   C34       1.0  0.50584  0.31389  0.79919  1.0000
  C   C35       1.0  0.56366  0.57114  0.27908  1.0000
  C   C36       1.0  0.43634  0.42886  0.72092  1.0000
  C   C37       1.0  0.57901  0.57641  0.37706  1.0000
  C   C38       1.0  0.42099  0.42359  0.62294  1.0000
  C   C39       1.0  0.54578  0.69049  0.38985  1.0000
  C   C40       1.0  0.45422  0.30951  0.61015  1.0000
  C   C41       1.0  0.49078  0.91676  0.33020  1.0000
  C   C42       1.0  0.50922  0.08324  0.66980  1.0000
  C   C43       1.0  0.62794  0.95572  0.30371  1.0000
  C   C44       1.0  0.37206  0.04428  0.69628  1.0000
  C   C45       1.0  0.04496  0.35661  0.42702  1.0000
  C   C46       1.0  0.95504  0.64339  0.57299  1.0000
  C   C47       1.0  0.94008  0.46339  0.40201  1.0000
  C   C48       1.0  0.05992  0.53660  0.59799  1.0000
  C   C49       1.0  0.96569  0.58391  0.34378  1.0000
  C   C50       1.0  0.03430  0.41608  0.65622  1.0000
  C   C51       1.0  0.09683  0.60155  0.30893  1.0000
  C   C52       1.0  0.90317  0.39845  0.69107  1.0000
  C   C53       1.0  0.20051  0.49756  0.33208  1.0000
  C   C54       1.0  0.79949  0.50244  0.66791  1.0000
  C   C55       1.0  0.17710  0.37360  0.39004  1.0000
  C   C56       1.0  0.82290  0.62640  0.60996  1.0000
  C   C57       1.0  0.28651  0.26440  0.41013  1.0000
  C   C58       1.0  0.71349  0.73559  0.58987  1.0000
  C   C59       1.0  0.25176  0.14389  0.46623  1.0000
  C   C60       1.0  0.74823  0.85611  0.53377  1.0000
  C   C61       1.0  0.12395  0.13354  0.50489  1.0000
  C   C62       1.0  0.87605  0.86646  0.49511  1.0000
  C   C63       1.0  0.88900  0.21416  0.53035  1.0000
  C   C64       1.0  0.11099  0.78584  0.46965  1.0000
  C   C65       1.0  0.79770  0.21501  0.45061  1.0000
  C   C66       1.0  0.20230  0.78499  0.54939  1.0000
  N   N1        1.0  0.13507  0.38924  0.08188  1.0000
  N   N2        1.0  0.86493  0.61076  0.91812  1.0000
  N   N3        1.0  0.49273  0.80056  0.31365  1.0000
  N   N4        1.0  0.50727  0.19944  0.68635  1.0000
  N   N5        1.0  0.02232  0.23504  0.48754  1.0000
  N   N6        1.0  0.97768  0.76496  0.51246  1.0000
  O   O1        1.0  0.76841  0.28580  0.14696  1.0000
  O   O2        1.0  0.23159  0.71419  0.85304  1.0000
  O   O3        1.0  0.33416  0.19561  0.18638  1.0000
  O   O4        1.0  0.66585  0.80440  0.81362  1.0000
  O   O5        1.0  0.47638  0.33105  0.15155  1.0000
  O   O6        1.0  0.52363  0.66898  0.84844  1.0000
  O   O7        1.0  0.60853  0.47126  0.25838  1.0000
  O   O8        1.0  0.39148  0.52874  0.74162  1.0000
  O   O9        1.0  0.72327  0.89376  0.27007  1.0000
  O   O10       1.0  0.27673  0.10624  0.72992  1.0000
  O   O11       1.0  0.62910  0.05481  0.32313  1.0000
  O   O12       1.0  0.37090  0.94519  0.67686  1.0000
  O   O13       1.0  0.40634  0.27883  0.38119  1.0000
  O   O14       1.0  0.59365  0.72117  0.61882  1.0000
  O   O15       1.0  0.84801  0.19066  0.37098  1.0000
  O   O16       1.0  0.15199  0.80934  0.62902  1.0000
  O   O17       1.0  0.67280  0.23944  0.47030  1.0000
  O   O18       1.0  0.32720  0.76056  0.52970  1.0000
