data_image0
_chemical_formula_structural       CoH20C16N4O8
_chemical_formula_sum              "Co1 H20 C16 N4 O8"
_cell_length_a       7.2267
_cell_length_b       7.4746
_cell_length_c       9.42773
_cell_angle_alpha    63.4059
_cell_angle_beta     71.4207
_cell_angle_gamma    80.4741

_space_group_name_H-M_alt    "P 1"
_space_group_IT_number       1

loop_
  _space_group_symop_operation_xyz
  'x, y, z'

loop_
  _atom_site_type_symbol
  _atom_site_label
  _atom_site_symmetry_multiplicity
  _atom_site_fract_x
  _atom_site_fract_y
  _atom_site_fract_z
  _atom_site_occupancy
  Co  Co1       1.0  0.50000  0.50000  0.50000  1.0000
  H   H1        1.0  0.64227  0.23855  0.33114  1.0000
  H   H2        1.0  0.35773  0.76145  0.66886  1.0000
  H   H3        1.0  0.81342  0.63580  0.81120  1.0000
  H   H4        1.0  0.18659  0.36420  0.18880  1.0000
  H   H5        1.0  0.68091  0.91940  0.89011  1.0000
  H   H6        1.0  0.31910  0.08060  0.10989  1.0000
  H   H7        1.0  0.55079  0.84867  0.18890  1.0000
  H   H8        1.0  0.44921  0.15133  0.81110  1.0000
  H   H9        1.0  0.79397  0.93199  0.61342  1.0000
  H   H10       1.0  0.20603  0.06801  0.38659  1.0000
  H   H11       1.0  0.98302  0.98367  0.67175  1.0000
  H   H12       1.0  0.01698  0.01634  0.32825  1.0000
  H   H13       1.0  0.95457  0.39616  0.78345  1.0000
  H   H14       1.0  0.04543  0.60383  0.21655  1.0000
  H   H15       1.0  0.00791  0.13833  0.86826  1.0000
  H   H16       1.0  0.99210  0.86167  0.13174  1.0000
  H   H17       1.0  0.72206  0.85427  0.36908  1.0000
  H   H18       1.0  0.27794  0.14573  0.63092  1.0000
  H   H19       1.0  0.81255  0.68334  0.50680  1.0000
  H   H20       1.0  0.18744  0.31666  0.49320  1.0000
  C   C1        1.0  0.65788  0.38721  0.23027  1.0000
  C   C2        1.0  0.34212  0.61279  0.76972  1.0000
  C   C3        1.0  0.74228  0.41371  0.06704  1.0000
  C   C4        1.0  0.25772  0.58629  0.93296  1.0000
  C   C5        1.0  0.74939  0.60755  0.94063  1.0000
  C   C6        1.0  0.25062  0.39244  0.05937  1.0000
  C   C7        1.0  0.67608  0.76593  0.98395  1.0000
  C   C8        1.0  0.32392  0.23407  0.01605  1.0000
  C   C9        1.0  0.60258  0.72887  0.14947  1.0000
  C   C10       1.0  0.39742  0.27112  0.85053  1.0000
  C   C11       1.0  0.83100  0.23382  0.03719  1.0000
  C   C12       1.0  0.16901  0.76617  0.96281  1.0000
  C   C13       1.0  0.85618  0.24189  0.50863  1.0000
  C   C14       1.0  0.14382  0.75811  0.49137  1.0000
  C   C15       1.0  0.92263  0.02250  0.56760  1.0000
  C   C16       1.0  0.07737  0.97750  0.43240  1.0000
  N   N1        1.0  0.59328  0.54198  0.27206  1.0000
  N   N2        1.0  0.40673  0.45802  0.72794  1.0000
  N   N3        1.0  0.92608  0.25914  0.88282  1.0000
  N   N4        1.0  0.07393  0.74086  0.11718  1.0000
  O   O1        1.0  0.81988  0.06335  0.15747  1.0000
  O   O2        1.0  0.18013  0.93665  0.84253  1.0000
  O   O3        1.0  0.67128  0.26858  0.56253  1.0000
  O   O4        1.0  0.32871  0.73142  0.43747  1.0000
  O   O5        1.0  0.97908  0.37776  0.41494  1.0000
  O   O6        1.0  0.02091  0.62224  0.58507  1.0000
  O   O7        1.0  0.69022  0.73386  0.47330  1.0000
  O   O8        1.0  0.30977  0.26614  0.52671  1.0000
