data_image0
_chemical_formula_structural       Zn2H52C28N8O20
_chemical_formula_sum              "Zn2 H52 C28 N8 O20"
_cell_length_a       7.34662
_cell_length_b       11.5932
_cell_length_c       13.0608
_cell_angle_alpha    89.9999
_cell_angle_beta     102.676
_cell_angle_gamma    89.9994

_space_group_name_H-M_alt    "P 1"
_space_group_IT_number       1

loop_
  _space_group_symop_operation_xyz
  'x, y, z'

loop_
  _atom_site_type_symbol
  _atom_site_label
  _atom_site_symmetry_multiplicity
  _atom_site_fract_x
  _atom_site_fract_y
  _atom_site_fract_z
  _atom_site_occupancy
  Zn  Zn1       1.0  0.00000  1.00000  0.50000  1.0000
  Zn  Zn2       1.0  1.00000  0.50000  0.00000  1.0000
  H   H1        1.0  0.62489  0.93990  0.41837  1.0000
  H   H2        1.0  0.37512  0.43990  0.08163  1.0000
  H   H3        1.0  0.37511  0.06010  0.58163  1.0000
  H   H4        1.0  0.62488  0.56011  0.91837  1.0000
  H   H5        1.0  0.66350  0.05787  0.48022  1.0000
  H   H6        1.0  0.33651  0.55787  0.01979  1.0000
  H   H7        1.0  0.33651  0.94213  0.51978  1.0000
  H   H8        1.0  0.66349  0.44213  0.98022  1.0000
  H   H9        1.0  0.11108  0.23103  0.69874  1.0000
  H   H10       1.0  0.88891  0.73102  0.80126  1.0000
  H   H11       1.0  0.88892  0.76898  0.30126  1.0000
  H   H12       1.0  0.11108  0.26898  0.19874  1.0000
  H   H13       1.0  0.71048  0.37373  0.78686  1.0000
  H   H14       1.0  0.28950  0.87373  0.71313  1.0000
  H   H15       1.0  0.28953  0.62626  0.21314  1.0000
  H   H16       1.0  0.71049  0.12627  0.28687  1.0000
  H   H17       1.0  0.65229  0.13055  0.79374  1.0000
  H   H18       1.0  0.34770  0.63055  0.70627  1.0000
  H   H19       1.0  0.34771  0.86945  0.20627  1.0000
  H   H20       1.0  0.65229  0.36946  0.29373  1.0000
  H   H21       1.0  0.82243  0.20254  0.89126  1.0000
  H   H22       1.0  0.17756  0.70254  0.60874  1.0000
  H   H23       1.0  0.17758  0.79746  0.10874  1.0000
  H   H24       1.0  0.82242  0.29747  0.39126  1.0000
  H   H25       1.0  0.88741  0.08031  0.82600  1.0000
  H   H26       1.0  0.11258  0.58031  0.67400  1.0000
  H   H27       1.0  0.11259  0.91969  0.17400  1.0000
  H   H28       1.0  0.88741  0.41969  0.32600  1.0000
  H   H29       1.0  0.64354  0.94347  0.65485  1.0000
  H   H30       1.0  0.35645  0.44348  0.84514  1.0000
  H   H31       1.0  0.35644  0.05652  0.34514  1.0000
  H   H32       1.0  0.64355  0.55653  0.15485  1.0000
  H   H33       1.0  0.61635  0.81385  0.72394  1.0000
  H   H34       1.0  0.38364  0.31386  0.77605  1.0000
  H   H35       1.0  0.38364  0.18614  0.27605  1.0000
  H   H36       1.0  0.61637  0.68615  0.22394  1.0000
  H   H37       1.0  0.58747  0.81349  0.58440  1.0000
  H   H38       1.0  0.41254  0.31350  0.91559  1.0000
  H   H39       1.0  0.41254  0.18650  0.41558  1.0000
  H   H40       1.0  0.58747  0.68651  0.08440  1.0000
  H   H41       1.0  0.47797  0.51821  0.59439  1.0000
  H   H42       1.0  0.52203  0.01820  0.90561  1.0000
  H   H43       1.0  0.52203  0.48179  0.40563  1.0000
  H   H44       1.0  0.47797  0.98180  0.09439  1.0000
  H   H45       1.0  0.69361  0.58965  0.60346  1.0000
  H   H46       1.0  0.30640  0.08965  0.89655  1.0000
  H   H47       1.0  0.30639  0.41035  0.39657  1.0000
  H   H48       1.0  0.69360  0.91036  0.10345  1.0000
  H   H49       1.0  0.62167  0.54758  0.72071  1.0000
  H   H50       1.0  0.37833  0.04758  0.77929  1.0000
  H   H51       1.0  0.37833  0.45241  0.27931  1.0000
  H   H52       1.0  0.62167  0.95243  0.22071  1.0000
  C   C1        1.0  0.80740  0.16129  0.62659  1.0000
  C   C2        1.0  0.19263  0.66129  0.87342  1.0000
  C   C3        1.0  0.19264  0.83871  0.37342  1.0000
  C   C4        1.0  0.80737  0.33871  0.12658  1.0000
  C   C5        1.0  0.84320  0.23428  0.72936  1.0000
  C   C6        1.0  0.15680  0.73429  0.77063  1.0000
  C   C7        1.0  0.15681  0.76571  0.27063  1.0000
  C   C8        1.0  0.84319  0.26572  0.22936  1.0000
  C   C9        1.0  0.79830  0.15731  0.81591  1.0000
  C   C10       1.0  0.20171  0.65732  0.68409  1.0000
  C   C11       1.0  0.20172  0.84269  0.18409  1.0000
  C   C12       1.0  0.79828  0.34269  0.31591  1.0000
  C   C13       1.0  0.87171  0.82791  0.66665  1.0000
  C   C14       1.0  0.12829  0.32792  0.83335  1.0000
  C   C15       1.0  0.12829  0.17209  0.33335  1.0000
  C   C16       1.0  0.87172  0.67209  0.16665  1.0000
  C   C17       1.0  0.66789  0.85015  0.65813  1.0000
  C   C18       1.0  0.33211  0.35016  0.84186  1.0000
  C   C19       1.0  0.33211  0.14984  0.34186  1.0000
  C   C20       1.0  0.66789  0.64985  0.15813  1.0000
  C   C21       1.0  0.71940  0.40923  0.63409  1.0000
  C   C22       1.0  0.28060  0.90923  0.86591  1.0000
  C   C23       1.0  0.28060  0.59077  0.36591  1.0000
  C   C24       1.0  0.71940  0.09077  0.13409  1.0000
  C   C25       1.0  0.62273  0.52308  0.63977  1.0000
  C   C26       1.0  0.37727  0.02308  0.86023  1.0000
  C   C27       1.0  0.37727  0.47692  0.36024  1.0000
  C   C28       1.0  0.62273  0.97693  0.13977  1.0000
  N   N1        1.0  0.04200  0.26419  0.75175  1.0000
  N   N2        1.0  0.95800  0.76419  0.74825  1.0000
  N   N3        1.0  0.95800  0.73581  0.24825  1.0000
  N   N4        1.0  0.04200  0.23582  0.25175  1.0000
  N   N5        1.0  0.72912  0.33769  0.71846  1.0000
  N   N6        1.0  0.27087  0.83769  0.78154  1.0000
  N   N7        1.0  0.27088  0.66231  0.28155  1.0000
  N   N8        1.0  0.72912  0.16231  0.21846  1.0000
  O   O1        1.0  0.95546  0.12395  0.60218  1.0000
  O   O2        1.0  0.04454  0.62394  0.89782  1.0000
  O   O3        1.0  0.04454  0.87605  0.39782  1.0000
  O   O4        1.0  0.95545  0.37606  0.10218  1.0000
  O   O5        1.0  0.64163  0.13510  0.58236  1.0000
  O   O6        1.0  0.35838  0.63512  0.91765  1.0000
  O   O7        1.0  0.35838  0.86488  0.41765  1.0000
  O   O8        1.0  0.64161  0.36488  0.08235  1.0000
  O   O9        1.0  0.95917  0.86565  0.60104  1.0000
  O   O10       1.0  0.04083  0.36565  0.89896  1.0000
  O   O11       1.0  0.04083  0.13436  0.39896  1.0000
  O   O12       1.0  0.95918  0.63436  0.10104  1.0000
  O   O13       1.0  0.78199  0.38087  0.55703  1.0000
  O   O14       1.0  0.21800  0.88088  0.94297  1.0000
  O   O15       1.0  0.21799  0.61913  0.44297  1.0000
  O   O16       1.0  0.78199  0.11913  0.05703  1.0000
  O   O17       1.0  0.70247  0.00937  0.42389  1.0000
  O   O18       1.0  0.29754  0.50937  0.07611  1.0000
  O   O19       1.0  0.29753  0.99063  0.57611  1.0000
  O   O20       1.0  0.70246  0.49063  0.92389  1.0000
