data_image0
_chemical_formula_structural       Cs2H2C16N8O4
_chemical_formula_sum              "Cs2 H2 C16 N8 O4"
_cell_length_a       5.8695
_cell_length_b       9.2775
_cell_length_c       9.75158
_cell_angle_alpha    112.733
_cell_angle_beta     90.9196
_cell_angle_gamma    100.242

_space_group_name_H-M_alt    "P 1"
_space_group_IT_number       1

loop_
  _space_group_symop_operation_xyz
  'x, y, z'

loop_
  _atom_site_type_symbol
  _atom_site_label
  _atom_site_symmetry_multiplicity
  _atom_site_fract_x
  _atom_site_fract_y
  _atom_site_fract_z
  _atom_site_occupancy
  Cs  Cs1       1.0  0.11375  0.27964  0.01097  1.0000
  Cs  Cs2       1.0  0.88626  0.72036  0.98903  1.0000
  H   H1        1.0  0.03803  0.88693  0.38914  1.0000
  H   H2        1.0  0.96197  0.11307  0.61086  1.0000
  C   C1        1.0  0.25348  0.93121  0.58771  1.0000
  C   C2        1.0  0.74652  0.06879  0.41229  1.0000
  C   C3        1.0  0.44301  0.85841  0.61067  1.0000
  C   C4        1.0  0.55698  0.14159  0.38933  1.0000
  C   C5        1.0  0.47444  0.74118  0.47294  1.0000
  C   C6        1.0  0.52556  0.25882  0.52705  1.0000
  C   C7        1.0  0.29295  0.73992  0.35977  1.0000
  C   C8        1.0  0.70705  0.26008  0.64023  1.0000
  C   C9        1.0  0.63470  0.64053  0.43320  1.0000
  C   C10       1.0  0.36530  0.35947  0.56680  1.0000
  C   C11       1.0  0.65202  0.53842  0.28379  1.0000
  C   C12       1.0  0.34798  0.46158  0.71621  1.0000
  C   C13       1.0  0.79163  0.63922  0.54402  1.0000
  C   C14       1.0  0.20837  0.36078  0.45598  1.0000
  C   C15       1.0  0.57588  0.91386  0.74822  1.0000
  C   C16       1.0  0.42413  0.08614  0.25178  1.0000
  N   N1        1.0  0.16873  0.85381  0.43728  1.0000
  N   N2        1.0  0.83127  0.14619  0.56272  1.0000
  N   N3        1.0  0.91709  0.64080  0.63939  1.0000
  N   N4        1.0  0.08291  0.35920  0.36061  1.0000
  N   N5        1.0  0.67751  0.45405  0.16201  1.0000
  N   N6        1.0  0.32249  0.54595  0.83799  1.0000
  N   N7        1.0  0.68972  0.96464  0.86279  1.0000
  N   N8        1.0  0.31029  0.03536  0.13721  1.0000
  O   O1        1.0  0.17782  0.04436  0.67898  1.0000
  O   O2        1.0  0.82218  0.95564  0.32102  1.0000
  O   O3        1.0  0.26083  0.65601  0.22551  1.0000
  O   O4        1.0  0.73917  0.34399  0.77449  1.0000
