data_image0
_chemical_formula_structural       Na2H40C24N8O19
_chemical_formula_sum              "Na2 H40 C24 N8 O19"
_cell_length_a       7.68191
_cell_length_b       9.91208
_cell_length_c       11.5127
_cell_angle_alpha    96.5458
_cell_angle_beta     93.1792
_cell_angle_gamma    96.4873

_space_group_name_H-M_alt    "P 1"
_space_group_IT_number       1

loop_
  _space_group_symop_operation_xyz
  'x, y, z'

loop_
  _atom_site_type_symbol
  _atom_site_label
  _atom_site_symmetry_multiplicity
  _atom_site_fract_x
  _atom_site_fract_y
  _atom_site_fract_z
  _atom_site_occupancy
  Na  Na1       1.0  0.88959  0.32475  0.47871  1.0000
  Na  Na2       1.0  0.70710  0.23281  0.73956  1.0000
  H   H1        1.0  0.45255  0.39261  0.89092  1.0000
  H   H2        1.0  0.35706  0.26615  0.81305  1.0000
  H   H3        1.0  0.59545  0.42111  0.60984  1.0000
  H   H4        1.0  0.74991  0.50631  0.69096  1.0000
  H   H5        1.0  0.97978  0.40640  0.91032  1.0000
  H   H6        1.0  0.94458  0.25897  0.95926  1.0000
  H   H7        1.0  0.46878  0.20380  0.43350  1.0000
  H   H8        1.0  0.35287  0.08743  0.49601  1.0000
  H   H9        1.0  0.23799  0.29196  0.56160  1.0000
  H   H10       1.0  0.13762  0.26499  0.67028  1.0000
  H   H11       1.0  0.11608  0.32810  0.32082  1.0000
  H   H12       1.0  0.19644  0.20829  0.37430  1.0000
  H   H13       1.0  0.61879  0.30529  0.28544  1.0000
  H   H14       1.0  0.58218  0.14775  0.28255  1.0000
  H   H15       1.0  0.90253  0.55695  0.24362  1.0000
  H   H16       1.0  0.55599  0.58702  0.26110  1.0000
  H   H17       1.0  0.52109  0.37328  0.11699  1.0000
  H   H18       1.0  0.52467  0.69894  0.08291  1.0000
  H   H19       1.0  0.30383  0.53891  0.05217  1.0000
  H   H20       1.0  0.70952  0.47585  0.95281  1.0000
  H   H21       1.0  0.56269  0.65460  0.85313  1.0000
  H   H22       1.0  0.72866  0.78037  0.92658  1.0000
  H   H23       1.0  0.91934  0.61573  0.83956  1.0000
  H   H24       1.0  0.69363  0.93425  0.67739  1.0000
  H   H25       1.0  0.64656  0.69972  0.62580  1.0000
  H   H26       1.0  0.93344  0.08931  0.31108  1.0000
  H   H27       1.0  0.93202  0.90798  0.14148  1.0000
  H   H28       1.0  0.38242  0.04906  0.72634  1.0000
  H   H29       1.0  0.02623  0.97724  0.75115  1.0000
  H   H30       1.0  0.06199  0.22265  0.83279  1.0000
  H   H31       1.0  0.07155  0.90114  0.93880  1.0000
  H   H32       1.0  0.88407  0.05330  0.99374  1.0000
  H   H33       1.0  0.34493  0.14945  0.01261  1.0000
  H   H34       1.0  0.21944  0.01122  0.15919  1.0000
  H   H35       1.0  0.29347  0.86079  0.08632  1.0000
  H   H36       1.0  0.57760  0.00688  0.11606  1.0000
  H   H37       1.0  0.18938  0.67621  0.26834  1.0000
  H   H38       1.0  0.30173  0.90638  0.32033  1.0000
  H   H39       1.0  0.18764  0.50758  0.65536  1.0000
  H   H40       1.0  0.25006  0.68478  0.83666  1.0000
  C   C1        1.0  0.81876  0.62019  0.19780  1.0000
  C   C2        1.0  0.62868  0.55233  0.18599  1.0000
  C   C3        1.0  0.55806  0.59315  0.06938  1.0000
  C   C4        1.0  0.71214  0.58336  0.99084  1.0000
  C   C5        1.0  0.69900  0.67160  0.89127  1.0000
  C   C6        1.0  0.03165  0.60168  0.04430  1.0000
  C   C7        1.0  0.69515  0.76040  0.55872  1.0000
  C   C8        1.0  0.78683  0.79026  0.38071  1.0000
  C   C9        1.0  0.81942  0.93414  0.41017  1.0000
  C   C10       1.0  0.78543  0.99596  0.52297  1.0000
  C   C11       1.0  0.88759  0.88539  0.22561  1.0000
  C   C12       1.0  0.83135  0.76061  0.26297  1.0000
  C   C13       1.0  0.31252  0.97781  0.77948  1.0000
  C   C14       1.0  0.13750  0.03212  0.80795  1.0000
  C   C15       1.0  0.11972  0.01062  0.93774  1.0000
  C   C16       1.0  0.30958  0.03753  0.99231  1.0000
  C   C17       1.0  0.32280  0.97323  0.10639  1.0000
  C   C18       1.0  0.59206  0.00659  0.90020  1.0000
  C   C19       1.0  0.27438  0.84500  0.39140  1.0000
  C   C20       1.0  0.27066  0.81522  0.58370  1.0000
  C   C21       1.0  0.22009  0.67307  0.55333  1.0000
  C   C22       1.0  0.17542  0.61530  0.43539  1.0000
  C   C23       1.0  0.25216  0.71210  0.74804  1.0000
  C   C24       1.0  0.28706  0.83967  0.70879  1.0000
  N   N1        1.0  0.86627  0.62016  0.07525  1.0000
  N   N2        1.0  0.72426  0.89772  0.59307  1.0000
  N   N3        1.0  0.72313  0.70098  0.45530  1.0000
  N   N4        1.0  0.87989  0.98927  0.31387  1.0000
  N   N5        1.0  0.41042  0.98437  0.89524  1.0000
  N   N6        1.0  0.21716  0.71033  0.35773  1.0000
  N   N7        1.0  0.29866  0.90311  0.50030  1.0000
  N   N8        1.0  0.21085  0.61294  0.65445  1.0000
  O   O1        1.0  0.47250  0.32322  0.82611  1.0000
  O   O2        1.0  0.72090  0.42498  0.62961  1.0000
  O   O3        1.0  0.92297  0.30935  0.89159  1.0000
  O   O4        1.0  0.36441  0.18539  0.48038  1.0000
  O   O5        1.0  0.14836  0.32955  0.61088  1.0000
  O   O6        1.0  0.09853  0.22834  0.32120  1.0000
  O   O7        1.0  0.62527  0.23168  0.33714  1.0000
  O   O8        1.0  0.62284  0.40595  0.17300  1.0000
  O   O9        1.0  0.41108  0.50149  0.01958  1.0000
  O   O10       1.0  0.80961  0.63858  0.79804  1.0000
  O   O11       1.0  0.15898  0.61508  0.12295  1.0000
  O   O12       1.0  0.05472  0.56863  0.93468  1.0000
  O   O13       1.0  0.80343  0.12131  0.56238  1.0000
  O   O14       1.0  0.15535  0.17412  0.79238  1.0000
  O   O15       1.0  0.01201  0.09479  0.00119  1.0000
  O   O16       1.0  0.67788  0.01631  0.00073  1.0000
  O   O17       1.0  0.66804  0.01570  0.80540  1.0000
  O   O18       1.0  0.48563  0.00830  0.17545  1.0000
  O   O19       1.0  0.10332  0.49650  0.39901  1.0000
