data_image0
_chemical_formula_structural       Cd6P4H52C28N4O24
_chemical_formula_sum              "Cd6 P4 H52 C28 N4 O24"
_cell_length_a       9.84876
_cell_length_b       10.7552
_cell_length_c       12.5453
_cell_angle_alpha    115.397
_cell_angle_beta     101.117
_cell_angle_gamma    90.025

_space_group_name_H-M_alt    "P 1"
_space_group_IT_number       1

loop_
  _space_group_symop_operation_xyz
  'x, y, z'

loop_
  _atom_site_type_symbol
  _atom_site_label
  _atom_site_symmetry_multiplicity
  _atom_site_fract_x
  _atom_site_fract_y
  _atom_site_fract_z
  _atom_site_occupancy
  Cd  Cd1       1.0  0.92442  0.52636  0.21710  1.0000
  Cd  Cd2       1.0  0.57562  0.30914  0.78303  1.0000
  Cd  Cd3       1.0  0.07558  0.47364  0.78291  1.0000
  Cd  Cd4       1.0  0.42438  0.69085  0.21696  1.0000
  Cd  Cd5       1.0  0.75008  0.63358  0.00006  1.0000
  Cd  Cd6       1.0  0.24992  0.36642  0.99993  1.0000
  P   P1        1.0  0.59395  0.40414  0.08948  1.0000
  P   P2        1.0  0.90594  0.31464  0.91050  1.0000
  P   P3        1.0  0.40604  0.59585  0.91052  1.0000
  P   P4        1.0  0.09406  0.68536  0.08950  1.0000
  H   H1        1.0  0.91121  0.71702  0.90141  1.0000
  H   H2        1.0  0.58890  0.81557  0.09861  1.0000
  H   H3        1.0  0.08878  0.28298  0.09859  1.0000
  H   H4        1.0  0.41110  0.18442  0.90139  1.0000
  H   H5        1.0  0.79138  0.64318  0.79001  1.0000
  H   H6        1.0  0.70868  0.85325  0.21005  1.0000
  H   H7        1.0  0.20862  0.35682  0.20999  1.0000
  H   H8        1.0  0.29133  0.14675  0.78994  1.0000
  H   H9        1.0  0.72811  0.22473  0.09885  1.0000
  H   H10       1.0  0.77169  0.12565  0.90107  1.0000
  H   H11       1.0  0.27189  0.77527  0.90115  1.0000
  H   H12       1.0  0.22831  0.87435  0.09893  1.0000
  H   H13       1.0  0.59779  0.25115  0.18453  1.0000
  H   H14       1.0  0.90200  0.06659  0.81535  1.0000
  H   H15       1.0  0.40222  0.74884  0.81547  1.0000
  H   H16       1.0  0.09800  0.93340  0.18464  1.0000
  H   H17       1.0  0.66846  0.54671  0.34712  1.0000
  H   H18       1.0  0.83097  0.19969  0.65275  1.0000
  H   H19       1.0  0.33154  0.45329  0.65288  1.0000
  H   H20       1.0  0.16903  0.80031  0.34725  1.0000
  H   H21       1.0  0.82519  0.54724  0.44498  1.0000
  H   H22       1.0  0.67433  0.10192  0.55501  1.0000
  H   H23       1.0  0.17482  0.45276  0.55502  1.0000
  H   H24       1.0  0.32568  0.89808  0.44499  1.0000
  H   H25       1.0  0.55815  0.35559  0.36976  1.0000
  H   H26       1.0  0.94169  0.98606  0.63004  1.0000
  H   H27       1.0  0.44186  0.64441  0.63025  1.0000
  H   H28       1.0  0.05831  0.01394  0.36996  1.0000
  H   H29       1.0  0.62622  0.49194  0.51311  1.0000
  H   H30       1.0  0.87343  0.97902  0.48675  1.0000
  H   H31       1.0  0.37378  0.50806  0.48689  1.0000
  H   H32       1.0  0.12657  0.02098  0.51325  1.0000
  H   H33       1.0  0.67535  0.25478  0.49482  1.0000
  H   H34       1.0  0.82452  0.75994  0.50488  1.0000
  H   H35       1.0  0.32465  0.74523  0.50518  1.0000
  H   H36       1.0  0.17548  0.24006  0.49512  1.0000
  H   H37       1.0  0.71290  0.14025  0.28911  1.0000
  H   H38       1.0  0.78712  0.85098  0.71064  1.0000
  H   H39       1.0  0.28710  0.85976  0.71089  1.0000
  H   H40       1.0  0.21288  0.14902  0.28935  1.0000
  H   H41       1.0  0.86997  0.14555  0.38672  1.0000
  H   H42       1.0  0.63004  0.75850  0.61305  1.0000
  H   H43       1.0  0.13002  0.85445  0.61329  1.0000
  H   H44       1.0  0.36996  0.24150  0.38694  1.0000
  H   H45       1.0  0.96819  0.35182  0.37684  1.0000
  H   H46       1.0  0.53162  0.97455  0.62319  1.0000
  H   H47       1.0  0.03181  0.64818  0.62316  1.0000
  H   H48       1.0  0.46838  0.02544  0.37681  1.0000
  H   H49       1.0  0.91455  0.21686  0.22914  1.0000
  H   H50       1.0  0.58547  0.98730  0.77083  1.0000
  H   H51       1.0  0.08545  0.78313  0.77086  1.0000
  H   H52       1.0  0.41453  0.01270  0.22916  1.0000
  C   C1        1.0  0.67970  0.30418  0.16595  1.0000
  C   C2        1.0  0.82010  0.13815  0.83403  1.0000
  C   C3        1.0  0.32031  0.69581  0.83405  1.0000
  C   C4        1.0  0.17990  0.86184  0.16597  1.0000
  C   C5        1.0  0.73495  0.48119  0.37708  1.0000
  C   C6        1.0  0.76470  0.10402  0.62286  1.0000
  C   C7        1.0  0.26505  0.51881  0.62292  1.0000
  C   C8        1.0  0.23530  0.89598  0.37714  1.0000
  C   C9        1.0  0.65553  0.41203  0.43304  1.0000
  C   C10       1.0  0.84425  0.97906  0.56681  1.0000
  C   C11       1.0  0.34447  0.58798  0.56696  1.0000
  C   C12       1.0  0.15575  0.02095  0.43319  1.0000
  C   C13       1.0  0.74332  0.31212  0.46757  1.0000
  C   C14       1.0  0.75655  0.84447  0.53226  1.0000
  C   C15       1.0  0.25668  0.68788  0.53244  1.0000
  C   C16       1.0  0.24345  0.15553  0.46774  1.0000
  C   C17       1.0  0.79924  0.21040  0.35943  1.0000
  C   C18       1.0  0.70075  0.85076  0.64039  1.0000
  C   C19       1.0  0.20076  0.78960  0.64057  1.0000
  C   C20       1.0  0.29925  0.14924  0.35960  1.0000
  C   C21       1.0  0.87682  0.28826  0.30865  1.0000
  C   C22       1.0  0.62307  0.97929  0.69131  1.0000
  C   C23       1.0  0.12318  0.71173  0.69135  1.0000
  C   C24       1.0  0.37693  0.02070  0.30869  1.0000
  C   C25       1.0  0.85886  0.38721  0.58028  1.0000
  C   C26       1.0  0.64091  0.80676  0.41959  1.0000
  C   C27       1.0  0.14114  0.61280  0.41973  1.0000
  C   C28       1.0  0.35909  0.19325  0.58040  1.0000
  N   N1        1.0  0.79029  0.38312  0.27294  1.0000
  N   N2        1.0  0.70950  0.11000  0.72702  1.0000
  N   N3        1.0  0.20971  0.61688  0.72706  1.0000
  N   N4        1.0  0.29050  0.89000  0.27297  1.0000
  O   O1        1.0  0.69722  0.52794  0.11869  1.0000
  O   O2        1.0  0.80288  0.40927  0.88130  1.0000
  O   O3        1.0  0.30278  0.47206  0.88131  1.0000
  O   O4        1.0  0.19712  0.59073  0.11870  1.0000
  O   O5        1.0  0.46035  0.45645  0.13665  1.0000
  O   O6        1.0  0.03954  0.31955  0.86322  1.0000
  O   O7        1.0  0.53965  0.54355  0.86335  1.0000
  O   O8        1.0  0.96046  0.68045  0.13678  1.0000
  O   O9        1.0  0.55704  0.29646  0.95616  1.0000
  O   O10       1.0  0.94285  0.34046  0.04384  1.0000
  O   O11       1.0  0.44296  0.70354  0.04385  1.0000
  O   O12       1.0  0.05715  0.65954  0.95616  1.0000
  O   O13       1.0  0.97028  0.32690  0.58956  1.0000
  O   O14       1.0  0.52940  0.73729  0.41043  1.0000
  O   O15       1.0  0.02971  0.67310  0.41046  1.0000
  O   O16       1.0  0.47061  0.26270  0.58956  1.0000
  O   O17       1.0  0.84118  0.50218  0.66333  1.0000
  O   O18       1.0  0.65867  0.83850  0.33648  1.0000
  O   O19       1.0  0.15881  0.49784  0.33668  1.0000
  O   O20       1.0  0.34132  0.16153  0.66353  1.0000
  O   O21       1.0  0.81001  0.72020  0.87215  1.0000
  O   O22       1.0  0.69012  0.84813  0.12794  1.0000
  O   O23       1.0  0.18999  0.27980  0.12785  1.0000
  O   O24       1.0  0.30988  0.15186  0.87206  1.0000
