data_image0
_chemical_formula_structural       Cd6P4H56C28N4Cl4O24
_chemical_formula_sum              "Cd6 P4 H56 C28 N4 Cl4 O24"
_cell_length_a       8.85958
_cell_length_b       11.6975
_cell_length_c       12.978
_cell_angle_alpha    110.789
_cell_angle_beta     90
_cell_angle_gamma    90.0001

_space_group_name_H-M_alt    "P 1"
_space_group_IT_number       1

loop_
  _space_group_symop_operation_xyz
  'x, y, z'

loop_
  _atom_site_type_symbol
  _atom_site_label
  _atom_site_symmetry_multiplicity
  _atom_site_fract_x
  _atom_site_fract_y
  _atom_site_fract_z
  _atom_site_occupancy
  Cd  Cd1       1.0  0.31831  0.80358  0.67198  1.0000
  Cd  Cd2       1.0  0.81832  0.19643  0.82802  1.0000
  Cd  Cd3       1.0  0.68168  0.19643  0.32802  1.0000
  Cd  Cd4       1.0  0.18169  0.80358  0.17198  1.0000
  Cd  Cd5       1.0  0.50000  1.00000  0.50000  1.0000
  Cd  Cd6       1.0  0.00000  1.00000  0.00000  1.0000
  P   P1        1.0  0.48137  0.07243  0.80282  1.0000
  P   P2        1.0  0.98136  0.92757  0.69718  1.0000
  P   P3        1.0  0.51864  0.92757  0.19718  1.0000
  P   P4        1.0  0.01864  0.07243  0.30282  1.0000
  H   H1        1.0  0.45908  0.31219  0.80922  1.0000
  H   H2        1.0  0.95908  0.68781  0.69078  1.0000
  H   H3        1.0  0.54093  0.68781  0.19078  1.0000
  H   H4        1.0  0.04092  0.31219  0.30922  1.0000
  H   H5        1.0  0.10237  0.51351  0.81048  1.0000
  H   H6        1.0  0.60237  0.48649  0.68952  1.0000
  H   H7        1.0  0.89763  0.48648  0.18952  1.0000
  H   H8        1.0  0.39762  0.51351  0.31048  1.0000
  H   H9        1.0  0.16990  0.36970  0.62909  1.0000
  H   H10       1.0  0.66990  0.63030  0.87091  1.0000
  H   H11       1.0  0.83010  0.63030  0.37091  1.0000
  H   H12       1.0  0.33010  0.36970  0.12909  1.0000
  H   H13       1.0  0.36502  0.38828  0.65811  1.0000
  H   H14       1.0  0.86502  0.61172  0.84189  1.0000
  H   H15       1.0  0.63499  0.61172  0.34189  1.0000
  H   H16       1.0  0.13498  0.38828  0.15811  1.0000
  H   H17       1.0  0.13071  0.27156  0.76452  1.0000
  H   H18       1.0  0.63070  0.72844  0.73548  1.0000
  H   H19       1.0  0.86930  0.72844  0.23547  1.0000
  H   H20       1.0  0.36930  0.27156  0.26452  1.0000
  H   H21       1.0  0.27779  0.19493  0.67178  1.0000
  H   H22       1.0  0.77779  0.80508  0.82822  1.0000
  H   H23       1.0  0.72222  0.80507  0.32822  1.0000
  H   H24       1.0  0.22221  0.19492  0.17178  1.0000
  H   H25       1.0  0.38858  0.42734  0.99193  1.0000
  H   H26       1.0  0.88858  0.57267  0.50807  1.0000
  H   H27       1.0  0.61142  0.57267  0.00807  1.0000
  H   H28       1.0  0.11142  0.42733  0.49193  1.0000
  H   H29       1.0  0.19493  0.40675  0.95233  1.0000
  H   H30       1.0  0.69493  0.59326  0.54767  1.0000
  H   H31       1.0  0.80508  0.59326  0.04767  1.0000
  H   H32       1.0  0.30507  0.40675  0.45233  1.0000
  H   H33       1.0  0.44030  0.53514  0.86383  1.0000
  H   H34       1.0  0.94029  0.46486  0.63616  1.0000
  H   H35       1.0  0.55971  0.46486  0.13616  1.0000
  H   H36       1.0  0.05970  0.53514  0.36383  1.0000
  H   H37       1.0  0.29327  0.60974  0.95491  1.0000
  H   H38       1.0  0.79327  0.39026  0.54509  1.0000
  H   H39       1.0  0.70673  0.39026  0.04509  1.0000
  H   H40       1.0  0.20672  0.60974  0.45491  1.0000
  H   H41       1.0  0.22743  0.15589  0.85572  1.0000
  H   H42       1.0  0.72743  0.84412  0.64428  1.0000
  H   H43       1.0  0.77258  0.84411  0.14428  1.0000
  H   H44       1.0  0.27258  0.15589  0.35572  1.0000
  H   H45       1.0  0.36227  0.22515  0.95931  1.0000
  H   H46       1.0  0.86227  0.77485  0.54069  1.0000
  H   H47       1.0  0.63773  0.77485  0.04069  1.0000
  H   H48       1.0  0.13773  0.22515  0.45931  1.0000
  H   H49       1.0  0.19271  0.97103  0.55045  1.0000
  H   H50       1.0  0.69270  0.02898  0.94955  1.0000
  H   H51       1.0  0.80729  0.02898  0.44955  1.0000
  H   H52       1.0  0.30730  0.97102  0.05045  1.0000
  H   H53       1.0  0.19019  0.98560  0.43288  1.0000
  H   H54       1.0  0.69019  0.01440  0.06712  1.0000
  H   H55       1.0  0.80981  0.01440  0.56712  1.0000
  H   H56       1.0  0.30981  0.98560  0.93288  1.0000
  C   C1        1.0  0.24803  0.61187  0.74019  1.0000
  C   C2        1.0  0.74803  0.38813  0.75981  1.0000
  C   C3        1.0  0.75196  0.38813  0.25981  1.0000
  C   C4        1.0  0.25197  0.61187  0.24019  1.0000
  C   C5        1.0  0.22190  0.51108  0.78664  1.0000
  C   C6        1.0  0.72190  0.48892  0.71336  1.0000
  C   C7        1.0  0.77810  0.48891  0.21335  1.0000
  C   C8        1.0  0.27810  0.51108  0.28664  1.0000
  C   C9        1.0  0.25361  0.38714  0.69513  1.0000
  C   C10       1.0  0.75361  0.61286  0.80487  1.0000
  C   C11       1.0  0.74639  0.61286  0.30487  1.0000
  C   C12       1.0  0.24638  0.38714  0.19513  1.0000
  C   C13       1.0  0.24504  0.28107  0.73613  1.0000
  C   C14       1.0  0.74503  0.71893  0.76387  1.0000
  C   C15       1.0  0.75497  0.71893  0.26387  1.0000
  C   C16       1.0  0.25497  0.28107  0.23613  1.0000
  C   C17       1.0  0.30939  0.41809  0.92462  1.0000
  C   C18       1.0  0.80939  0.58192  0.57538  1.0000
  C   C19       1.0  0.69061  0.58192  0.07538  1.0000
  C   C20       1.0  0.19060  0.41808  0.42462  1.0000
  C   C21       1.0  0.32258  0.52593  0.88617  1.0000
  C   C22       1.0  0.82258  0.47407  0.61383  1.0000
  C   C23       1.0  0.67742  0.47407  0.11383  1.0000
  C   C24       1.0  0.17742  0.52593  0.38617  1.0000
  C   C25       1.0  0.34221  0.19317  0.87026  1.0000
  C   C26       1.0  0.84221  0.80683  0.62975  1.0000
  C   C27       1.0  0.65779  0.80683  0.12974  1.0000
  C   C28       1.0  0.15779  0.19317  0.37026  1.0000
  N   N1        1.0  0.34816  0.30058  0.83288  1.0000
  N   N2        1.0  0.84816  0.69943  0.66712  1.0000
  N   N3        1.0  0.65184  0.69943  0.16712  1.0000
  N   N4        1.0  0.15184  0.30057  0.33288  1.0000
  Cl  Cl1       1.0  0.47524  0.76513  0.50302  1.0000
  Cl  Cl2       1.0  0.97524  0.23487  0.99698  1.0000
  Cl  Cl3       1.0  0.52475  0.23487  0.49698  1.0000
  Cl  Cl4       1.0  0.02476  0.76513  0.00302  1.0000
  O   O1        1.0  0.62491  0.10697  0.87516  1.0000
  O   O2        1.0  0.12490  0.89303  0.62484  1.0000
  O   O3        1.0  0.37510  0.89303  0.12484  1.0000
  O   O4        1.0  0.87510  0.10697  0.37516  1.0000
  O   O5        1.0  0.50598  0.07218  0.68699  1.0000
  O   O6        1.0  0.00598  0.92783  0.81301  1.0000
  O   O7        1.0  0.49402  0.92783  0.31301  1.0000
  O   O8        1.0  0.99403  0.07217  0.18699  1.0000
  O   O9        1.0  0.41026  0.95657  0.81286  1.0000
  O   O10       1.0  0.91026  0.04343  0.68714  1.0000
  O   O11       1.0  0.58974  0.04343  0.18714  1.0000
  O   O12       1.0  0.08973  0.95657  0.31286  1.0000
  O   O13       1.0  0.37625  0.66458  0.75471  1.0000
  O   O14       1.0  0.87625  0.33542  0.74529  1.0000
  O   O15       1.0  0.62373  0.33542  0.24529  1.0000
  O   O16       1.0  0.12375  0.66458  0.25470  1.0000
  O   O17       1.0  0.14444  0.63770  0.68327  1.0000
  O   O18       1.0  0.64445  0.36230  0.81673  1.0000
  O   O19       1.0  0.85555  0.36229  0.31673  1.0000
  O   O20       1.0  0.35556  0.63770  0.18327  1.0000
  O   O21       1.0  0.24198  0.01537  0.50593  1.0000
  O   O22       1.0  0.74198  0.98463  0.99408  1.0000
  O   O23       1.0  0.75802  0.98463  0.49407  1.0000
  O   O24       1.0  0.25802  0.01537  0.00593  1.0000
