data_image0
_chemical_formula_structural       Cd4H18C18N2O24
_chemical_formula_sum              "Cd4 H18 C18 N2 O24"
_cell_length_a       8.3003
_cell_length_b       8.69752
_cell_length_c       11.5708
_cell_angle_alpha    87.5652
_cell_angle_beta     65.3269
_cell_angle_gamma    66.617

_space_group_name_H-M_alt    "P 1"
_space_group_IT_number       1

loop_
  _space_group_symop_operation_xyz
  'x, y, z'

loop_
  _atom_site_type_symbol
  _atom_site_label
  _atom_site_symmetry_multiplicity
  _atom_site_fract_x
  _atom_site_fract_y
  _atom_site_fract_z
  _atom_site_occupancy
  Cd  Cd1       1.0  0.80564  0.19812  0.09948  1.0000
  Cd  Cd2       1.0  0.19436  0.80188  0.90052  1.0000
  Cd  Cd3       1.0  0.83653  0.57672  0.41958  1.0000
  Cd  Cd4       1.0  0.16347  0.42328  0.58042  1.0000
  H   H1        1.0  0.06076  0.97625  0.20309  1.0000
  H   H2        1.0  0.93924  0.02375  0.79691  1.0000
  H   H3        1.0  0.93485  0.14679  0.30622  1.0000
  H   H4        1.0  0.06515  0.85320  0.69378  1.0000
  H   H5        1.0  0.83998  0.93602  0.38049  1.0000
  H   H6        1.0  0.16002  0.06399  0.61951  1.0000
  H   H7        1.0  0.81162  0.89709  0.52054  1.0000
  H   H8        1.0  0.18837  0.10292  0.47946  1.0000
  H   H9        1.0  0.46137  0.84954  0.50513  1.0000
  H   H10       1.0  0.53863  0.15046  0.49487  1.0000
  H   H11       1.0  0.48326  0.72486  0.60823  1.0000
  H   H12       1.0  0.51674  0.27514  0.39177  1.0000
  H   H13       1.0  0.78625  0.31929  0.57654  1.0000
  H   H14       1.0  0.21375  0.68071  0.42346  1.0000
  H   H15       1.0  0.68473  0.31931  0.48711  1.0000
  H   H16       1.0  0.31527  0.68069  0.51289  1.0000
  H   H17       1.0  0.68213  0.87198  0.87393  1.0000
  H   H18       1.0  0.31788  0.12801  0.12606  1.0000
  C   C1        1.0  0.74858  0.31131  0.83972  1.0000
  C   C2        1.0  0.25143  0.68869  0.16028  1.0000
  C   C3        1.0  0.73252  0.46711  0.90519  1.0000
  C   C4        1.0  0.26748  0.53289  0.09481  1.0000
  C   C5        1.0  0.70913  0.61693  0.85026  1.0000
  C   C6        1.0  0.29088  0.38307  0.14973  1.0000
  C   C7        1.0  0.68648  0.63256  0.72751  1.0000
  C   C8        1.0  0.31353  0.36744  0.27248  1.0000
  C   C9        1.0  0.70607  0.75259  0.91266  1.0000
  C   C10       1.0  0.29393  0.24741  0.08733  1.0000
  C   C11       1.0  0.72933  0.73604  0.02626  1.0000
  C   C12       1.0  0.27066  0.26396  0.97374  1.0000
  C   C13       1.0  0.71020  0.88836  0.09746  1.0000
  C   C14       1.0  0.28981  0.11164  0.90254  1.0000
  C   C15       1.0  0.75745  0.58039  0.07251  1.0000
  C   C16       1.0  0.24255  0.41961  0.92749  1.0000
  C   C17       1.0  0.79935  0.54301  0.18762  1.0000
  C   C18       1.0  0.20064  0.45700  0.81238  1.0000
  N   N1        1.0  0.75488  0.45294  0.01337  1.0000
  N   N2        1.0  0.24512  0.54706  0.98663  1.0000
  O   O1        1.0  0.75619  0.18486  0.90066  1.0000
  O   O2        1.0  0.24381  0.81514  0.09934  1.0000
  O   O3        1.0  0.76080  0.31659  0.72775  1.0000
  O   O4        1.0  0.23921  0.68340  0.27225  1.0000
  O   O5        1.0  0.84034  0.60398  0.62190  1.0000
  O   O6        1.0  0.15967  0.39601  0.37810  1.0000
  O   O7        1.0  0.51771  0.68363  0.73374  1.0000
  O   O8        1.0  0.48229  0.31637  0.26626  1.0000
  O   O9        1.0  0.85934  0.92634  0.05003  1.0000
  O   O10       1.0  0.14066  0.07366  0.94997  1.0000
  O   O11       1.0  0.55064  0.97227  0.18894  1.0000
  O   O12       1.0  0.44935  0.02773  0.81106  1.0000
  O   O13       1.0  0.82596  0.65493  0.23592  1.0000
  O   O14       1.0  0.17403  0.34508  0.76408  1.0000
  O   O15       1.0  0.80991  0.40429  0.22948  1.0000
  O   O16       1.0  0.19009  0.59571  0.77052  1.0000
  O   O17       1.0  0.92429  0.05884  0.26351  1.0000
  O   O18       1.0  0.07571  0.94117  0.73649  1.0000
  O   O19       1.0  0.76962  0.88796  0.45502  1.0000
  O   O20       1.0  0.23038  0.11204  0.54498  1.0000
  O   O21       1.0  0.49005  0.73107  0.51875  1.0000
  O   O22       1.0  0.50995  0.26893  0.48125  1.0000
  O   O23       1.0  0.80017  0.32989  0.48728  1.0000
  O   O24       1.0  0.19983  0.67010  0.51272  1.0000
