data_image0
_chemical_formula_structural       CuH10C4N10Cl2
_chemical_formula_sum              "Cu1 H10 C4 N10 Cl2"
_cell_length_a       5.11333
_cell_length_b       6.30352
_cell_length_c       8.99789
_cell_angle_alpha    100.268
_cell_angle_beta     102.147
_cell_angle_gamma    89.4673

_space_group_name_H-M_alt    "P 1"
_space_group_IT_number       1

loop_
  _space_group_symop_operation_xyz
  'x, y, z'

loop_
  _atom_site_type_symbol
  _atom_site_label
  _atom_site_symmetry_multiplicity
  _atom_site_fract_x
  _atom_site_fract_y
  _atom_site_fract_z
  _atom_site_occupancy
  Cu  Cu1       1.0  0.00001  0.00000  0.00000  1.0000
  H   H1        1.0  0.25141  0.36717  0.92088  1.0000
  H   H2        1.0  0.74861  0.63284  0.07913  1.0000
  H   H3        1.0  0.50856  0.26644  0.04024  1.0000
  H   H4        1.0  0.49144  0.73358  0.95977  1.0000
  H   H5        1.0  0.49349  0.25144  0.39013  1.0000
  H   H6        1.0  0.50651  0.74855  0.60987  1.0000
  H   H7        1.0  0.82337  0.13874  0.41647  1.0000
  H   H8        1.0  0.17662  0.86125  0.58353  1.0000
  H   H9        1.0  0.78124  0.42000  0.48222  1.0000
  H   H10       1.0  0.21875  0.58000  0.51776  1.0000
  C   C1        1.0  0.53336  0.21875  0.81894  1.0000
  C   C2        1.0  0.46664  0.78123  0.18105  1.0000
  C   C3        1.0  0.69273  0.25750  0.46536  1.0000
  C   C4        1.0  0.30727  0.74251  0.53463  1.0000
  N   N1        1.0  0.46394  0.28277  0.68160  1.0000
  N   N2        1.0  0.53606  0.71722  0.31841  1.0000
  N   N3        1.0  0.66507  0.21037  0.61367  1.0000
  N   N4        1.0  0.33493  0.78963  0.38633  1.0000
  N   N5        1.0  0.84835  0.10800  0.69649  1.0000
  N   N6        1.0  0.15166  0.89201  0.30351  1.0000
  N   N7        1.0  0.76765  0.11076  0.82814  1.0000
  N   N8        1.0  0.23236  0.88923  0.17186  1.0000
  N   N9        1.0  0.38920  0.24856  0.93178  1.0000
  N   N10       1.0  0.61080  0.75145  0.06823  1.0000
  Cl  Cl1       1.0  0.02822  0.67577  0.83428  1.0000
  Cl  Cl2       1.0  0.97178  0.32424  0.16571  1.0000
