data_image0
_chemical_formula_structural       CuH10C4Br2N10
_chemical_formula_sum              "Cu1 H10 C4 Br2 N10"
_cell_length_a       5.20962
_cell_length_b       6.46371
_cell_length_c       9.08585
_cell_angle_alpha    99.152
_cell_angle_beta     102.48
_cell_angle_gamma    89.4706

_space_group_name_H-M_alt    "P 1"
_space_group_IT_number       1

loop_
  _space_group_symop_operation_xyz
  'x, y, z'

loop_
  _atom_site_type_symbol
  _atom_site_label
  _atom_site_symmetry_multiplicity
  _atom_site_fract_x
  _atom_site_fract_y
  _atom_site_fract_z
  _atom_site_occupancy
  Cu  Cu1       1.0  1.00000  0.00000  0.00000  1.0000
  H   H1        1.0  0.26130  0.35349  0.91561  1.0000
  H   H2        1.0  0.73870  0.64651  0.08439  1.0000
  H   H3        1.0  0.51368  0.25555  0.03599  1.0000
  H   H4        1.0  0.48631  0.74446  0.96400  1.0000
  H   H5        1.0  0.49624  0.24082  0.39167  1.0000
  H   H6        1.0  0.50376  0.75917  0.60833  1.0000
  H   H7        1.0  0.82293  0.13565  0.42083  1.0000
  H   H8        1.0  0.17707  0.86434  0.57917  1.0000
  H   H9        1.0  0.77529  0.40880  0.47991  1.0000
  H   H10       1.0  0.22471  0.59120  0.52009  1.0000
  C   C1        1.0  0.54037  0.21201  0.81772  1.0000
  C   C2        1.0  0.45964  0.78799  0.18228  1.0000
  C   C3        1.0  0.69242  0.24985  0.46662  1.0000
  C   C4        1.0  0.30759  0.75015  0.53337  1.0000
  Br  Br1       1.0  0.01570  0.66263  0.82656  1.0000
  Br  Br2       1.0  0.98429  0.33738  0.17343  1.0000
  N   N1        1.0  0.46893  0.27195  0.67990  1.0000
  N   N2        1.0  0.53108  0.72805  0.32011  1.0000
  N   N3        1.0  0.66849  0.20488  0.61475  1.0000
  N   N4        1.0  0.33151  0.79512  0.38525  1.0000
  N   N5        1.0  0.85289  0.10949  0.69952  1.0000
  N   N6        1.0  0.14710  0.89051  0.30049  1.0000
  N   N7        1.0  0.77436  0.11154  0.82995  1.0000
  N   N8        1.0  0.22563  0.88846  0.17005  1.0000
  N   N9        1.0  0.39799  0.23877  0.92809  1.0000
  N   N10       1.0  0.60200  0.76124  0.07192  1.0000
