data_image0
_chemical_formula_structural       Na3P8H45C20N8O32
_chemical_formula_sum              "Na3 P8 H45 C20 N8 O32"
_cell_length_a       8.91969
_cell_length_b       11.3232
_cell_length_c       12.5525
_cell_angle_alpha    116.018
_cell_angle_beta     98.3001
_cell_angle_gamma    100.684

_space_group_name_H-M_alt    "P 1"
_space_group_IT_number       1

loop_
  _space_group_symop_operation_xyz
  'x, y, z'

loop_
  _atom_site_type_symbol
  _atom_site_label
  _atom_site_symmetry_multiplicity
  _atom_site_fract_x
  _atom_site_fract_y
  _atom_site_fract_z
  _atom_site_occupancy
  Na  Na1       1.0  0.50000  0.50000  0.50000  1.0000
  Na  Na2       1.0  0.60227  0.14088  0.01953  1.0000
  Na  Na3       1.0  0.39773  0.85911  0.98047  1.0000
  P   P1        1.0  0.81031  0.87505  0.84866  1.0000
  P   P2        1.0  0.18969  0.12495  0.15134  1.0000
  P   P3        1.0  0.77730  0.57814  0.78262  1.0000
  P   P4        1.0  0.22270  0.42186  0.21738  1.0000
  P   P5        1.0  0.23429  0.65346  0.66488  1.0000
  P   P6        1.0  0.76571  0.34654  0.33512  1.0000
  P   P7        1.0  0.35321  0.95753  0.73154  1.0000
  P   P8        1.0  0.64679  0.04247  0.26846  1.0000
  H   H1        1.0  0.88350  0.05619  0.03388  1.0000
  H   H2        1.0  0.11650  0.94381  0.96612  1.0000
  H   H3        1.0  0.57260  0.41798  0.74820  1.0000
  H   H4        1.0  0.42740  0.58202  0.25180  1.0000
  H   H5        1.0  0.09485  0.65864  0.80204  1.0000
  H   H6        1.0  0.90515  0.34136  0.19796  1.0000
  H   H7        1.0  0.00000  0.50000  0.50000  1.0000
  H   H8        1.0  0.57758  0.90484  0.69852  1.0000
  H   H9        1.0  0.42241  0.09516  0.30149  1.0000
  H   H10       1.0  0.51067  0.68822  0.79002  1.0000
  H   H11       1.0  0.48933  0.31178  0.20999  1.0000
  H   H12       1.0  0.03527  0.83421  0.72499  1.0000
  H   H13       1.0  0.96473  0.16579  0.27501  1.0000
  H   H14       1.0  0.94334  0.84151  0.04089  1.0000
  H   H15       1.0  0.05665  0.15849  0.95911  1.0000
  H   H16       1.0  0.76574  0.87498  0.08022  1.0000
  H   H17       1.0  0.23426  0.12502  0.91978  1.0000
  H   H18       1.0  0.04508  0.67899  0.08398  1.0000
  H   H19       1.0  0.95492  0.32101  0.91603  1.0000
  H   H20       1.0  0.94559  0.50196  0.15141  1.0000
  H   H21       1.0  0.05440  0.49804  0.84859  1.0000
  H   H22       1.0  0.65001  0.47768  0.15496  1.0000
  H   H23       1.0  0.34999  0.52232  0.84504  1.0000
  H   H24       1.0  0.56540  0.66206  0.08085  1.0000
  H   H25       1.0  0.43460  0.33794  0.91915  1.0000
  H   H26       1.0  0.31349  0.73656  0.47883  1.0000
  H   H27       1.0  0.68651  0.26344  0.52117  1.0000
  H   H28       1.0  0.11881  0.63152  0.43763  1.0000
  H   H29       1.0  0.88119  0.36848  0.56237  1.0000
  H   H30       1.0  0.86461  0.91609  0.33078  1.0000
  H   H31       1.0  0.13539  0.08391  0.66922  1.0000
  H   H32       1.0  0.35053  0.92744  0.42768  1.0000
  H   H33       1.0  0.64947  0.07257  0.57232  1.0000
  H   H34       1.0  0.14264  0.02806  0.32650  1.0000
  H   H35       1.0  0.85736  0.97194  0.67350  1.0000
  H   H36       1.0  0.88279  0.75649  0.42755  1.0000
  H   H37       1.0  0.11722  0.24351  0.57245  1.0000
  H   H38       1.0  0.76638  0.61816  0.48136  1.0000
  H   H39       1.0  0.23362  0.38184  0.51864  1.0000
  H   H40       1.0  0.70962  0.73614  0.57033  1.0000
  H   H41       1.0  0.29038  0.26386  0.42967  1.0000
  H   H42       1.0  0.68378  0.31649  0.86397  1.0000
  H   H43       1.0  0.31622  0.68351  0.13603  1.0000
  H   H44       1.0  0.64291  0.15813  0.80734  1.0000
  H   H45       1.0  0.35709  0.84187  0.19266  1.0000
  C   C1        1.0  0.73332  0.73841  0.88889  1.0000
  C   C2        1.0  0.26667  0.26159  0.11111  1.0000
  C   C3        1.0  0.81732  0.79570  0.02419  1.0000
  C   C4        1.0  0.18268  0.20430  0.97581  1.0000
  C   C5        1.0  0.92604  0.64679  0.09148  1.0000
  C   C6        1.0  0.07396  0.35321  0.90852  1.0000
  C   C7        1.0  0.71745  0.54684  0.12968  1.0000
  C   C8        1.0  0.28255  0.45316  0.87032  1.0000
  C   C9        1.0  0.67455  0.63498  0.09173  1.0000
  C   C10       1.0  0.32545  0.36502  0.90827  1.0000
  C   C11       1.0  0.19761  0.78921  0.62817  1.0000
  C   C12       1.0  0.80239  0.21079  0.37183  1.0000
  C   C13       1.0  0.19494  0.73670  0.49179  1.0000
  C   C14       1.0  0.80507  0.26330  0.50821  1.0000
  C   C15       1.0  0.22355  0.90631  0.41052  1.0000
  C   C16       1.0  0.77645  0.09369  0.58948  1.0000
  C   C17       1.0  0.12069  0.95560  0.36080  1.0000
  C   C18       1.0  0.87931  0.04441  0.63921  1.0000
  C   C19       1.0  0.98101  0.81335  0.41088  1.0000
  C   C20       1.0  0.01899  0.18665  0.58912  1.0000
  N   N1        1.0  0.80598  0.69531  0.06803  1.0000
  N   N2        1.0  0.19402  0.30469  0.93197  1.0000
  N   N3        1.0  0.87417  0.55677  0.12903  1.0000
  N   N4        1.0  0.12583  0.44323  0.87097  1.0000
  N   N5        1.0  0.13420  0.81741  0.44072  1.0000
  N   N6        1.0  0.86580  0.18260  0.55929  1.0000
  N   N7        1.0  0.97179  0.89642  0.36204  1.0000
  N   N8        1.0  0.02821  0.10358  0.63796  1.0000
  O   O1        1.0  0.98495  0.88400  0.85462  1.0000
  O   O2        1.0  0.01505  0.11600  0.14538  1.0000
  O   O3        1.0  0.79426  0.01333  0.95331  1.0000
  O   O4        1.0  0.20574  0.98667  0.04669  1.0000
  O   O5        1.0  0.71097  0.84695  0.72783  1.0000
  O   O6        1.0  0.28902  0.15305  0.27217  1.0000
  O   O7        1.0  0.71558  0.54352  0.65269  1.0000
  O   O8        1.0  0.28442  0.45648  0.34731  1.0000
  O   O9        1.0  0.94982  0.59047  0.83052  1.0000
  O   O10       1.0  0.05018  0.40953  0.16948  1.0000
  O   O11       1.0  0.67633  0.45829  0.80680  1.0000
  O   O12       1.0  0.32367  0.54171  0.19321  1.0000
  O   O13       1.0  0.40211  0.64860  0.66676  1.0000
  O   O14       1.0  0.59789  0.35140  0.33324  1.0000
  O   O15       1.0  0.20695  0.69494  0.79794  1.0000
  O   O16       1.0  0.79305  0.30506  0.20206  1.0000
  O   O17       1.0  0.11114  0.51547  0.57542  1.0000
  O   O18       1.0  0.88886  0.48453  0.42458  1.0000
  O   O19       1.0  0.39850  0.97203  0.85848  1.0000
  O   O20       1.0  0.60149  0.02797  0.14152  1.0000
  O   O21       1.0  0.50310  0.95269  0.67383  1.0000
  O   O22       1.0  0.49690  0.04731  0.32617  1.0000
  O   O23       1.0  0.29084  0.06793  0.71988  1.0000
  O   O24       1.0  0.70916  0.93207  0.28012  1.0000
  O   O25       1.0  0.56782  0.71378  0.87729  1.0000
  O   O26       1.0  0.43218  0.28622  0.12271  1.0000
  O   O27       1.0  0.04498  0.80332  0.63885  1.0000
  O   O28       1.0  0.95502  0.19668  0.36115  1.0000
  O   O29       1.0  0.69198  0.67253  0.48214  1.0000
  O   O30       1.0  0.30803  0.32747  0.51787  1.0000
  O   O31       1.0  0.68997  0.24346  0.88501  1.0000
  O   O32       1.0  0.31002  0.75654  0.11499  1.0000
