data_image0
_chemical_formula_structural       Cd2H48C48N4O22
_chemical_formula_sum              "Cd2 H48 C48 N4 O22"
_cell_length_a       10.5267
_cell_length_b       11.3455
_cell_length_c       11.2571
_cell_angle_alpha    70.5815
_cell_angle_beta     81.9203
_cell_angle_gamma    73.8057

_space_group_name_H-M_alt    "P 1"
_space_group_IT_number       1

loop_
  _space_group_symop_operation_xyz
  'x, y, z'

loop_
  _atom_site_type_symbol
  _atom_site_label
  _atom_site_symmetry_multiplicity
  _atom_site_fract_x
  _atom_site_fract_y
  _atom_site_fract_z
  _atom_site_occupancy
  Cd  Cd1       1.0  0.54379  0.41120  0.28957  1.0000
  Cd  Cd2       1.0  0.45620  0.58880  0.71043  1.0000
  H   H1        1.0  0.10872  0.56834  0.31217  1.0000
  H   H2        1.0  0.89127  0.43166  0.68784  1.0000
  H   H3        1.0  0.40187  0.99547  0.85416  1.0000
  H   H4        1.0  0.59813  0.00453  0.14584  1.0000
  H   H5        1.0  0.19047  0.38016  0.85488  1.0000
  H   H6        1.0  0.80952  0.61984  0.14512  1.0000
  H   H7        1.0  0.21780  0.05926  0.20172  1.0000
  H   H8        1.0  0.78221  0.94074  0.79827  1.0000
  H   H9        1.0  0.51808  0.83678  0.98857  1.0000
  H   H10       1.0  0.48193  0.16322  0.01143  1.0000
  H   H11       1.0  0.37207  0.80383  0.95878  1.0000
  H   H12       1.0  0.62793  0.19617  0.04122  1.0000
  H   H13       1.0  0.41050  0.08491  0.64911  1.0000
  H   H14       1.0  0.58950  0.91509  0.35089  1.0000
  H   H15       1.0  0.52099  0.13582  0.71736  1.0000
  H   H16       1.0  0.47901  0.86419  0.28263  1.0000
  H   H17       1.0  0.17381  0.21458  0.27576  1.0000
  H   H18       1.0  0.82619  0.78542  0.72424  1.0000
  H   H19       1.0  0.00559  0.24179  0.23674  1.0000
  H   H20       1.0  0.99442  0.75821  0.76327  1.0000
  H   H21       1.0  0.70444  0.12793  0.33019  1.0000
  H   H22       1.0  0.29557  0.87206  0.66982  1.0000
  H   H23       1.0  0.86390  0.98301  0.22193  1.0000
  H   H24       1.0  0.13611  0.01699  0.77807  1.0000
  H   H25       1.0  0.91464  0.32619  0.92250  1.0000
  H   H26       1.0  0.08536  0.67382  0.07750  1.0000
  H   H27       1.0  0.75255  0.45497  0.04276  1.0000
  H   H28       1.0  0.24745  0.54503  0.95725  1.0000
  H   H29       1.0  0.04512  0.11772  0.90696  1.0000
  H   H30       1.0  0.95488  0.88229  0.09304  1.0000
  H   H31       1.0  0.30863  0.39080  0.20913  1.0000
  H   H32       1.0  0.69137  0.60919  0.79087  1.0000
  H   H33       1.0  0.42117  0.37238  0.10038  1.0000
  H   H34       1.0  0.57883  0.62762  0.89962  1.0000
  H   H35       1.0  0.77890  0.44526  0.36459  1.0000
  H   H36       1.0  0.22110  0.55474  0.63542  1.0000
  H   H37       1.0  0.65729  0.52600  0.43175  1.0000
  H   H38       1.0  0.34271  0.47400  0.56825  1.0000
  H   H39       1.0  0.11294  0.37123  0.61542  1.0000
  H   H40       1.0  0.88706  0.62877  0.38458  1.0000
  H   H41       1.0  0.19024  0.18344  0.52848  1.0000
  H   H42       1.0  0.80975  0.81656  0.47151  1.0000
  H   H43       1.0  0.78380  0.14744  0.58658  1.0000
  H   H44       1.0  0.21620  0.85255  0.41342  1.0000
  H   H45       1.0  0.72723  0.32858  0.67699  1.0000
  H   H46       1.0  0.27277  0.67142  0.32301  1.0000
  H   H47       1.0  0.14531  0.00916  0.48187  1.0000
  H   H48       1.0  0.85468  0.99084  0.51813  1.0000
  C   C1        1.0  0.31270  0.01457  0.03430  1.0000
  C   C2        1.0  0.68731  0.98543  0.96570  1.0000
  C   C3        1.0  0.34384  0.06030  0.90495  1.0000
  C   C4        1.0  0.65616  0.93970  0.09505  1.0000
  C   C5        1.0  0.29856  0.19236  0.84156  1.0000
  C   C6        1.0  0.70144  0.80764  0.15843  1.0000
  C   C7        1.0  0.22359  0.27767  0.90473  1.0000
  C   C8        1.0  0.77641  0.72233  0.09526  1.0000
  C   C9        1.0  0.19749  0.23020  0.03515  1.0000
  C   C10       1.0  0.80251  0.76980  0.96485  1.0000
  C   C11       1.0  0.23999  0.09878  0.10125  1.0000
  C   C12       1.0  0.76001  0.90122  0.89875  1.0000
  C   C13       1.0  0.42921  0.80336  0.03360  1.0000
  C   C14       1.0  0.57080  0.19664  0.96640  1.0000
  C   C15       1.0  0.47512  0.66501  0.11602  1.0000
  C   C16       1.0  0.52488  0.33499  0.88398  1.0000
  C   C17       1.0  0.43482  0.16989  0.65862  1.0000
  C   C18       1.0  0.56518  0.83011  0.34137  1.0000
  C   C19       1.0  0.47395  0.24999  0.52791  1.0000
  C   C20       1.0  0.52604  0.75001  0.47208  1.0000
  C   C21       1.0  0.09068  0.28459  0.22061  1.0000
  C   C22       1.0  0.90932  0.71541  0.77939  1.0000
  C   C23       1.0  0.05534  0.40528  0.26335  1.0000
  C   C24       1.0  0.94466  0.59471  0.73665  1.0000
  C   C25       1.0  0.75449  0.16639  0.23961  1.0000
  C   C26       1.0  0.24552  0.83361  0.76039  1.0000
  C   C27       1.0  0.84270  0.08698  0.17817  1.0000
  C   C28       1.0  0.15731  0.91302  0.82184  1.0000
  C   C29       1.0  0.90229  0.14141  0.05997  1.0000
  C   C30       1.0  0.09771  0.85860  0.94003  1.0000
  C   C31       1.0  0.87062  0.27685  0.01222  1.0000
  C   C32       1.0  0.12938  0.72316  0.98779  1.0000
  C   C33       1.0  0.78068  0.35006  0.07927  1.0000
  C   C34       1.0  0.21932  0.64995  0.92074  1.0000
  C   C35       1.0  0.99118  0.06418  0.98746  1.0000
  C   C36       1.0  0.00882  0.93583  0.01254  1.0000
  C   C37       1.0  0.04699  0.31607  0.60683  1.0000
  C   C38       1.0  0.95300  0.68393  0.39317  1.0000
  C   C39       1.0  0.08696  0.21237  0.56025  1.0000
  C   C40       1.0  0.91304  0.78763  0.43975  1.0000
  C   C41       1.0  0.99435  0.14603  0.55326  1.0000
  C   C42       1.0  0.00565  0.85397  0.44674  1.0000
  C   C43       1.0  0.86222  0.18999  0.59360  1.0000
  C   C44       1.0  0.13778  0.81001  0.40640  1.0000
  C   C45       1.0  0.82757  0.29328  0.64084  1.0000
  C   C46       1.0  0.17243  0.70672  0.35916  1.0000
  C   C47       1.0  0.03920  0.03538  0.50644  1.0000
  C   C48       1.0  0.96080  0.96462  0.49355  1.0000
  N   N1        1.0  0.72222  0.29618  0.19092  1.0000
  N   N2        1.0  0.27779  0.70382  0.80908  1.0000
  N   N3        1.0  0.91978  0.35263  0.64705  1.0000
  N   N4        1.0  0.08022  0.64737  0.35295  1.0000
  O   O1        1.0  0.35056  0.88659  0.10276  1.0000
  O   O2        1.0  0.64945  0.11341  0.89724  1.0000
  O   O3        1.0  0.32559  0.24428  0.71497  1.0000
  O   O4        1.0  0.67440  0.75573  0.28502  1.0000
  O   O5        1.0  0.13004  0.32294  0.08952  1.0000
  O   O6        1.0  0.86996  0.67705  0.91048  1.0000
  O   O7        1.0  0.44211  0.63190  0.23321  1.0000
  O   O8        1.0  0.55789  0.36811  0.76679  1.0000
  O   O9        1.0  0.54683  0.58782  0.05964  1.0000
  O   O10       1.0  0.45317  0.41217  0.94036  1.0000
  O   O11       1.0  0.57251  0.19330  0.47232  1.0000
  O   O12       1.0  0.42749  0.80670  0.52768  1.0000
  O   O13       1.0  0.40782  0.36639  0.48111  1.0000
  O   O14       1.0  0.59217  0.63362  0.51889  1.0000
  O   O15       1.0  0.94249  0.44030  0.31245  1.0000
  O   O16       1.0  0.05750  0.55969  0.68755  1.0000
  O   O17       1.0  0.14891  0.46234  0.24804  1.0000
  O   O18       1.0  0.85109  0.53765  0.75196  1.0000
  O   O19       1.0  0.40314  0.34752  0.19400  1.0000
  O   O20       1.0  0.59686  0.65247  0.80600  1.0000
  O   O21       1.0  0.68827  0.44808  0.40312  1.0000
  O   O22       1.0  0.31173  0.55192  0.59688  1.0000
