data_image0
_chemical_formula_structural       Cu2H16C16N4O12
_chemical_formula_sum              "Cu2 H16 C16 N4 O12"
_cell_length_a       6.38318
_cell_length_b       8.48876
_cell_length_c       9.8993
_cell_angle_alpha    89.9998
_cell_angle_beta     107.281
_cell_angle_gamma    89.9998

_space_group_name_H-M_alt    "P 1"
_space_group_IT_number       1

loop_
  _space_group_symop_operation_xyz
  'x, y, z'

loop_
  _atom_site_type_symbol
  _atom_site_label
  _atom_site_symmetry_multiplicity
  _atom_site_fract_x
  _atom_site_fract_y
  _atom_site_fract_z
  _atom_site_occupancy
  Cu  Cu1       1.0  0.49997  0.00002  0.00001  1.0000
  Cu  Cu2       1.0  0.49999  0.50000  0.50000  1.0000
  H   H1        1.0  0.67443  0.10580  0.25704  1.0000
  H   H2        1.0  0.32557  0.60581  0.24296  1.0000
  H   H3        1.0  0.32558  0.89420  0.74297  1.0000
  H   H4        1.0  0.67444  0.39420  0.75704  1.0000
  H   H5        1.0  0.62434  0.35643  0.17052  1.0000
  H   H6        1.0  0.37566  0.85643  0.32950  1.0000
  H   H7        1.0  0.37567  0.64357  0.82948  1.0000
  H   H8        1.0  0.62433  0.14357  0.67051  1.0000
  H   H9        1.0  0.98264  0.45271  0.14782  1.0000
  H   H10       1.0  0.01737  0.95271  0.35220  1.0000
  H   H11       1.0  0.01737  0.54729  0.85219  1.0000
  H   H12       1.0  0.98262  0.04729  0.64781  1.0000
  H   H13       1.0  0.02459  0.32530  0.29565  1.0000
  H   H14       1.0  0.97541  0.82532  0.20435  1.0000
  H   H15       1.0  0.97542  0.67469  0.70435  1.0000
  H   H16       1.0  0.02459  0.17469  0.79565  1.0000
  C   C1        1.0  0.72348  0.27989  0.12355  1.0000
  C   C2        1.0  0.27652  0.77988  0.37645  1.0000
  C   C3        1.0  0.27653  0.72011  0.87644  1.0000
  C   C4        1.0  0.72348  0.22012  0.62355  1.0000
  C   C5        1.0  0.63976  0.29710  0.96253  1.0000
  C   C6        1.0  0.36025  0.79709  0.53747  1.0000
  C   C7        1.0  0.36026  0.70291  0.03746  1.0000
  C   C8        1.0  0.63975  0.20291  0.46254  1.0000
  C   C9        1.0  0.96573  0.33042  0.17941  1.0000
  C   C10       1.0  0.03427  0.83043  0.32060  1.0000
  C   C11       1.0  0.03429  0.66957  0.82059  1.0000
  C   C12       1.0  0.96572  0.16957  0.67941  1.0000
  C   C13       1.0  0.10023  0.23041  0.11964  1.0000
  C   C14       1.0  0.89976  0.73042  0.38035  1.0000
  C   C15       1.0  0.89978  0.76957  0.88035  1.0000
  C   C16       1.0  0.10023  0.26958  0.61965  1.0000
  N   N1        1.0  0.19550  0.14698  0.06532  1.0000
  N   N2        1.0  0.80447  0.64699  0.43466  1.0000
  N   N3        1.0  0.80450  0.85300  0.93466  1.0000
  N   N4        1.0  0.19552  0.35301  0.56533  1.0000
  O   O1        1.0  0.70083  0.11857  0.15859  1.0000
  O   O2        1.0  0.29915  0.61856  0.34141  1.0000
  O   O3        1.0  0.29915  0.88144  0.84141  1.0000
  O   O4        1.0  0.70085  0.38144  0.65859  1.0000
  O   O5        1.0  0.53294  0.18209  0.89008  1.0000
  O   O6        1.0  0.46704  0.68207  0.60993  1.0000
  O   O7        1.0  0.46703  0.81793  0.10993  1.0000
  O   O8        1.0  0.53296  0.31792  0.39007  1.0000
  O   O9        1.0  0.68390  0.42201  0.90759  1.0000
  O   O10       1.0  0.31610  0.92200  0.59241  1.0000
  O   O11       1.0  0.31614  0.57799  0.09241  1.0000
  O   O12       1.0  0.68390  0.07800  0.40759  1.0000
