data_image0
_chemical_formula_structural       SrFe2H16C28N4O18
_chemical_formula_sum              "Sr1 Fe2 H16 C28 N4 O18"
_cell_length_a       7.91429
_cell_length_b       9.32926
_cell_length_c       11.6336
_cell_angle_alpha    104.862
_cell_angle_beta     98.5306
_cell_angle_gamma    111.208

_space_group_name_H-M_alt    "P 1"
_space_group_IT_number       1

loop_
  _space_group_symop_operation_xyz
  'x, y, z'

loop_
  _atom_site_type_symbol
  _atom_site_label
  _atom_site_symmetry_multiplicity
  _atom_site_fract_x
  _atom_site_fract_y
  _atom_site_fract_z
  _atom_site_occupancy
  Sr  Sr1       1.0  1.00000  1.00000  1.00000  1.0000
  Fe  Fe1       1.0  0.52124  0.23111  0.76208  1.0000
  Fe  Fe2       1.0  0.47876  0.76889  0.23792  1.0000
  H   H1        1.0  0.14746  0.65095  0.91618  1.0000
  H   H2        1.0  0.85254  0.34905  0.08381  1.0000
  H   H3        1.0  0.95521  0.35911  0.78176  1.0000
  H   H4        1.0  0.04480  0.64090  0.21822  1.0000
  H   H5        1.0  0.79618  0.47780  0.67152  1.0000
  H   H6        1.0  0.20382  0.52219  0.32848  1.0000
  H   H7        1.0  0.11470  0.18233  0.70783  1.0000
  H   H8        1.0  0.88530  0.81767  0.29217  1.0000
  H   H9        1.0  0.81886  0.48366  0.46015  1.0000
  H   H10       1.0  0.18114  0.51633  0.53985  1.0000
  H   H11       1.0  0.57702  0.25217  0.27442  1.0000
  H   H12       1.0  0.42297  0.74782  0.72558  1.0000
  H   H13       1.0  0.75326  0.06083  0.16756  1.0000
  H   H14       1.0  0.24676  0.93918  0.83244  1.0000
  H   H15       1.0  0.95560  0.12898  0.25008  1.0000
  H   H16       1.0  0.04442  0.87102  0.74992  1.0000
  C   C1        1.0  0.27734  0.99466  0.27579  1.0000
  C   C2        1.0  0.72265  0.00533  0.72421  1.0000
  C   C3        1.0  0.42081  0.13852  0.50661  1.0000
  C   C4        1.0  0.57918  0.86149  0.49340  1.0000
  C   C5        1.0  0.27413  0.01371  0.53983  1.0000
  C   C6        1.0  0.72587  0.98630  0.46017  1.0000
  C   C7        1.0  0.42527  0.13150  0.38599  1.0000
  C   C8        1.0  0.57473  0.86850  0.61401  1.0000
  C   C9        1.0  0.69581  0.56185  0.89841  1.0000
  C   C10       1.0  0.30419  0.43815  0.10158  1.0000
  C   C11       1.0  0.41133  0.63055  0.91251  1.0000
  C   C12       1.0  0.58867  0.36944  0.08749  1.0000
  C   C13       1.0  0.49101  0.52340  0.86812  1.0000
  C   C14       1.0  0.50899  0.47659  0.13187  1.0000
  C   C15       1.0  0.21487  0.57213  0.88118  1.0000
  C   C16       1.0  0.78513  0.42787  0.11882  1.0000
  C   C17       1.0  0.53578  0.80547  0.98979  1.0000
  C   C18       1.0  0.46422  0.19453  0.01021  1.0000
  C   C19       1.0  0.10774  0.41103  0.80532  1.0000
  C   C20       1.0  0.89226  0.58896  0.19467  1.0000
  C   C21       1.0  0.69270  0.38273  0.58898  1.0000
  C   C22       1.0  0.30730  0.61727  0.41102  1.0000
  C   C23       1.0  0.19521  0.30966  0.76433  1.0000
  C   C24       1.0  0.80479  0.69033  0.23567  1.0000
  C   C25       1.0  0.70408  0.38378  0.47068  1.0000
  C   C26       1.0  0.29592  0.61622  0.52932  1.0000
  C   C27       1.0  0.57067  0.25721  0.36812  1.0000
  C   C28       1.0  0.42932  0.74279  0.63188  1.0000
  N   N1        1.0  0.38316  0.36520  0.79632  1.0000
  N   N2        1.0  0.61684  0.63480  0.20368  1.0000
  N   N3        1.0  0.55365  0.26168  0.60607  1.0000
  N   N4        1.0  0.44634  0.73832  0.39393  1.0000
  O   O1        1.0  0.30081  0.04816  0.66000  1.0000
  O   O2        1.0  0.69919  0.95185  0.34000  1.0000
  O   O3        1.0  0.73000  0.43564  0.85231  1.0000
  O   O4        1.0  0.27000  0.56436  0.14768  1.0000
  O   O5        1.0  0.55090  0.85372  0.10639  1.0000
  O   O6        1.0  0.44910  0.14628  0.89360  1.0000
  O   O7        1.0  0.30104  0.86521  0.23101  1.0000
  O   O8        1.0  0.69896  0.13479  0.76899  1.0000
  O   O9        1.0  0.13997  0.01732  0.22903  1.0000
  O   O10       1.0  0.86000  0.98267  0.77098  1.0000
  O   O11       1.0  0.62037  0.89872  0.93670  1.0000
  O   O12       1.0  0.37963  0.10128  0.06330  1.0000
  O   O13       1.0  0.82135  0.69891  0.96194  1.0000
  O   O14       1.0  0.17865  0.30109  0.03805  1.0000
  O   O15       1.0  0.14248  0.89266  0.46267  1.0000
  O   O16       1.0  0.85751  0.10734  0.53733  1.0000
  O   O17       1.0  0.88216  0.14355  0.18218  1.0000
  O   O18       1.0  0.11786  0.85646  0.81783  1.0000
