data_image0
_chemical_formula_structural       Cd4H48C40N20O24
_chemical_formula_sum              "Cd4 H48 C40 N20 O24"
_cell_length_a       7.60242
_cell_length_b       7.32715
_cell_length_c       26.218
_cell_angle_alpha    90.0004
_cell_angle_beta     89.9996
_cell_angle_gamma    109.256

_space_group_name_H-M_alt    "P 1"
_space_group_IT_number       1

loop_
  _space_group_symop_operation_xyz
  'x, y, z'

loop_
  _atom_site_type_symbol
  _atom_site_label
  _atom_site_symmetry_multiplicity
  _atom_site_fract_x
  _atom_site_fract_y
  _atom_site_fract_z
  _atom_site_occupancy
  Cd  Cd1       1.0  0.31094  0.00629  0.15085  1.0000
  Cd  Cd2       1.0  0.18906  0.99370  0.65085  1.0000
  Cd  Cd3       1.0  0.68906  0.99370  0.84915  1.0000
  Cd  Cd4       1.0  0.81094  0.00629  0.34915  1.0000
  H   H1        1.0  0.74968  0.36031  0.21618  1.0000
  H   H2        1.0  0.75032  0.63969  0.71618  1.0000
  H   H3        1.0  0.25032  0.63969  0.78382  1.0000
  H   H4        1.0  0.24969  0.36031  0.28382  1.0000
  H   H5        1.0  0.24277  0.34686  0.18055  1.0000
  H   H6        1.0  0.25722  0.65314  0.68055  1.0000
  H   H7        1.0  0.75724  0.65314  0.81945  1.0000
  H   H8        1.0  0.74278  0.34686  0.31945  1.0000
  H   H9        1.0  0.04218  0.18805  0.16818  1.0000
  H   H10       1.0  0.45781  0.81194  0.66818  1.0000
  H   H11       1.0  0.95783  0.81196  0.83182  1.0000
  H   H12       1.0  0.54219  0.18805  0.33182  1.0000
  H   H13       1.0  0.61470  0.35550  0.12930  1.0000
  H   H14       1.0  0.88529  0.64450  0.62930  1.0000
  H   H15       1.0  0.38529  0.64450  0.87070  1.0000
  H   H16       1.0  0.11471  0.35550  0.37070  1.0000
  H   H17       1.0  0.68537  0.17355  0.14116  1.0000
  H   H18       1.0  0.81462  0.82645  0.64116  1.0000
  H   H19       1.0  0.31463  0.82645  0.85884  1.0000
  H   H20       1.0  0.18538  0.17355  0.35884  1.0000
  H   H21       1.0  0.28858  0.78353  0.03051  1.0000
  H   H22       1.0  0.21142  0.21648  0.53051  1.0000
  H   H23       1.0  0.71142  0.21646  0.96949  1.0000
  H   H24       1.0  0.78858  0.78354  0.46949  1.0000
  H   H25       1.0  0.96560  0.58734  0.15138  1.0000
  H   H26       1.0  0.53440  0.41267  0.65138  1.0000
  H   H27       1.0  0.03440  0.41266  0.84862  1.0000
  H   H28       1.0  0.46561  0.58734  0.34862  1.0000
  H   H29       1.0  0.86621  0.94051  0.10286  1.0000
  H   H30       1.0  0.63378  0.05950  0.60286  1.0000
  H   H31       1.0  0.13378  0.05948  0.89714  1.0000
  H   H32       1.0  0.36621  0.94050  0.39713  1.0000
  H   H33       1.0  0.68739  0.82562  0.97764  1.0000
  H   H34       1.0  0.81261  0.17437  0.47764  1.0000
  H   H35       1.0  0.31261  0.17438  0.02236  1.0000
  H   H36       1.0  0.18740  0.82562  0.52236  1.0000
  H   H37       1.0  0.61047  0.79329  0.04263  1.0000
  H   H38       1.0  0.88953  0.20671  0.54263  1.0000
  H   H39       1.0  0.38952  0.20671  0.95738  1.0000
  H   H40       1.0  0.11048  0.79329  0.45737  1.0000
  H   H41       1.0  0.63549  0.45255  0.03713  1.0000
  H   H42       1.0  0.86450  0.54744  0.53714  1.0000
  H   H43       1.0  0.36450  0.54744  0.96287  1.0000
  H   H44       1.0  0.13550  0.45255  0.46287  1.0000
  H   H45       1.0  0.67119  0.49133  0.97028  1.0000
  H   H46       1.0  0.82880  0.50866  0.47028  1.0000
  H   H47       1.0  0.32881  0.50866  0.02972  1.0000
  H   H48       1.0  0.17120  0.49134  0.52972  1.0000
  C   C1        1.0  0.86374  0.48846  0.22764  1.0000
  C   C2        1.0  0.63626  0.51154  0.72764  1.0000
  C   C3        1.0  0.13625  0.51154  0.77236  1.0000
  C   C4        1.0  0.36374  0.48846  0.27236  1.0000
  C   C5        1.0  0.04384  0.69252  0.35130  1.0000
  C   C6        1.0  0.45616  0.30747  0.85130  1.0000
  C   C7        1.0  0.95616  0.30748  0.64870  1.0000
  C   C8        1.0  0.54384  0.69253  0.14870  1.0000
  C   C9        1.0  0.13798  0.81139  0.25832  1.0000
  C   C10       1.0  0.36202  0.18861  0.75832  1.0000
  C   C11       1.0  0.86202  0.18862  0.74168  1.0000
  C   C12       1.0  0.63798  0.81139  0.24168  1.0000
  C   C13       1.0  0.15628  0.80365  0.03820  1.0000
  C   C14       1.0  0.34372  0.19635  0.53821  1.0000
  C   C15       1.0  0.84372  0.19634  0.96180  1.0000
  C   C16       1.0  0.65629  0.80365  0.46180  1.0000
  C   C17       1.0  0.98020  0.61353  0.19228  1.0000
  C   C18       1.0  0.51980  0.38647  0.69228  1.0000
  C   C19       1.0  0.01980  0.38647  0.80772  1.0000
  C   C20       1.0  0.48020  0.61353  0.30772  1.0000
  C   C21       1.0  0.02383  0.68080  0.29378  1.0000
  C   C22       1.0  0.47617  0.31920  0.79378  1.0000
  C   C23       1.0  0.97617  0.31921  0.70622  1.0000
  C   C24       1.0  0.52383  0.68080  0.20622  1.0000
  C   C25       1.0  0.94562  0.88629  0.07604  1.0000
  C   C26       1.0  0.55438  0.11371  0.57605  1.0000
  C   C27       1.0  0.05438  0.11371  0.92396  1.0000
  C   C28       1.0  0.44563  0.88629  0.42395  1.0000
  C   C29       1.0  0.68835  0.74608  0.01304  1.0000
  C   C30       1.0  0.81164  0.25391  0.51304  1.0000
  C   C31       1.0  0.31165  0.25393  0.98696  1.0000
  C   C32       1.0  0.18835  0.74607  0.48696  1.0000
  C   C33       1.0  0.60482  0.52910  0.00403  1.0000
  C   C34       1.0  0.89519  0.47090  0.50403  1.0000
  C   C35       1.0  0.39517  0.47089  0.99597  1.0000
  C   C36       1.0  0.10484  0.52911  0.49597  1.0000
  C   C37       1.0  0.29587  0.99463  0.27266  1.0000
  C   C38       1.0  0.20413  0.00537  0.77267  1.0000
  C   C39       1.0  0.70413  0.00537  0.72734  1.0000
  C   C40       1.0  0.79587  0.99463  0.22734  1.0000
  N   N1        1.0  0.88704  0.52188  0.27760  1.0000
  N   N2        1.0  0.61296  0.47812  0.77760  1.0000
  N   N3        1.0  0.11296  0.47813  0.72240  1.0000
  N   N4        1.0  0.38705  0.52188  0.22240  1.0000
  N   N5        1.0  0.12235  0.89149  0.08145  1.0000
  N   N6        1.0  0.37766  0.10851  0.58145  1.0000
  N   N7        1.0  0.87764  0.10850  0.91855  1.0000
  N   N8        1.0  0.62235  0.89149  0.41855  1.0000
  N   N9        1.0  0.11351  0.77274  0.20817  1.0000
  N   N10       1.0  0.38648  0.22727  0.70817  1.0000
  N   N11       1.0  0.88648  0.22727  0.79183  1.0000
  N   N12       1.0  0.61351  0.77273  0.29183  1.0000
  N   N13       1.0  0.01175  0.74582  0.00685  1.0000
  N   N14       1.0  0.48825  0.25418  0.50685  1.0000
  N   N15       1.0  0.98825  0.25418  0.99315  1.0000
  N   N16       1.0  0.51175  0.74582  0.49315  1.0000
  N   N17       1.0  0.87902  0.79918  0.03182  1.0000
  N   N18       1.0  0.62098  0.20082  0.53182  1.0000
  N   N19       1.0  0.12098  0.20082  0.96818  1.0000
  N   N20       1.0  0.37902  0.79918  0.46818  1.0000
  O   O1        1.0  0.40404  0.08425  0.23746  1.0000
  O   O2        1.0  0.09596  0.91575  0.73746  1.0000
  O   O3        1.0  0.59596  0.91575  0.76254  1.0000
  O   O4        1.0  0.90404  0.08425  0.26254  1.0000
  O   O5        1.0  0.17248  0.24577  0.15550  1.0000
  O   O6        1.0  0.32751  0.75422  0.65550  1.0000
  O   O7        1.0  0.82753  0.75423  0.84450  1.0000
  O   O8        1.0  0.67249  0.24578  0.34450  1.0000
  O   O9        1.0  0.13331  0.59122  0.37015  1.0000
  O   O10       1.0  0.36670  0.40878  0.87016  1.0000
  O   O11       1.0  0.86670  0.40878  0.62984  1.0000
  O   O12       1.0  0.63330  0.59122  0.12984  1.0000
  O   O13       1.0  0.96401  0.79130  0.37602  1.0000
  O   O14       1.0  0.53599  0.20869  0.87602  1.0000
  O   O15       1.0  0.03600  0.20870  0.62398  1.0000
  O   O16       1.0  0.46401  0.79131  0.12398  1.0000
  O   O17       1.0  0.59214  0.21546  0.12284  1.0000
  O   O18       1.0  0.90786  0.78455  0.62284  1.0000
  O   O19       1.0  0.40786  0.78454  0.87716  1.0000
  O   O20       1.0  0.09214  0.21546  0.37716  1.0000
  O   O21       1.0  0.31183  0.04349  0.31949  1.0000
  O   O22       1.0  0.18818  0.95651  0.81949  1.0000
  O   O23       1.0  0.68817  0.95650  0.68051  1.0000
  O   O24       1.0  0.81182  0.04349  0.18051  1.0000
