data_image0
_chemical_formula_structural       Cd2H20C28Cl4O10
_chemical_formula_sum              "Cd2 H20 C28 Cl4 O10"
_cell_length_a       6.25465
_cell_length_b       7.32055
_cell_length_c       17.0653
_cell_angle_alpha    97.298
_cell_angle_beta     103.481
_cell_angle_gamma    86.8457

_space_group_name_H-M_alt    "P 1"
_space_group_IT_number       1

loop_
  _space_group_symop_operation_xyz
  'x, y, z'

loop_
  _atom_site_type_symbol
  _atom_site_label
  _atom_site_symmetry_multiplicity
  _atom_site_fract_x
  _atom_site_fract_y
  _atom_site_fract_z
  _atom_site_occupancy
  Cd  Cd1       1.0  0.82578  0.24650  0.99619  1.0000
  Cd  Cd2       1.0  0.17421  0.75351  0.00381  1.0000
  H   H1        1.0  0.54295  0.60532  0.16048  1.0000
  H   H2        1.0  0.40609  0.88966  0.84973  1.0000
  H   H3        1.0  0.45707  0.39469  0.83952  1.0000
  H   H4        1.0  0.59391  0.11035  0.15028  1.0000
  H   H5        1.0  0.78149  0.69878  0.29702  1.0000
  H   H6        1.0  0.51611  0.80462  0.71877  1.0000
  H   H7        1.0  0.21851  0.30122  0.70298  1.0000
  H   H8        1.0  0.48389  0.19536  0.28123  1.0000
  H   H9        1.0  0.28805  0.52724  0.40985  1.0000
  H   H10       1.0  0.87797  0.98538  0.58940  1.0000
  H   H11       1.0  0.71196  0.47275  0.59015  1.0000
  H   H12       1.0  0.12203  0.01462  0.41060  1.0000
  H   H13       1.0  0.05026  0.43168  0.27242  1.0000
  H   H14       1.0  0.76855  0.07192  0.72157  1.0000
  H   H15       1.0  0.94975  0.56831  0.72757  1.0000
  H   H16       1.0  0.23143  0.92808  0.27843  1.0000
  H   H17       1.0  0.39002  0.35560  0.01671  1.0000
  H   H18       1.0  0.36361  0.16766  0.95984  1.0000
  H   H19       1.0  0.60997  0.64441  0.98328  1.0000
  H   H20       1.0  0.63639  0.83235  0.04015  1.0000
  C   C1        1.0  0.14419  0.44843  0.12679  1.0000
  C   C2        1.0  0.01492  0.04080  0.87208  1.0000
  C   C3        1.0  0.85582  0.55157  0.87320  1.0000
  C   C4        1.0  0.98507  0.95920  0.12791  1.0000
  C   C5        1.0  0.28207  0.51189  0.20819  1.0000
  C   C6        1.0  0.07974  0.98588  0.79388  1.0000
  C   C7        1.0  0.71794  0.48813  0.79181  1.0000
  C   C8        1.0  0.92026  0.01412  0.20612  1.0000
  C   C9        1.0  0.48769  0.58793  0.21505  1.0000
  C   C10       1.0  0.29045  0.91075  0.79289  1.0000
  C   C11       1.0  0.51234  0.41208  0.78495  1.0000
  C   C12       1.0  0.70955  0.08925  0.20712  1.0000
  C   C13       1.0  0.62128  0.64042  0.29108  1.0000
  C   C14       1.0  0.35284  0.86274  0.71984  1.0000
  C   C15       1.0  0.37873  0.35958  0.70892  1.0000
  C   C16       1.0  0.64712  0.13726  0.28015  1.0000
  C   C17       1.0  0.54807  0.61670  0.36047  1.0000
  C   C18       1.0  0.20302  0.88960  0.64723  1.0000
  C   C19       1.0  0.45194  0.38331  0.63954  1.0000
  C   C20       1.0  0.79697  0.11038  0.35278  1.0000
  C   C21       1.0  0.34184  0.54448  0.35501  1.0000
  C   C22       1.0  0.99165  0.96386  0.64662  1.0000
  C   C23       1.0  0.65818  0.45551  0.64499  1.0000
  C   C24       1.0  0.00837  0.03612  0.35339  1.0000
  C   C25       1.0  0.20981  0.49168  0.27853  1.0000
  C   C26       1.0  0.93123  0.01186  0.72026  1.0000
  C   C27       1.0  0.79019  0.50830  0.72148  1.0000
  C   C28       1.0  0.06875  0.98815  0.27973  1.0000
  Cl  Cl1       1.0  0.71999  0.67538  0.45466  1.0000
  Cl  Cl2       1.0  0.28462  0.83148  0.55701  1.0000
  Cl  Cl3       1.0  0.28001  0.32461  0.54534  1.0000
  Cl  Cl4       1.0  0.71537  0.16849  0.44300  1.0000
  O   O1        1.0  0.96391  0.37062  0.12300  1.0000
  O   O2        1.0  0.82078  0.10389  0.87100  1.0000
  O   O3        1.0  0.03612  0.62939  0.87699  1.0000
  O   O4        1.0  0.17920  0.89612  0.12901  1.0000
  O   O5        1.0  0.21006  0.46963  0.06269  1.0000
  O   O6        1.0  0.15817  0.02883  0.93968  1.0000
  O   O7        1.0  0.78994  0.53038  0.93731  1.0000
  O   O8        1.0  0.84183  0.97119  0.06033  1.0000
  O   O9        1.0  0.46028  0.27659  0.97730  1.0000
  O   O10       1.0  0.53971  0.72340  0.02269  1.0000
