data_image0
_chemical_formula_structural       Cd3H38C48N8O14
_chemical_formula_sum              "Cd3 H38 C48 N8 O14"
_cell_length_a       10.7833
_cell_length_b       10.7821
_cell_length_c       11.0401
_cell_angle_alpha    97.4054
_cell_angle_beta     95.9565
_cell_angle_gamma    96.5563

_space_group_name_H-M_alt    "P 1"
_space_group_IT_number       1

loop_
  _space_group_symop_operation_xyz
  'x, y, z'

loop_
  _atom_site_type_symbol
  _atom_site_label
  _atom_site_symmetry_multiplicity
  _atom_site_fract_x
  _atom_site_fract_y
  _atom_site_fract_z
  _atom_site_occupancy
  Cd  Cd1       1.0  0.50000  0.50000  0.50000  1.0000
  Cd  Cd2       1.0  0.71633  0.70717  0.70211  1.0000
  Cd  Cd3       1.0  0.28367  0.29283  0.29789  1.0000
  H   H1        1.0  0.33068  0.33329  0.75362  1.0000
  H   H2        1.0  0.66932  0.66671  0.24638  1.0000
  H   H3        1.0  0.24316  0.36944  0.95725  1.0000
  H   H4        1.0  0.75684  0.63056  0.04275  1.0000
  H   H5        1.0  0.91782  0.49609  0.77633  1.0000
  H   H6        1.0  0.08218  0.50391  0.22366  1.0000
  H   H7        1.0  0.99803  0.44929  0.57384  1.0000
  H   H8        1.0  0.00198  0.55071  0.42616  1.0000
  H   H9        1.0  0.22181  0.67099  0.60317  1.0000
  H   H10       1.0  0.77819  0.32901  0.39683  1.0000
  H   H11       1.0  0.03636  0.78123  0.54589  1.0000
  H   H12       1.0  0.96364  0.21877  0.45412  1.0000
  H   H13       1.0  0.28769  0.12173  0.53997  1.0000
  H   H14       1.0  0.71231  0.87827  0.46003  1.0000
  H   H15       1.0  0.47085  0.01114  0.60110  1.0000
  H   H16       1.0  0.52915  0.98886  0.39890  1.0000
  H   H17       1.0  0.63278  0.21110  0.68082  1.0000
  H   H18       1.0  0.36722  0.78890  0.31918  1.0000
  H   H19       1.0  0.57979  0.02849  0.79524  1.0000
  H   H20       1.0  0.42021  0.97151  0.20476  1.0000
  H   H21       1.0  0.53922  0.29027  0.11468  1.0000
  H   H22       1.0  0.46078  0.70973  0.88532  1.0000
  H   H23       1.0  0.59722  0.47034  0.00110  1.0000
  H   H24       1.0  0.40278  0.52966  0.99890  1.0000
  H   H25       1.0  0.01793  0.78321  0.83645  1.0000
  H   H26       1.0  0.98207  0.21679  0.16355  1.0000
  H   H27       1.0  0.90114  0.07908  0.81190  1.0000
  H   H28       1.0  0.09886  0.92092  0.18810  1.0000
  H   H29       1.0  0.04692  0.13894  0.76240  1.0000
  H   H30       1.0  0.95308  0.86106  0.23760  1.0000
  H   H31       1.0  0.02797  0.16105  0.92175  1.0000
  H   H32       1.0  0.97203  0.83895  0.07825  1.0000
  H   H33       1.0  0.20699  0.88084  0.87737  1.0000
  H   H34       1.0  0.79301  0.11916  0.12263  1.0000
  H   H35       1.0  0.21562  0.03108  0.97011  1.0000
  H   H36       1.0  0.78438  0.96892  0.02989  1.0000
  H   H37       1.0  0.23611  0.02157  0.81028  1.0000
  H   H38       1.0  0.76389  0.97843  0.18972  1.0000
  C   C1        1.0  0.21922  0.36407  0.53143  1.0000
  C   C2        1.0  0.78078  0.63593  0.46857  1.0000
  C   C3        1.0  0.17047  0.39067  0.65194  1.0000
  C   C4        1.0  0.82953  0.60933  0.34806  1.0000
  C   C5        1.0  0.24024  0.36818  0.75981  1.0000
  C   C6        1.0  0.75976  0.63182  0.24020  1.0000
  C   C7        1.0  0.19270  0.38826  0.87203  1.0000
  C   C8        1.0  0.80730  0.61175  0.12797  1.0000
  C   C9        1.0  0.07835  0.43816  0.87771  1.0000
  C   C10       1.0  0.92165  0.56184  0.12230  1.0000
  C   C11       1.0  0.00801  0.46090  0.77014  1.0000
  C   C12       1.0  0.99199  0.53910  0.22986  1.0000
  C   C13       1.0  0.05325  0.43484  0.65783  1.0000
  C   C14       1.0  0.94675  0.56516  0.34217  1.0000
  C   C15       1.0  0.46686  0.76998  0.64228  1.0000
  C   C16       1.0  0.53314  0.23002  0.35772  1.0000
  C   C17       1.0  0.35692  0.83511  0.60626  1.0000
  C   C18       1.0  0.64308  0.16489  0.39374  1.0000
  C   C19       1.0  0.23435  0.76977  0.58947  1.0000
  C   C20       1.0  0.76565  0.23024  0.41053  1.0000
  C   C21       1.0  0.13180  0.83045  0.55702  1.0000
  C   C22       1.0  0.86820  0.16955  0.44298  1.0000
  C   C23       1.0  0.15155  0.95822  0.53955  1.0000
  C   C24       1.0  0.84845  0.04177  0.46045  1.0000
  C   C25       1.0  0.27385  0.02335  0.55475  1.0000
  C   C26       1.0  0.72615  0.97665  0.44524  1.0000
  C   C27       1.0  0.37571  0.96191  0.58846  1.0000
  C   C28       1.0  0.62429  0.03809  0.41154  1.0000
  C   C29       1.0  0.64543  0.45895  0.76485  1.0000
  C   C30       1.0  0.35457  0.54105  0.23515  1.0000
  C   C31       1.0  0.61588  0.35113  0.83381  1.0000
  C   C32       1.0  0.38412  0.64887  0.16619  1.0000
  C   C33       1.0  0.61143  0.22647  0.77564  1.0000
  C   C34       1.0  0.38857  0.77353  0.22436  1.0000
  C   C35       1.0  0.58123  0.12563  0.83829  1.0000
  C   C36       1.0  0.41877  0.87438  0.16171  1.0000
  C   C37       1.0  0.55226  0.14931  0.96012  1.0000
  C   C38       1.0  0.44774  0.85069  0.03988  1.0000
  C   C39       1.0  0.55985  0.27359  0.01977  1.0000
  C   C40       1.0  0.44015  0.72641  0.98023  1.0000
  C   C41       1.0  0.59161  0.37367  0.95647  1.0000
  C   C42       1.0  0.40839  0.62633  0.04353  1.0000
  C   C43       1.0  0.97159  0.86893  0.83150  1.0000
  C   C44       1.0  0.02841  0.13107  0.16850  1.0000
  C   C45       1.0  0.00336  0.09597  0.83529  1.0000
  C   C46       1.0  0.99664  0.90403  0.16471  1.0000
  C   C47       1.0  0.18497  0.97765  0.87808  1.0000
  C   C48       1.0  0.81503  0.02236  0.12192  1.0000
  N   N1        1.0  0.03639  0.45806  0.99463  1.0000
  N   N2        1.0  0.96361  0.54194  0.00537  1.0000
  N   N3        1.0  0.05492  0.03033  0.50834  1.0000
  N   N4        1.0  0.94508  0.96966  0.49165  1.0000
  N   N5        1.0  0.51763  0.05398  0.03105  1.0000
  N   N6        1.0  0.48236  0.94602  0.96895  1.0000
  N   N7        1.0  0.05006  0.97607  0.84741  1.0000
  N   N8        1.0  0.94994  0.02393  0.15259  1.0000
  O   O1        1.0  0.33599  0.34980  0.53068  1.0000
  O   O2        1.0  0.66401  0.65020  0.46933  1.0000
  O   O3        1.0  0.14374  0.35197  0.43252  1.0000
  O   O4        1.0  0.85626  0.64803  0.56748  1.0000
  O   O5        1.0  0.44965  0.65087  0.64394  1.0000
  O   O6        1.0  0.55035  0.34913  0.35606  1.0000
  O   O7        1.0  0.57369  0.83769  0.67161  1.0000
  O   O8        1.0  0.42631  0.16231  0.32839  1.0000
  O   O9        1.0  0.63665  0.43759  0.64799  1.0000
  O   O10       1.0  0.36335  0.56241  0.35201  1.0000
  O   O11       1.0  0.67982  0.56794  0.82874  1.0000
  O   O12       1.0  0.32017  0.43206  0.17126  1.0000
  O   O13       1.0  0.85379  0.86441  0.81362  1.0000
  O   O14       1.0  0.14621  0.13559  0.18638  1.0000
