data_image0
_chemical_formula_structural       Na4H44C32O16
_chemical_formula_sum              "Na4 H44 C32 O16"
_cell_length_a       7.28044
_cell_length_b       7.98985
_cell_length_c       16.1959
_cell_angle_alpha    90.0001
_cell_angle_beta     92.6022
_cell_angle_gamma    90.0001

_space_group_name_H-M_alt    "P 1"
_space_group_IT_number       1

loop_
  _space_group_symop_operation_xyz
  'x, y, z'

loop_
  _atom_site_type_symbol
  _atom_site_label
  _atom_site_symmetry_multiplicity
  _atom_site_fract_x
  _atom_site_fract_y
  _atom_site_fract_z
  _atom_site_occupancy
  Na  Na1       1.0  0.74812  0.35462  0.98535  1.0000
  Na  Na2       1.0  0.75188  0.85462  0.01465  1.0000
  Na  Na3       1.0  0.25187  0.64538  0.01465  1.0000
  Na  Na4       1.0  0.24812  0.14538  0.98535  1.0000
  H   H1        1.0  0.36297  0.58024  0.72561  1.0000
  H   H2        1.0  0.13703  0.08025  0.27439  1.0000
  H   H3        1.0  0.63703  0.41975  0.27439  1.0000
  H   H4        1.0  0.86297  0.91976  0.72560  1.0000
  H   H5        1.0  0.40938  0.72834  0.64700  1.0000
  H   H6        1.0  0.09062  0.22835  0.35300  1.0000
  H   H7        1.0  0.59062  0.27165  0.35300  1.0000
  H   H8        1.0  0.90938  0.77165  0.64700  1.0000
  H   H9        1.0  0.51832  0.74559  0.74677  1.0000
  H   H10       1.0  0.98168  0.24560  0.25323  1.0000
  H   H11       1.0  0.48169  0.25440  0.25323  1.0000
  H   H12       1.0  0.01831  0.75440  0.74677  1.0000
  H   H13       1.0  0.84258  0.07742  0.87738  1.0000
  H   H14       1.0  0.65741  0.57742  0.12262  1.0000
  H   H15       1.0  0.15741  0.92258  0.12262  1.0000
  H   H16       1.0  0.34258  0.42258  0.87738  1.0000
  H   H17       1.0  0.62410  0.07505  0.87985  1.0000
  H   H18       1.0  0.87589  0.57505  0.12014  1.0000
  H   H19       1.0  0.37589  0.92495  0.12014  1.0000
  H   H20       1.0  0.12411  0.42495  0.87986  1.0000
  H   H21       1.0  0.46988  0.34720  0.09795  1.0000
  H   H22       1.0  0.03012  0.84722  0.90204  1.0000
  H   H23       1.0  0.53012  0.65280  0.90205  1.0000
  H   H24       1.0  0.96988  0.15280  0.09795  1.0000
  H   H25       1.0  0.54948  0.16072  0.09543  1.0000
  H   H26       1.0  0.95053  0.66073  0.90457  1.0000
  H   H27       1.0  0.45052  0.83928  0.90457  1.0000
  H   H28       1.0  0.04948  0.33928  0.09543  1.0000
  H   H29       1.0  0.98646  0.30214  0.73554  1.0000
  H   H30       1.0  0.51354  0.80214  0.26446  1.0000
  H   H31       1.0  0.01355  0.69786  0.26446  1.0000
  H   H32       1.0  0.48646  0.19785  0.73554  1.0000
  H   H33       1.0  0.56479  0.61416  0.54279  1.0000
  H   H34       1.0  0.93520  0.11416  0.45721  1.0000
  H   H35       1.0  0.43520  0.38584  0.45721  1.0000
  H   H36       1.0  0.06479  0.88584  0.54279  1.0000
  H   H37       1.0  0.02973  0.28606  0.58455  1.0000
  H   H38       1.0  0.47027  0.78606  0.41545  1.0000
  H   H39       1.0  0.97027  0.71394  0.41545  1.0000
  H   H40       1.0  0.52973  0.21393  0.58455  1.0000
  H   H41       1.0  0.81668  0.44610  0.48728  1.0000
  H   H42       1.0  0.68332  0.94610  0.51272  1.0000
  H   H43       1.0  0.18332  0.55391  0.51272  1.0000
  H   H44       1.0  0.31668  0.05390  0.48728  1.0000
  C   C1        1.0  0.73510  0.46952  0.81598  1.0000
  C   C2        1.0  0.76490  0.96952  0.18402  1.0000
  C   C3        1.0  0.26491  0.53049  0.18402  1.0000
  C   C4        1.0  0.23510  0.03048  0.81598  1.0000
  C   C5        1.0  0.74861  0.46160  0.72408  1.0000
  C   C6        1.0  0.75139  0.96160  0.27592  1.0000
  C   C7        1.0  0.25139  0.53840  0.27592  1.0000
  C   C8        1.0  0.24862  0.03839  0.72408  1.0000
  C   C9        1.0  0.62544  0.54982  0.66990  1.0000
  C   C10       1.0  0.87456  0.04982  0.33010  1.0000
  C   C11       1.0  0.37456  0.45018  0.33010  1.0000
  C   C12       1.0  0.12545  0.95018  0.66990  1.0000
  C   C13       1.0  0.89323  0.36881  0.69246  1.0000
  C   C14       1.0  0.60676  0.86881  0.30754  1.0000
  C   C15       1.0  0.10677  0.63119  0.30754  1.0000
  C   C16       1.0  0.39325  0.13118  0.69246  1.0000
  C   C17       1.0  0.65565  0.54296  0.58507  1.0000
  C   C18       1.0  0.84435  0.04296  0.41494  1.0000
  C   C19       1.0  0.34435  0.45704  0.41494  1.0000
  C   C20       1.0  0.15566  0.95704  0.58506  1.0000
  C   C21       1.0  0.47092  0.65634  0.69879  1.0000
  C   C22       1.0  0.02908  0.15634  0.30121  1.0000
  C   C23       1.0  0.52908  0.34366  0.30121  1.0000
  C   C24       1.0  0.97092  0.84366  0.69879  1.0000
  C   C25       1.0  0.91752  0.36021  0.60774  1.0000
  C   C26       1.0  0.58248  0.86021  0.39226  1.0000
  C   C27       1.0  0.08248  0.63980  0.39226  1.0000
  C   C28       1.0  0.41752  0.13979  0.60774  1.0000
  C   C29       1.0  0.79826  0.44897  0.55376  1.0000
  C   C30       1.0  0.70174  0.94897  0.44624  1.0000
  C   C31       1.0  0.20174  0.55103  0.44624  1.0000
  C   C32       1.0  0.29826  0.05103  0.55375  1.0000
  O   O1        1.0  0.57752  0.47480  0.84724  1.0000
  O   O2        1.0  0.92247  0.97480  0.15276  1.0000
  O   O3        1.0  0.42247  0.52520  0.15276  1.0000
  O   O4        1.0  0.07753  0.02521  0.84724  1.0000
  O   O5        1.0  0.88466  0.47101  0.86091  1.0000
  O   O6        1.0  0.61534  0.97101  0.13909  1.0000
  O   O7        1.0  0.11534  0.52899  0.13910  1.0000
  O   O8        1.0  0.38467  0.02899  0.86091  1.0000
  O   O9        1.0  0.73908  0.09010  0.91379  1.0000
  O   O10       1.0  0.76091  0.59010  0.08621  1.0000
  O   O11       1.0  0.26091  0.90990  0.08621  1.0000
  O   O12       1.0  0.23908  0.40990  0.91379  1.0000
  O   O13       1.0  0.50347  0.25491  0.06044  1.0000
  O   O14       1.0  0.99653  0.75492  0.93956  1.0000
  O   O15       1.0  0.49653  0.74509  0.93956  1.0000
  O   O16       1.0  0.00347  0.24509  0.06044  1.0000
