data_image0
_chemical_formula_structural       U4H40C56O32
_chemical_formula_sum              "U4 H40 C56 O32"
_cell_length_a       8.70995
_cell_length_b       10.1411
_cell_length_c       16.0874
_cell_angle_alpha    96.1351
_cell_angle_beta     89.9999
_cell_angle_gamma    89.9997

_space_group_name_H-M_alt    "P 1"
_space_group_IT_number       1

loop_
  _space_group_symop_operation_xyz
  'x, y, z'

loop_
  _atom_site_type_symbol
  _atom_site_label
  _atom_site_symmetry_multiplicity
  _atom_site_fract_x
  _atom_site_fract_y
  _atom_site_fract_z
  _atom_site_occupancy
  U   U1        1.0  0.55259  0.29324  0.58632  1.0000
  U   U2        1.0  0.05260  0.20676  0.41368  1.0000
  U   U3        1.0  0.44739  0.70675  0.41368  1.0000
  U   U4        1.0  0.94741  0.79324  0.58632  1.0000
  H   H1        1.0  0.46433  0.34273  0.88666  1.0000
  H   H2        1.0  0.96433  0.15727  0.11334  1.0000
  H   H3        1.0  0.53567  0.65727  0.11334  1.0000
  H   H4        1.0  0.03567  0.84273  0.88666  1.0000
  H   H5        1.0  0.80367  0.04915  0.80405  1.0000
  H   H6        1.0  0.30366  0.45085  0.19595  1.0000
  H   H7        1.0  0.19633  0.95085  0.19595  1.0000
  H   H8        1.0  0.69633  0.54915  0.80405  1.0000
  H   H9        1.0  0.48044  0.27744  0.03162  1.0000
  H   H10       1.0  0.98044  0.22256  0.96838  1.0000
  H   H11       1.0  0.51956  0.72256  0.96838  1.0000
  H   H12       1.0  0.01956  0.77744  0.03162  1.0000
  H   H13       1.0  0.82413  0.98668  0.95006  1.0000
  H   H14       1.0  0.32412  0.51332  0.04994  1.0000
  H   H15       1.0  0.17587  0.01332  0.04994  1.0000
  H   H16       1.0  0.67587  0.48668  0.95006  1.0000
  H   H17       1.0  0.67408  0.47707  0.24875  1.0000
  H   H18       1.0  0.17407  0.02292  0.75125  1.0000
  H   H19       1.0  0.32592  0.52293  0.75125  1.0000
  H   H20       1.0  0.82593  0.97708  0.24875  1.0000
  H   H21       1.0  0.72876  0.34947  0.11131  1.0000
  H   H22       1.0  0.22876  0.15053  0.88868  1.0000
  H   H23       1.0  0.27124  0.65053  0.88869  1.0000
  H   H24       1.0  0.77124  0.84947  0.11131  1.0000
  H   H25       1.0  0.53394  0.00014  0.20063  1.0000
  H   H26       1.0  0.03395  0.49986  0.79937  1.0000
  H   H27       1.0  0.46605  0.99986  0.79938  1.0000
  H   H28       1.0  0.96605  0.50014  0.20062  1.0000
  H   H29       1.0  0.48135  0.12827  0.33925  1.0000
  H   H30       1.0  0.98135  0.37173  0.66075  1.0000
  H   H31       1.0  0.51865  0.87173  0.66075  1.0000
  H   H32       1.0  0.01865  0.62827  0.33925  1.0000
  H   H33       1.0  0.72499  0.08937  0.46149  1.0000
  H   H34       1.0  0.22499  0.41063  0.53851  1.0000
  H   H35       1.0  0.27501  0.91063  0.53851  1.0000
  H   H36       1.0  0.77501  0.58936  0.46149  1.0000
  H   H37       1.0  0.68632  0.01383  0.53908  1.0000
  H   H38       1.0  0.18632  0.48617  0.46092  1.0000
  H   H39       1.0  0.31368  0.98617  0.46092  1.0000
  H   H40       1.0  0.81368  0.51383  0.53908  1.0000
  C   C1        1.0  0.61492  0.23694  0.75074  1.0000
  C   C2        1.0  0.11491  0.26306  0.24926  1.0000
  C   C3        1.0  0.38509  0.76306  0.24926  1.0000
  C   C4        1.0  0.88509  0.73694  0.75074  1.0000
  C   C5        1.0  0.63475  0.20223  0.83698  1.0000
  C   C6        1.0  0.13475  0.29776  0.16302  1.0000
  C   C7        1.0  0.36525  0.79776  0.16302  1.0000
  C   C8        1.0  0.86525  0.70224  0.83698  1.0000
  C   C9        1.0  0.54448  0.26605  0.90140  1.0000
  C   C10       1.0  0.04448  0.23395  0.09860  1.0000
  C   C11       1.0  0.45552  0.73395  0.09860  1.0000
  C   C12       1.0  0.95552  0.76605  0.90140  1.0000
  C   C13       1.0  0.73552  0.10065  0.85435  1.0000
  C   C14       1.0  0.23551  0.39935  0.14565  1.0000
  C   C15       1.0  0.26448  0.89935  0.14566  1.0000
  C   C16       1.0  0.76448  0.60065  0.85435  1.0000
  C   C17       1.0  0.55346  0.23014  0.98226  1.0000
  C   C18       1.0  0.05346  0.26986  0.01774  1.0000
  C   C19       1.0  0.44654  0.76986  0.01774  1.0000
  C   C20       1.0  0.94654  0.73014  0.98226  1.0000
  C   C21       1.0  0.74712  0.06548  0.93527  1.0000
  C   C22       1.0  0.24712  0.43452  0.06473  1.0000
  C   C23       1.0  0.25288  0.93452  0.06473  1.0000
  C   C24       1.0  0.75288  0.56548  0.93527  1.0000
  C   C25       1.0  0.65679  0.13060  0.99900  1.0000
  C   C26       1.0  0.15679  0.36940  0.00100  1.0000
  C   C27       1.0  0.34321  0.86940  0.00100  1.0000
  C   C28       1.0  0.84321  0.63060  0.99900  1.0000
  C   C29       1.0  0.55627  0.38450  0.38598  1.0000
  C   C30       1.0  0.05627  0.11550  0.61402  1.0000
  C   C31       1.0  0.44373  0.61550  0.61402  1.0000
  C   C32       1.0  0.94373  0.88450  0.38598  1.0000
  C   C33       1.0  0.57647  0.31044  0.30268  1.0000
  C   C34       1.0  0.07647  0.18957  0.69732  1.0000
  C   C35       1.0  0.42353  0.68956  0.69732  1.0000
  C   C36       1.0  0.92353  0.81043  0.30268  1.0000
  C   C37       1.0  0.64334  0.37268  0.23776  1.0000
  C   C38       1.0  0.14333  0.12732  0.76223  1.0000
  C   C39       1.0  0.35666  0.62732  0.76224  1.0000
  C   C40       1.0  0.85667  0.87268  0.23776  1.0000
  C   C41       1.0  0.67309  0.30157  0.16074  1.0000
  C   C42       1.0  0.17309  0.19843  0.83926  1.0000
  C   C43       1.0  0.32691  0.69843  0.83926  1.0000
  C   C44       1.0  0.82691  0.80157  0.16074  1.0000
  C   C45       1.0  0.63335  0.16716  0.14887  1.0000
  C   C46       1.0  0.13335  0.33284  0.85113  1.0000
  C   C47       1.0  0.36665  0.83284  0.85113  1.0000
  C   C48       1.0  0.86665  0.66716  0.14887  1.0000
  C   C49       1.0  0.56412  0.10444  0.21237  1.0000
  C   C50       1.0  0.06412  0.39556  0.78763  1.0000
  C   C51       1.0  0.43588  0.89556  0.78764  1.0000
  C   C52       1.0  0.93588  0.60443  0.21236  1.0000
  C   C53       1.0  0.53598  0.17590  0.28938  1.0000
  C   C54       1.0  0.03598  0.32411  0.71062  1.0000
  C   C55       1.0  0.46402  0.82411  0.71062  1.0000
  C   C56       1.0  0.96402  0.67589  0.28938  1.0000
  O   O1        1.0  0.51406  0.32223  0.44667  1.0000
  O   O2        1.0  0.01405  0.17778  0.55333  1.0000
  O   O3        1.0  0.48595  0.67777  0.55333  1.0000
  O   O4        1.0  0.98595  0.82222  0.44667  1.0000
  O   O5        1.0  0.54361  0.34371  0.73739  1.0000
  O   O6        1.0  0.04361  0.15628  0.26261  1.0000
  O   O7        1.0  0.45640  0.65629  0.26261  1.0000
  O   O8        1.0  0.95639  0.84371  0.73739  1.0000
  O   O9        1.0  0.66393  0.15931  0.68810  1.0000
  O   O10       1.0  0.16392  0.34068  0.31190  1.0000
  O   O11       1.0  0.33608  0.84069  0.31190  1.0000
  O   O12       1.0  0.83607  0.65932  0.68810  1.0000
  O   O13       1.0  0.67039  0.08594  0.07658  1.0000
  O   O14       1.0  0.17039  0.41406  0.92342  1.0000
  O   O15       1.0  0.32961  0.91406  0.92342  1.0000
  O   O16       1.0  0.82961  0.58594  0.07658  1.0000
  O   O17       1.0  0.58406  0.51014  0.39513  1.0000
  O   O18       1.0  0.08405  0.98986  0.60487  1.0000
  O   O19       1.0  0.41594  0.48986  0.60487  1.0000
  O   O20       1.0  0.91594  0.01014  0.39513  1.0000
  O   O21       1.0  0.73123  0.38614  0.58307  1.0000
  O   O22       1.0  0.23122  0.11386  0.41693  1.0000
  O   O23       1.0  0.26878  0.61387  0.41693  1.0000
  O   O24       1.0  0.76876  0.88614  0.58307  1.0000
  O   O25       1.0  0.37105  0.20797  0.59116  1.0000
  O   O26       1.0  0.87104  0.29204  0.40884  1.0000
  O   O27       1.0  0.62896  0.79204  0.40884  1.0000
  O   O28       1.0  0.12895  0.70797  0.59116  1.0000
  O   O29       1.0  0.65621  0.09153  0.50968  1.0000
  O   O30       1.0  0.15621  0.40847  0.49032  1.0000
  O   O31       1.0  0.34379  0.90847  0.49032  1.0000
  O   O32       1.0  0.84379  0.59153  0.50968  1.0000
