data_image0
_chemical_formula_structural       Cu4H16C20Br4N4Cl8
_chemical_formula_sum              "Cu4 H16 C20 Br4 N4 Cl8"
_cell_length_a       9.05768
_cell_length_b       9.05817
_cell_length_c       12.0058
_cell_angle_alpha    78.5426
_cell_angle_beta     78.5418
_cell_angle_gamma    60.5675

_space_group_name_H-M_alt    "P 1"
_space_group_IT_number       1

loop_
  _space_group_symop_operation_xyz
  'x, y, z'

loop_
  _atom_site_type_symbol
  _atom_site_label
  _atom_site_symmetry_multiplicity
  _atom_site_fract_x
  _atom_site_fract_y
  _atom_site_fract_z
  _atom_site_occupancy
  Cu  Cu1       1.0  0.54206  0.36885  0.63024  1.0000
  Cu  Cu2       1.0  0.63117  0.45797  0.86971  1.0000
  Cu  Cu3       1.0  0.45819  0.63092  0.36982  1.0000
  Cu  Cu4       1.0  0.36905  0.54182  0.13023  1.0000
  H   H1        1.0  0.62679  0.77433  0.61759  1.0000
  H   H2        1.0  0.22576  0.37312  0.88241  1.0000
  H   H3        1.0  0.37309  0.22580  0.38236  1.0000
  H   H4        1.0  0.77414  0.62690  0.11756  1.0000
  H   H5        1.0  0.93916  0.93396  0.35496  1.0000
  H   H6        1.0  0.06589  0.06100  0.14509  1.0000
  H   H7        1.0  0.06075  0.06612  0.64507  1.0000
  H   H8        1.0  0.93396  0.93921  0.85494  1.0000
  H   H9        1.0  0.84789  0.71129  0.44674  1.0000
  H   H10       1.0  0.28868  0.15213  0.05332  1.0000
  H   H11       1.0  0.15199  0.28880  0.55325  1.0000
  H   H12       1.0  0.71123  0.84797  0.94668  1.0000
  H   H13       1.0  0.79658  0.21505  0.43664  1.0000
  H   H14       1.0  0.78483  0.20358  0.06336  1.0000
  H   H15       1.0  0.20328  0.78506  0.56337  1.0000
  H   H16       1.0  0.21500  0.79664  0.93668  1.0000
  C   C1        1.0  0.67124  0.86618  0.57636  1.0000
  C   C2        1.0  0.13386  0.32871  0.92364  1.0000
  C   C3        1.0  0.32866  0.13391  0.42362  1.0000
  C   C4        1.0  0.86608  0.67133  0.07635  1.0000
  C   C5        1.0  0.84293  0.95681  0.42927  1.0000
  C   C6        1.0  0.04312  0.15715  0.07075  1.0000
  C   C7        1.0  0.15698  0.04324  0.57075  1.0000
  C   C8        1.0  0.95679  0.84298  0.92926  1.0000
  C   C9        1.0  0.79396  0.83281  0.48079  1.0000
  C   C10       1.0  0.16717  0.20605  0.01923  1.0000
  C   C11       1.0  0.20594  0.16726  0.51920  1.0000
  C   C12       1.0  0.83275  0.79403  0.98077  1.0000
  C   C13       1.0  0.76676  0.11138  0.47378  1.0000
  C   C14       1.0  0.88855  0.23333  0.02623  1.0000
  C   C15       1.0  0.23327  0.88861  0.52623  1.0000
  C   C16       1.0  0.11142  0.76669  0.97379  1.0000
  C   C17       1.0  0.60484  0.02299  0.61737  1.0000
  C   C18       1.0  0.97707  0.39512  0.88261  1.0000
  C   C19       1.0  0.39511  0.97702  0.38266  1.0000
  C   C20       1.0  0.02293  0.60490  0.11735  1.0000
  Br  Br1       1.0  0.44577  0.07219  0.75075  1.0000
  Br  Br2       1.0  0.92795  0.55412  0.74919  1.0000
  Br  Br3       1.0  0.55394  0.92803  0.24918  1.0000
  Br  Br4       1.0  0.07186  0.44611  0.25084  1.0000
  N   N1        1.0  0.64907  0.14371  0.56702  1.0000
  N   N2        1.0  0.85630  0.35094  0.93295  1.0000
  N   N3        1.0  0.35094  0.85626  0.43298  1.0000
  N   N4        1.0  0.14372  0.64905  0.06706  1.0000
  Cl  Cl1       1.0  0.41905  0.58102  0.74996  1.0000
  Cl  Cl2       1.0  0.58129  0.41867  0.25003  1.0000
  Cl  Cl3       1.0  0.75664  0.24339  0.74999  1.0000
  Cl  Cl4       1.0  0.24391  0.75607  0.25002  1.0000
  Cl  Cl5       1.0  0.31154  0.48354  0.53263  1.0000
  Cl  Cl6       1.0  0.51649  0.68844  0.96739  1.0000
  Cl  Cl7       1.0  0.68887  0.51621  0.46746  1.0000
  Cl  Cl8       1.0  0.48376  0.31123  0.03250  1.0000
