data_image0
_chemical_formula_structural       Na4H28C24S4N4Cl8O14
_chemical_formula_sum              "Na4 H28 C24 S4 N4 Cl8 O14"
_cell_length_a       6.37794
_cell_length_b       6.37685
_cell_length_c       27.758
_cell_angle_alpha    93.8547
_cell_angle_beta     93.105
_cell_angle_gamma    118.131

_space_group_name_H-M_alt    "P 1"
_space_group_IT_number       1

loop_
  _space_group_symop_operation_xyz
  'x, y, z'

loop_
  _atom_site_type_symbol
  _atom_site_label
  _atom_site_symmetry_multiplicity
  _atom_site_fract_x
  _atom_site_fract_y
  _atom_site_fract_z
  _atom_site_occupancy
  Na  Na1       1.0  0.65567  0.60557  0.23633  1.0000
  Na  Na2       1.0  0.36924  0.91934  0.26375  1.0000
  Na  Na3       1.0  0.34433  0.39443  0.76367  1.0000
  Na  Na4       1.0  0.63077  0.08066  0.73625  1.0000
  H   H1        1.0  0.44768  0.63571  0.00871  1.0000
  H   H2        1.0  0.62806  0.93942  0.49138  1.0000
  H   H3        1.0  0.55231  0.36429  0.99129  1.0000
  H   H4        1.0  0.37194  0.06059  0.50862  1.0000
  H   H5        1.0  0.24302  0.85513  0.97938  1.0000
  H   H6        1.0  0.87684  0.76398  0.52064  1.0000
  H   H7        1.0  0.75697  0.14486  0.02062  1.0000
  H   H8        1.0  0.12316  0.23605  0.47936  1.0000
  H   H9        1.0  0.96883  0.92619  0.03245  1.0000
  H   H10       1.0  0.89460  0.43657  0.46756  1.0000
  H   H11       1.0  0.03115  0.07379  0.96755  1.0000
  H   H12       1.0  0.10540  0.56344  0.53244  1.0000
  H   H13       1.0  0.91089  0.77745  0.11302  1.0000
  H   H14       1.0  0.66509  0.29801  0.38702  1.0000
  H   H15       1.0  0.08909  0.22254  0.88698  1.0000
  H   H16       1.0  0.33491  0.70198  0.61298  1.0000
  H   H17       1.0  0.99598  0.56166  0.31388  1.0000
  H   H18       1.0  0.24798  0.18216  0.18619  1.0000
  H   H19       1.0  0.00402  0.43834  0.68612  1.0000
  H   H20       1.0  0.75201  0.81784  0.81381  1.0000
  H   H21       1.0  0.97321  0.79470  0.32268  1.0000
  H   H22       1.0  0.47223  0.15067  0.17739  1.0000
  H   H23       1.0  0.02679  0.20530  0.67732  1.0000
  H   H24       1.0  0.52777  0.84934  0.82261  1.0000
  H   H25       1.0  0.89831  0.14417  0.27830  1.0000
  H   H26       1.0  0.86600  0.12003  0.22170  1.0000
  H   H27       1.0  0.10169  0.85583  0.72170  1.0000
  H   H28       1.0  0.13400  0.87997  0.77830  1.0000
  C   C1        1.0  0.13932  0.61829  0.10634  1.0000
  C   C2        1.0  0.51265  0.53320  0.39375  1.0000
  C   C3        1.0  0.86067  0.38170  0.89366  1.0000
  C   C4        1.0  0.48735  0.46680  0.60625  1.0000
  C   C5        1.0  0.28963  0.57610  0.07649  1.0000
  C   C6        1.0  0.50037  0.71340  0.42361  1.0000
  C   C7        1.0  0.71037  0.42390  0.92351  1.0000
  C   C8        1.0  0.49964  0.28660  0.57639  1.0000
  C   C9        1.0  0.32860  0.66614  0.03137  1.0000
  C   C10       1.0  0.63569  0.79759  0.46871  1.0000
  C   C11       1.0  0.67140  0.33386  0.96863  1.0000
  C   C12       1.0  0.36431  0.20242  0.53129  1.0000
  C   C13       1.0  0.21389  0.79167  0.01521  1.0000
  C   C14       1.0  0.77732  0.69889  0.48484  1.0000
  C   C15       1.0  0.78611  0.20833  0.98480  1.0000
  C   C16       1.0  0.22269  0.30112  0.51516  1.0000
  C   C17       1.0  0.06195  0.83045  0.04441  1.0000
  C   C18       1.0  0.78670  0.51757  0.45564  1.0000
  C   C19       1.0  0.93803  0.16954  0.95559  1.0000
  C   C20       1.0  0.21330  0.48244  0.54436  1.0000
  C   C21       1.0  0.02697  0.74594  0.08976  1.0000
  C   C22       1.0  0.65684  0.43730  0.41030  1.0000
  C   C23       1.0  0.97302  0.25405  0.91024  1.0000
  C   C24       1.0  0.34316  0.56269  0.58971  1.0000
  S   S1        1.0  0.08632  0.52395  0.16593  1.0000
  S   S2        1.0  0.35859  0.42071  0.33418  1.0000
  S   S3        1.0  0.91368  0.47604  0.83407  1.0000
  S   S4        1.0  0.64142  0.57928  0.66582  1.0000
  N   N1        1.0  0.99693  0.24224  0.16394  1.0000
  N   N2        1.0  0.07890  0.33335  0.33615  1.0000
  N   N3        1.0  0.00307  0.75776  0.83606  1.0000
  N   N4        1.0  0.92111  0.66665  0.66385  1.0000
  Cl  Cl1       1.0  0.73031  0.08228  0.12579  1.0000
  Cl  Cl2       1.0  0.95703  0.10466  0.37426  1.0000
  Cl  Cl3       1.0  0.26968  0.91772  0.87421  1.0000
  Cl  Cl4       1.0  0.04298  0.89534  0.62574  1.0000
  Cl  Cl5       1.0  0.43039  0.41491  0.09347  1.0000
  Cl  Cl6       1.0  0.32226  0.83721  0.40661  1.0000
  Cl  Cl7       1.0  0.56961  0.58509  0.90653  1.0000
  Cl  Cl8       1.0  0.67774  0.16279  0.59338  1.0000
  O   O1        1.0  0.91447  0.59832  0.18136  1.0000
  O   O2        1.0  0.41731  0.23328  0.31873  1.0000
  O   O3        1.0  0.08553  0.40168  0.81865  1.0000
  O   O4        1.0  0.58271  0.76673  0.68127  1.0000
  O   O5        1.0  0.31552  0.63172  0.19575  1.0000
  O   O6        1.0  0.43668  0.62029  0.30439  1.0000
  O   O7        1.0  0.68447  0.36828  0.80425  1.0000
  O   O8        1.0  0.56334  0.37971  0.69561  1.0000
  O   O9        1.0  0.97829  0.68525  0.29689  1.0000
  O   O10       1.0  0.38851  0.18143  0.20318  1.0000
  O   O11       1.0  0.02171  0.31476  0.70311  1.0000
  O   O12       1.0  0.61149  0.81857  0.79682  1.0000
  O   O13       1.0  0.78881  0.03880  0.25000  1.0000
  O   O14       1.0  0.21119  0.96120  0.75000  1.0000
