data_image0
_chemical_formula_structural       Ni2H56C52N8O10
_chemical_formula_sum              "Ni2 H56 C52 N8 O10"
_cell_length_a       10.2869
_cell_length_b       10.9807
_cell_length_c       11.6893
_cell_angle_alpha    107.062
_cell_angle_beta     95.6888
_cell_angle_gamma    104.487

_space_group_name_H-M_alt    "P 1"
_space_group_IT_number       1

loop_
  _space_group_symop_operation_xyz
  'x, y, z'

loop_
  _atom_site_type_symbol
  _atom_site_label
  _atom_site_symmetry_multiplicity
  _atom_site_fract_x
  _atom_site_fract_y
  _atom_site_fract_z
  _atom_site_occupancy
  Ni  Ni1       1.0  0.61603  0.40136  0.15439  1.0000
  Ni  Ni2       1.0  0.38397  0.59865  0.84562  1.0000
  H   H1        1.0  0.80540  0.55736  0.09525  1.0000
  H   H2        1.0  0.19460  0.44263  0.90475  1.0000
  H   H3        1.0  0.68911  0.57697  0.00418  1.0000
  H   H4        1.0  0.31089  0.42303  0.99583  1.0000
  H   H5        1.0  0.17119  0.45217  0.15947  1.0000
  H   H6        1.0  0.82881  0.54783  0.84054  1.0000
  H   H7        1.0  0.83125  0.16428  0.20418  1.0000
  H   H8        1.0  0.16875  0.83571  0.79582  1.0000
  H   H9        1.0  0.21722  0.08098  0.18230  1.0000
  H   H10       1.0  0.78279  0.91903  0.81771  1.0000
  H   H11       1.0  0.13062  0.89267  0.17545  1.0000
  H   H12       1.0  0.86938  0.10734  0.82455  1.0000
  H   H13       1.0  0.01089  0.85568  0.04151  1.0000
  H   H14       1.0  0.98911  0.14432  0.95848  1.0000
  H   H15       1.0  0.97388  0.76553  0.14396  1.0000
  H   H16       1.0  0.02612  0.23447  0.85604  1.0000
  H   H17       1.0  0.08075  0.00626  0.38352  1.0000
  H   H18       1.0  0.91926  0.99374  0.61648  1.0000
  H   H19       1.0  0.92314  0.87936  0.35151  1.0000
  H   H20       1.0  0.07686  0.12065  0.64850  1.0000
  H   H21       1.0  0.92556  0.04961  0.39472  1.0000
  H   H22       1.0  0.07443  0.95039  0.60529  1.0000
  H   H23       1.0  0.75867  0.81094  0.15294  1.0000
  H   H24       1.0  0.24132  0.18905  0.84707  1.0000
  H   H25       1.0  0.77796  0.91451  0.06035  1.0000
  H   H26       1.0  0.22203  0.08548  0.93966  1.0000
  H   H27       1.0  0.74230  0.97484  0.20880  1.0000
  H   H28       1.0  0.25770  0.02515  0.79120  1.0000
  H   H29       1.0  0.46515  0.57780  0.33021  1.0000
  H   H30       1.0  0.53484  0.42220  0.66980  1.0000
  H   H31       1.0  0.86561  0.54639  0.37577  1.0000
  H   H32       1.0  0.13438  0.45361  0.62422  1.0000
  H   H33       1.0  0.84555  0.75084  0.57436  1.0000
  H   H34       1.0  0.15445  0.24916  0.42563  1.0000
  H   H35       1.0  0.36546  0.71380  0.64328  1.0000
  H   H36       1.0  0.63454  0.28620  0.35672  1.0000
  H   H37       1.0  0.12296  0.68201  0.56215  1.0000
  H   H38       1.0  0.87704  0.31798  0.43784  1.0000
  H   H39       1.0  0.06287  0.72706  0.36760  1.0000
  H   H40       1.0  0.93714  0.27294  0.63239  1.0000
  H   H41       1.0  0.24512  0.80994  0.26399  1.0000
  H   H42       1.0  0.75489  0.19007  0.73600  1.0000
  H   H43       1.0  0.48851  0.63854  0.13051  1.0000
  H   H44       1.0  0.51151  0.36146  0.86948  1.0000
  H   H45       1.0  0.44374  0.02690  0.19928  1.0000
  H   H46       1.0  0.55626  0.97310  0.80072  1.0000
  H   H47       1.0  0.36678  0.88676  0.95258  1.0000
  H   H48       1.0  0.63321  0.11323  0.04742  1.0000
  H   H49       1.0  0.65776  0.89310  0.55862  1.0000
  H   H50       1.0  0.34225  0.10690  0.44138  1.0000
  H   H51       1.0  0.59492  0.78765  0.64370  1.0000
  H   H52       1.0  0.40508  0.21236  0.35631  1.0000
  H   H53       1.0  0.56143  0.97760  0.37452  1.0000
  H   H54       1.0  0.43858  0.02240  0.62547  1.0000
  H   H55       1.0  0.60880  0.82945  0.34278  1.0000
  H   H56       1.0  0.39120  0.17055  0.65723  1.0000
  C   C1        1.0  0.35836  0.30499  0.16628  1.0000
  C   C2        1.0  0.64164  0.69500  0.83372  1.0000
  C   C3        1.0  0.20993  0.27052  0.17400  1.0000
  C   C4        1.0  0.79007  0.72948  0.82600  1.0000
  C   C5        1.0  0.12991  0.35602  0.17135  1.0000
  C   C6        1.0  0.87010  0.64399  0.82866  1.0000
  C   C7        1.0  0.99285  0.31541  0.18228  1.0000
  C   C8        1.0  0.00715  0.68459  0.81773  1.0000
  C   C9        1.0  0.93822  0.19135  0.19638  1.0000
  C   C10       1.0  0.06177  0.80865  0.80362  1.0000
  C   C11       1.0  0.01516  0.10261  0.19573  1.0000
  C   C12       1.0  0.98483  0.89739  0.80426  1.0000
  C   C13       1.0  0.15172  0.14523  0.18472  1.0000
  C   C14       1.0  0.84826  0.85476  0.81527  1.0000
  C   C15       1.0  0.89890  0.39838  0.17012  1.0000
  C   C16       1.0  0.10110  0.60162  0.82989  1.0000
  C   C17       1.0  0.95246  0.96544  0.20669  1.0000
  C   C18       1.0  0.04753  0.03456  0.79330  1.0000
  C   C19       1.0  0.02111  0.86422  0.13802  1.0000
  C   C20       1.0  0.97889  0.13578  0.86198  1.0000
  C   C21       1.0  0.97194  0.97645  0.34223  1.0000
  C   C22       1.0  0.02806  0.02355  0.65778  1.0000
  C   C23       1.0  0.79856  0.91396  0.15420  1.0000
  C   C24       1.0  0.20143  0.08603  0.84581  1.0000
  C   C25       1.0  0.57125  0.59610  0.36817  1.0000
  C   C26       1.0  0.42875  0.40390  0.63183  1.0000
  C   C27       1.0  0.77973  0.58364  0.39555  1.0000
  C   C28       1.0  0.22026  0.41636  0.60445  1.0000
  C   C29       1.0  0.77157  0.68527  0.49365  1.0000
  C   C30       1.0  0.22843  0.31474  0.50635  1.0000
  C   C31       1.0  0.44293  0.78274  0.50163  1.0000
  C   C32       1.0  0.55707  0.21726  0.49837  1.0000
  C   C33       1.0  0.33882  0.73647  0.56075  1.0000
  C   C34       1.0  0.66118  0.26352  0.43924  1.0000
  C   C35       1.0  0.20221  0.71813  0.51451  1.0000
  C   C36       1.0  0.79779  0.28186  0.48548  1.0000
  C   C37       1.0  0.16896  0.74436  0.40736  1.0000
  C   C38       1.0  0.83104  0.25564  0.59263  1.0000
  C   C39       1.0  0.27242  0.79171  0.34860  1.0000
  C   C40       1.0  0.72758  0.20829  0.65139  1.0000
  C   C41       1.0  0.40972  0.81293  0.39510  1.0000
  C   C42       1.0  0.59029  0.18708  0.60490  1.0000
  C   C43       1.0  0.46268  0.72264  0.11421  1.0000
  C   C44       1.0  0.53733  0.27736  0.88579  1.0000
  C   C45       1.0  0.43854  0.92513  0.14888  1.0000
  C   C46       1.0  0.56145  0.07486  0.85112  1.0000
  C   C47       1.0  0.40175  0.85543  0.02647  1.0000
  C   C48       1.0  0.59825  0.14457  0.97353  1.0000
  C   C49       1.0  0.58820  0.79589  0.55192  1.0000
  C   C50       1.0  0.41180  0.20412  0.44808  1.0000
  C   C51       1.0  0.52168  0.86857  0.33266  1.0000
  C   C52       1.0  0.47832  0.13143  0.66734  1.0000
  N   N1        1.0  0.65450  0.52932  0.31753  1.0000
  N   N2        1.0  0.34550  0.47068  0.68247  1.0000
  N   N3        1.0  0.63931  0.69234  0.47486  1.0000
  N   N4        1.0  0.36069  0.30766  0.52514  1.0000
  N   N5        1.0  0.47668  0.83983  0.20307  1.0000
  N   N6        1.0  0.52333  0.16018  0.79693  1.0000
  N   N7        1.0  0.41758  0.72993  0.00628  1.0000
  N   N8        1.0  0.58243  0.27008  0.99372  1.0000
  O   O1        1.0  0.42866  0.23554  0.19470  1.0000
  O   O2        1.0  0.57134  0.76446  0.80530  1.0000
  O   O3        1.0  0.41212  0.40636  0.13288  1.0000
  O   O4        1.0  0.58788  0.59364  0.86713  1.0000
  O   O5        1.0  0.93801  0.50000  0.13961  1.0000
  O   O6        1.0  0.06199  0.50000  0.86039  1.0000
  O   O7        1.0  0.77903  0.35194  0.19311  1.0000
  O   O8        1.0  0.22097  0.64807  0.80690  1.0000
  O   O9        1.0  0.71856  0.58232  0.08868  1.0000
  O   O10       1.0  0.28144  0.41769  0.91133  1.0000
