data_image0
_chemical_formula_structural       Cu2H24C42N8O14
_chemical_formula_sum              "Cu2 H24 C42 N8 O14"
_cell_length_a       10.081
_cell_length_b       10.1312
_cell_length_c       10.5808
_cell_angle_alpha    102.129
_cell_angle_beta     105.984
_cell_angle_gamma    102.325

_space_group_name_H-M_alt    "P 1"
_space_group_IT_number       1

loop_
  _space_group_symop_operation_xyz
  'x, y, z'

loop_
  _atom_site_type_symbol
  _atom_site_label
  _atom_site_symmetry_multiplicity
  _atom_site_fract_x
  _atom_site_fract_y
  _atom_site_fract_z
  _atom_site_occupancy
  Cu  Cu1       1.0  0.39064  0.43885  0.11933  1.0000
  Cu  Cu2       1.0  0.60936  0.56114  0.88066  1.0000
  H   H1        1.0  0.69166  0.31233  0.34831  1.0000
  H   H2        1.0  0.30835  0.68767  0.65171  1.0000
  H   H3        1.0  0.96770  0.48704  0.14450  1.0000
  H   H4        1.0  0.03228  0.51295  0.85548  1.0000
  H   H5        1.0  0.90002  0.71086  0.05860  1.0000
  H   H6        1.0  0.09998  0.28913  0.94138  1.0000
  H   H7        1.0  0.14317  0.33220  0.48435  1.0000
  H   H8        1.0  0.85685  0.66783  0.51565  1.0000
  H   H9        1.0  0.68328  0.65128  0.29814  1.0000
  H   H10       1.0  0.31671  0.34872  0.70186  1.0000
  H   H11       1.0  0.93609  0.15558  0.17647  1.0000
  H   H12       1.0  0.06390  0.84442  0.82352  1.0000
  H   H13       1.0  0.26326  0.66131  0.13557  1.0000
  H   H14       1.0  0.73673  0.33870  0.86442  1.0000
  H   H15       1.0  0.53505  0.83597  0.92626  1.0000
  H   H16       1.0  0.46494  0.16402  0.07374  1.0000
  H   H17       1.0  0.67037  0.09231  0.05079  1.0000
  H   H18       1.0  0.32962  0.90768  0.94922  1.0000
  H   H19       1.0  0.76900  0.90825  0.41723  1.0000
  H   H20       1.0  0.23100  0.09175  0.58278  1.0000
  H   H21       1.0  0.58803  0.04764  0.39749  1.0000
  H   H22       1.0  0.41197  0.95235  0.60253  1.0000
  H   H23       1.0  0.73582  0.31693  0.55254  1.0000
  H   H24       1.0  0.26421  0.68306  0.44747  1.0000
  C   C1        1.0  0.64910  0.87012  0.98714  1.0000
  C   C2        1.0  0.35089  0.12986  0.01285  1.0000
  C   C3        1.0  0.72531  0.01091  0.05538  1.0000
  C   C4        1.0  0.27467  0.98907  0.94462  1.0000
  C   C5        1.0  0.87225  0.04633  0.12541  1.0000
  C   C6        1.0  0.12773  0.95366  0.87458  1.0000
  C   C7        1.0  0.93914  0.93827  0.12744  1.0000
  C   C8        1.0  0.06085  0.06173  0.87256  1.0000
  C   C9        1.0  0.85452  0.79889  0.05930  1.0000
  C   C10       1.0  0.14548  0.20110  0.94069  1.0000
  C   C11       1.0  0.37387  0.72100  0.19781  1.0000
  C   C12       1.0  0.62613  0.27900  0.80219  1.0000
  C   C13       1.0  0.41158  0.86539  0.26324  1.0000
  C   C14       1.0  0.58842  0.13461  0.73676  1.0000
  C   C15       1.0  0.30276  0.93984  0.25280  1.0000
  C   C16       1.0  0.69724  0.06017  0.74721  1.0000
  C   C17       1.0  0.09346  0.97166  0.19497  1.0000
  C   C18       1.0  0.90654  0.02833  0.80504  1.0000
  C   C19       1.0  0.55617  0.93571  0.34358  1.0000
  C   C20       1.0  0.44382  0.06429  0.65642  1.0000
  C   C21       1.0  0.65573  0.85904  0.35553  1.0000
  C   C22       1.0  0.34426  0.14096  0.64447  1.0000
  C   C23       1.0  0.60889  0.71488  0.28888  1.0000
  C   C24       1.0  0.39110  0.28513  0.71112  1.0000
  C   C25       1.0  0.89630  0.23737  0.53148  1.0000
  C   C26       1.0  0.10373  0.76266  0.46852  1.0000
  C   C27       1.0  0.21731  0.46484  0.30140  1.0000
  C   C28       1.0  0.78269  0.53516  0.69858  1.0000
  C   C29       1.0  0.69634  0.43968  0.14876  1.0000
  C   C30       1.0  0.30366  0.56032  0.85125  1.0000
  C   C31       1.0  0.81813  0.40299  0.23859  1.0000
  C   C32       1.0  0.18188  0.59700  0.76141  1.0000
  C   C33       1.0  0.79861  0.33876  0.33946  1.0000
  C   C34       1.0  0.20140  0.66125  0.66054  1.0000
  C   C35       1.0  0.95381  0.43854  0.22441  1.0000
  C   C36       1.0  0.04620  0.56145  0.77559  1.0000
  C   C37       1.0  0.07130  0.41559  0.31407  1.0000
  C   C38       1.0  0.92871  0.58442  0.68592  1.0000
  C   C39       1.0  0.05231  0.35217  0.41554  1.0000
  C   C40       1.0  0.94770  0.64785  0.58447  1.0000
  C   C41       1.0  0.91528  0.31157  0.42702  1.0000
  C   C42       1.0  0.08474  0.68844  0.57298  1.0000
  N   N1        1.0  0.71313  0.76685  0.99009  1.0000
  N   N2        1.0  0.28687  0.23314  0.00990  1.0000
  N   N3        1.0  0.47070  0.64756  0.21117  1.0000
  N   N4        1.0  0.52929  0.35245  0.78882  1.0000
  N   N5        1.0  0.18486  0.09438  0.27038  1.0000
  N   N6        1.0  0.81513  0.90562  0.72962  1.0000
  N   N7        1.0  0.32033  0.07373  0.30787  1.0000
  N   N8        1.0  0.67966  0.92627  0.69213  1.0000
  O   O1        1.0  0.21761  0.42470  0.17791  1.0000
  O   O2        1.0  0.78239  0.57529  0.82207  1.0000
  O   O3        1.0  0.32074  0.54319  0.40575  1.0000
  O   O4        1.0  0.67927  0.45681  0.59424  1.0000
  O   O5        1.0  0.57317  0.39129  0.16053  1.0000
  O   O6        1.0  0.42683  0.60872  0.83948  1.0000
  O   O7        1.0  0.72384  0.51505  0.07357  1.0000
  O   O8        1.0  0.27615  0.48495  0.92642  1.0000
  O   O9        1.0  0.77784  0.23655  0.56757  1.0000
  O   O10       1.0  0.22220  0.76346  0.43246  1.0000
  O   O11       1.0  0.98000  0.17466  0.58006  1.0000
  O   O12       1.0  0.02007  0.82537  0.41997  1.0000
  O   O13       1.0  0.16107  0.86832  0.17843  1.0000
  O   O14       1.0  0.83893  0.13168  0.82159  1.0000
