data_image0
_chemical_formula_structural       Na2CuH20C12N12O18
_chemical_formula_sum              "Na2 Cu1 H20 C12 N12 O18"
_cell_length_a       6.83263
_cell_length_b       10.3523
_cell_length_c       10.3335
_cell_angle_alpha    61.4917
_cell_angle_beta     82.8164
_cell_angle_gamma    72.1599

_space_group_name_H-M_alt    "P 1"
_space_group_IT_number       1

loop_
  _space_group_symop_operation_xyz
  'x, y, z'

loop_
  _atom_site_type_symbol
  _atom_site_label
  _atom_site_symmetry_multiplicity
  _atom_site_fract_x
  _atom_site_fract_y
  _atom_site_fract_z
  _atom_site_occupancy
  Na  Na1       1.0  0.76066  0.53108  0.40455  1.0000
  Na  Na2       1.0  0.23934  0.46893  0.59545  1.0000
  Cu  Cu1       1.0  0.00000  0.00000  0.00000  1.0000
  H   H1        1.0  0.12181  0.13894  0.37240  1.0000
  H   H2        1.0  0.87819  0.86106  0.62760  1.0000
  H   H3        1.0  0.76643  0.49612  0.01219  1.0000
  H   H4        1.0  0.23357  0.50388  0.98781  1.0000
  H   H5        1.0  0.69872  0.11282  0.56328  1.0000
  H   H6        1.0  0.30127  0.88718  0.43672  1.0000
  H   H7        1.0  0.33681  0.46891  0.20918  1.0000
  H   H8        1.0  0.66320  0.53109  0.79082  1.0000
  H   H9        1.0  0.68336  0.89751  0.11465  1.0000
  H   H10       1.0  0.31664  0.10249  0.88534  1.0000
  H   H11       1.0  0.67486  0.03535  0.15672  1.0000
  H   H12       1.0  0.32514  0.96465  0.84328  1.0000
  H   H13       1.0  0.06087  0.69661  0.29564  1.0000
  H   H14       1.0  0.93913  0.30339  0.70436  1.0000
  H   H15       1.0  0.93464  0.77036  0.39464  1.0000
  H   H16       1.0  0.06536  0.22964  0.60536  1.0000
  H   H17       1.0  0.43511  0.80851  0.18693  1.0000
  H   H18       1.0  0.56488  0.19150  0.81307  1.0000
  H   H19       1.0  0.56522  0.73646  0.08930  1.0000
  H   H20       1.0  0.43478  0.26354  0.91070  1.0000
  C   C1        1.0  0.10170  0.08748  0.20084  1.0000
  C   C2        1.0  0.89830  0.91252  0.79916  1.0000
  C   C3        1.0  0.94342  0.33241  0.20013  1.0000
  C   C4        1.0  0.05657  0.66759  0.79987  1.0000
  C   C5        1.0  0.89537  0.29286  0.99396  1.0000
  C   C6        1.0  0.10463  0.70714  0.00604  1.0000
  C   C7        1.0  0.67678  0.06331  0.38996  1.0000
  C   C8        1.0  0.32322  0.93669  0.61004  1.0000
  C   C9        1.0  0.51475  0.30444  0.39534  1.0000
  C   C10       1.0  0.48525  0.69556  0.60466  1.0000
  C   C11       1.0  0.47089  0.26713  0.18739  1.0000
  C   C12       1.0  0.52911  0.73287  0.81261  1.0000
  N   N1        1.0  0.01181  0.14524  0.06693  1.0000
  N   N2        1.0  0.98819  0.85476  0.93307  1.0000
  N   N3        1.0  0.06227  0.18239  0.26578  1.0000
  N   N4        1.0  0.93773  0.81761  0.73422  1.0000
  N   N5        1.0  0.86418  0.38352  0.06258  1.0000
  N   N6        1.0  0.13582  0.61648  0.93742  1.0000
  N   N7        1.0  0.59261  0.12131  0.25478  1.0000
  N   N8        1.0  0.40739  0.87869  0.74522  1.0000
  N   N9        1.0  0.63663  0.15595  0.45780  1.0000
  N   N10       1.0  0.36337  0.84405  0.54220  1.0000
  N   N11       1.0  0.43036  0.35544  0.25985  1.0000
  N   N12       1.0  0.56965  0.64456  0.74015  1.0000
  O   O1        1.0  0.21344  0.95210  0.26519  1.0000
  O   O2        1.0  0.78655  0.04790  0.73482  1.0000
  O   O3        1.0  0.90989  0.41540  0.26008  1.0000
  O   O4        1.0  0.09010  0.58460  0.73992  1.0000
  O   O5        1.0  0.81547  0.34536  0.86952  1.0000
  O   O6        1.0  0.18454  0.65464  0.13048  1.0000
  O   O7        1.0  0.79237  0.92818  0.45537  1.0000
  O   O8        1.0  0.20763  0.07182  0.54463  1.0000
  O   O9        1.0  0.48570  0.38720  0.45572  1.0000
  O   O10       1.0  0.51430  0.61280  0.54429  1.0000
  O   O11       1.0  0.39356  0.32590  0.05997  1.0000
  O   O12       1.0  0.60644  0.67411  0.94003  1.0000
  O   O13       1.0  0.72810  0.99198  0.08360  1.0000
  O   O14       1.0  0.27189  0.00802  0.91640  1.0000
  O   O15       1.0  0.99516  0.67271  0.39132  1.0000
  O   O16       1.0  0.00484  0.32729  0.60868  1.0000
  O   O17       1.0  0.57529  0.75394  0.17399  1.0000
  O   O18       1.0  0.42471  0.24606  0.82600  1.0000
