data_image0
_chemical_formula_structural       Sm4H44C36S18N12O34
_chemical_formula_sum              "Sm4 H44 C36 S18 N12 O34"
_cell_length_a       9.66015
_cell_length_b       13.1197
_cell_length_c       14.9758
_cell_angle_alpha    66.0661
_cell_angle_beta     82.9189
_cell_angle_gamma    80.6364

_space_group_name_H-M_alt    "P 1"
_space_group_IT_number       1

loop_
  _space_group_symop_operation_xyz
  'x, y, z'

loop_
  _atom_site_type_symbol
  _atom_site_label
  _atom_site_symmetry_multiplicity
  _atom_site_fract_x
  _atom_site_fract_y
  _atom_site_fract_z
  _atom_site_occupancy
  Sm  Sm1       1.0  0.28958  0.04399  0.94677  1.0000
  Sm  Sm2       1.0  0.71041  0.95602  0.05323  1.0000
  Sm  Sm3       1.0  0.16951  0.54894  0.04032  1.0000
  Sm  Sm4       1.0  0.83048  0.45106  0.95968  1.0000
  H   H1        1.0  0.33272  0.35462  0.19716  1.0000
  H   H2        1.0  0.66728  0.64537  0.80284  1.0000
  H   H3        1.0  0.43891  0.40965  0.10271  1.0000
  H   H4        1.0  0.56109  0.59035  0.89729  1.0000
  H   H5        1.0  0.08905  0.98256  0.75238  1.0000
  H   H6        1.0  0.91095  0.01743  0.24762  1.0000
  H   H7        1.0  0.98088  0.10036  0.76568  1.0000
  H   H8        1.0  0.01912  0.89964  0.23432  1.0000
  H   H9        1.0  0.25004  0.72172  0.10357  1.0000
  H   H10       1.0  0.74996  0.27828  0.89642  1.0000
  H   H11       1.0  0.33123  0.74657  0.00260  1.0000
  H   H12       1.0  0.66877  0.25343  0.99740  1.0000
  H   H13       1.0  0.05851  0.58202  0.22709  1.0000
  H   H14       1.0  0.94149  0.41798  0.77291  1.0000
  H   H15       1.0  0.16359  0.46647  0.27048  1.0000
  H   H16       1.0  0.83640  0.53353  0.72952  1.0000
  H   H17       1.0  0.87992  0.63967  0.08417  1.0000
  H   H18       1.0  0.12008  0.36034  0.91582  1.0000
  H   H19       1.0  0.94216  0.75570  0.02376  1.0000
  H   H20       1.0  0.05784  0.24430  0.97624  1.0000
  H   H21       1.0  0.44887  0.18737  0.00664  1.0000
  H   H22       1.0  0.55113  0.81263  0.99336  1.0000
  H   H23       1.0  0.32905  0.28361  0.95132  1.0000
  H   H24       1.0  0.67095  0.71639  0.04868  1.0000
  H   H25       1.0  0.97185  0.34889  0.28884  1.0000
  H   H26       1.0  0.02815  0.65111  0.71116  1.0000
  H   H27       1.0  0.06995  0.22799  0.27511  1.0000
  H   H28       1.0  0.93005  0.77201  0.72488  1.0000
  H   H29       1.0  0.20914  0.15280  0.66516  1.0000
  H   H30       1.0  0.79086  0.84720  0.33483  1.0000
  H   H31       1.0  0.32859  0.25247  0.64453  1.0000
  H   H32       1.0  0.67141  0.74753  0.35547  1.0000
  H   H33       1.0  0.41583  0.20233  0.18514  1.0000
  H   H34       1.0  0.58418  0.79768  0.81486  1.0000
  H   H35       1.0  0.58125  0.24039  0.19341  1.0000
  H   H36       1.0  0.41877  0.75960  0.80660  1.0000
  H   H37       1.0  0.51899  0.74771  0.23845  1.0000
  H   H38       1.0  0.48100  0.25229  0.76155  1.0000
  H   H39       1.0  0.44134  0.84892  0.28670  1.0000
  H   H40       1.0  0.55866  0.15108  0.71330  1.0000
  H   H41       1.0  0.53646  0.45921  0.79473  1.0000
  H   H42       1.0  0.46354  0.54079  0.20528  1.0000
  H   H43       1.0  0.45260  0.59916  0.73989  1.0000
  H   H44       1.0  0.54740  0.40084  0.26011  1.0000
  C   C1        1.0  0.99454  0.95198  0.89733  1.0000
  C   C2        1.0  0.00547  0.04802  0.10267  1.0000
  C   C3        1.0  0.99086  0.00899  0.78681  1.0000
  C   C4        1.0  0.00914  0.99101  0.21319  1.0000
  C   C5        1.0  0.87699  0.05417  0.61800  1.0000
  C   C6        1.0  0.12301  0.94583  0.38200  1.0000
  C   C7        1.0  0.87070  0.14772  0.44411  1.0000
  C   C8        1.0  0.12929  0.85228  0.55589  1.0000
  C   C9        1.0  0.96889  0.28252  0.26255  1.0000
  C   C10       1.0  0.03110  0.71748  0.73745  1.0000
  C   C11       1.0  0.94289  0.33298  0.15495  1.0000
  C   C12       1.0  0.05711  0.66703  0.84505  1.0000
  C   C13       1.0  0.14328  0.26486  0.73908  1.0000
  C   C14       1.0  0.85672  0.73514  0.26092  1.0000
  C   C15       1.0  0.21694  0.24020  0.65279  1.0000
  C   C16       1.0  0.78306  0.75980  0.34721  1.0000
  C   C17       1.0  0.23646  0.28856  0.46093  1.0000
  C   C18       1.0  0.76354  0.71144  0.53907  1.0000
  C   C19       1.0  0.38915  0.18879  0.37614  1.0000
  C   C20       1.0  0.61085  0.81121  0.62386  1.0000
  C   C21       1.0  0.52073  0.16926  0.21303  1.0000
  C   C22       1.0  0.47928  0.83074  0.78698  1.0000
  C   C23       1.0  0.59269  0.09342  0.16370  1.0000
  C   C24       1.0  0.40731  0.90658  0.83630  1.0000
  C   C25       1.0  0.37398  0.87898  0.14587  1.0000
  C   C26       1.0  0.62602  0.12102  0.85413  1.0000
  C   C27       1.0  0.42065  0.80018  0.24610  1.0000
  C   C28       1.0  0.57935  0.19982  0.75390  1.0000
  C   C29       1.0  0.33773  0.65728  0.42769  1.0000
  C   C30       1.0  0.66227  0.34272  0.57231  1.0000
  C   C31       1.0  0.35434  0.55708  0.59960  1.0000
  C   C32       1.0  0.64566  0.44292  0.40040  1.0000
  C   C33       1.0  0.43400  0.51206  0.78452  1.0000
  C   C34       1.0  0.56600  0.48794  0.21548  1.0000
  C   C35       1.0  0.36192  0.50237  0.88331  1.0000
  C   C36       1.0  0.63808  0.49763  0.11669  1.0000
  S   S1        1.0  0.84271  0.97812  0.74266  1.0000
  S   S2        1.0  0.15729  0.02188  0.25735  1.0000
  S   S3        1.0  0.74850  0.08033  0.53639  1.0000
  S   S4        1.0  0.25150  0.91967  0.46361  1.0000
  S   S5        1.0  0.82539  0.20062  0.32362  1.0000
  S   S6        1.0  0.17461  0.79938  0.67638  1.0000
  S   S7        1.0  0.13326  0.33534  0.54220  1.0000
  S   S8        1.0  0.86674  0.66466  0.45780  1.0000
  S   S9        1.0  0.34832  0.16269  0.49821  1.0000
  S   S10       1.0  0.65168  0.83731  0.50179  1.0000
  S   S11       1.0  0.50556  0.09229  0.34371  1.0000
  S   S12       1.0  0.49445  0.90771  0.65629  1.0000
  S   S13       1.0  0.28229  0.71413  0.30940  1.0000
  S   S14       1.0  0.71771  0.28587  0.69060  1.0000
  S   S15       1.0  0.22185  0.58442  0.52138  1.0000
  S   S16       1.0  0.77815  0.41558  0.47862  1.0000
  S   S17       1.0  0.31941  0.47023  0.72146  1.0000
  S   S18       1.0  0.68059  0.52977  0.27854  1.0000
  N   N1        1.0  0.99403  0.09632  0.57567  1.0000
  N   N2        1.0  0.00597  0.90368  0.42433  1.0000
  N   N3        1.0  0.99076  0.14967  0.47583  1.0000
  N   N4        1.0  0.00924  0.85033  0.52417  1.0000
  N   N5        1.0  0.23658  0.34146  0.36487  1.0000
  N   N6        1.0  0.76342  0.65854  0.63513  1.0000
  N   N7        1.0  0.32258  0.28400  0.31683  1.0000
  N   N8        1.0  0.67742  0.71600  0.68317  1.0000
  N   N9        1.0  0.45894  0.66170  0.45732  1.0000
  N   N10       1.0  0.54106  0.33829  0.54269  1.0000
  N   N11       1.0  0.46834  0.60385  0.55659  1.0000
  N   N12       1.0  0.53166  0.39615  0.44342  1.0000
  O   O1        1.0  0.10136  0.95861  0.93391  1.0000
  O   O2        1.0  0.89863  0.04139  0.06609  1.0000
  O   O3        1.0  0.33801  0.39911  0.12363  1.0000
  O   O4        1.0  0.66199  0.60089  0.87637  1.0000
  O   O5        1.0  0.89075  0.90046  0.94733  1.0000
  O   O6        1.0  0.10924  0.09954  0.05268  1.0000
  O   O7        1.0  0.28945  0.68511  0.05881  1.0000
  O   O8        1.0  0.71055  0.31489  0.94119  1.0000
  O   O9        1.0  0.00793  0.41508  0.09602  1.0000
  O   O10       1.0  0.99207  0.58492  0.90398  1.0000
  O   O11       1.0  0.12787  0.52670  0.20864  1.0000
  O   O12       1.0  0.87213  0.47330  0.79136  1.0000
  O   O13       1.0  0.85361  0.29578  0.12461  1.0000
  O   O14       1.0  0.14639  0.70422  0.87539  1.0000
  O   O15       1.0  0.96699  0.67353  0.05749  1.0000
  O   O16       1.0  0.03301  0.32647  0.94251  1.0000
  O   O17       1.0  0.37022  0.20589  0.96355  1.0000
  O   O18       1.0  0.62977  0.79411  0.03645  1.0000
  O   O19       1.0  0.19060  0.20325  0.82308  1.0000
  O   O20       1.0  0.80940  0.79675  0.17691  1.0000
  O   O21       1.0  0.04363  0.34325  0.72091  1.0000
  O   O22       1.0  0.95637  0.65676  0.27908  1.0000
  O   O23       1.0  0.64314  0.99385  0.21081  1.0000
  O   O24       1.0  0.35686  0.00615  0.78919  1.0000
  O   O25       1.0  0.59813  0.13662  0.06895  1.0000
  O   O26       1.0  0.40187  0.86339  0.93105  1.0000
  O   O27       1.0  0.45059  0.95641  0.09293  1.0000
  O   O28       1.0  0.54941  0.04359  0.90707  1.0000
  O   O29       1.0  0.26359  0.86911  0.11427  1.0000
  O   O30       1.0  0.73641  0.13089  0.88573  1.0000
  O   O31       1.0  0.39633  0.56156  0.92479  1.0000
  O   O32       1.0  0.60367  0.43844  0.07521  1.0000
  O   O33       1.0  0.26557  0.43856  0.92266  1.0000
  O   O34       1.0  0.73442  0.56144  0.07734  1.0000
