data_image0
_chemical_formula_structural       Zn4P8H40C16N24O32
_chemical_formula_sum              "Zn4 P8 H40 C16 N24 O32"
_cell_length_a       8.43927
_cell_length_b       9.52087
_cell_length_c       15.5816
_cell_angle_alpha    90.0001
_cell_angle_beta     90
_cell_angle_gamma    89.9998

_space_group_name_H-M_alt    "P 1"
_space_group_IT_number       1

loop_
  _space_group_symop_operation_xyz
  'x, y, z'

loop_
  _atom_site_type_symbol
  _atom_site_label
  _atom_site_symmetry_multiplicity
  _atom_site_fract_x
  _atom_site_fract_y
  _atom_site_fract_z
  _atom_site_occupancy
  Zn  Zn1       1.0  0.50000  0.21320  0.25000  1.0000
  Zn  Zn2       1.0  1.00000  0.28680  0.75000  1.0000
  Zn  Zn3       1.0  0.50000  0.78681  0.75000  1.0000
  Zn  Zn4       1.0  1.00000  0.71320  0.25000  1.0000
  P   P1        1.0  0.70807  0.20386  0.05366  1.0000
  P   P2        1.0  0.79193  0.29614  0.55366  1.0000
  P   P3        1.0  0.29193  0.20386  0.44634  1.0000
  P   P4        1.0  0.20807  0.29614  0.94634  1.0000
  P   P5        1.0  0.29193  0.79614  0.94634  1.0000
  P   P6        1.0  0.20807  0.70386  0.44634  1.0000
  P   P7        1.0  0.70807  0.79614  0.55366  1.0000
  P   P8        1.0  0.79193  0.70386  0.05366  1.0000
  H   H1        1.0  0.02535  0.95992  0.10295  1.0000
  H   H2        1.0  0.47465  0.54009  0.60295  1.0000
  H   H3        1.0  0.97465  0.95992  0.39705  1.0000
  H   H4        1.0  0.52535  0.54008  0.89705  1.0000
  H   H5        1.0  0.97465  0.04008  0.89705  1.0000
  H   H6        1.0  0.52535  0.45991  0.39705  1.0000
  H   H7        1.0  0.02535  0.04009  0.60295  1.0000
  H   H8        1.0  0.47465  0.45992  0.10295  1.0000
  H   H9        1.0  0.34730  0.88910  0.30511  1.0000
  H   H10       1.0  0.15270  0.61091  0.80511  1.0000
  H   H11       1.0  0.65270  0.88910  0.19489  1.0000
  H   H12       1.0  0.84730  0.61090  0.69489  1.0000
  H   H13       1.0  0.65270  0.11090  0.69489  1.0000
  H   H14       1.0  0.84730  0.38910  0.19489  1.0000
  H   H15       1.0  0.34730  0.11090  0.80512  1.0000
  H   H16       1.0  0.15270  0.38909  0.30511  1.0000
  H   H17       1.0  0.22127  0.16351  0.11145  1.0000
  H   H18       1.0  0.27873  0.33649  0.61145  1.0000
  H   H19       1.0  0.77873  0.16351  0.38855  1.0000
  H   H20       1.0  0.72127  0.33649  0.88855  1.0000
  H   H21       1.0  0.77873  0.83649  0.88855  1.0000
  H   H22       1.0  0.72127  0.66351  0.38855  1.0000
  H   H23       1.0  0.22127  0.83649  0.61145  1.0000
  H   H24       1.0  0.27873  0.66351  0.11145  1.0000
  H   H25       1.0  0.73944  0.96996  0.05599  1.0000
  H   H26       1.0  0.76056  0.53004  0.55599  1.0000
  H   H27       1.0  0.26056  0.96996  0.44401  1.0000
  H   H28       1.0  0.23944  0.53004  0.94401  1.0000
  H   H29       1.0  0.26056  0.03004  0.94401  1.0000
  H   H30       1.0  0.23944  0.46996  0.44401  1.0000
  H   H31       1.0  0.73944  0.03004  0.55599  1.0000
  H   H32       1.0  0.76056  0.46996  0.05599  1.0000
  H   H33       1.0  0.50855  0.20008  0.95684  1.0000
  H   H34       1.0  0.99145  0.29992  0.45684  1.0000
  H   H35       1.0  0.49145  0.20008  0.54316  1.0000
  H   H36       1.0  0.00855  0.29992  0.04316  1.0000
  H   H37       1.0  0.49145  0.79992  0.04316  1.0000
  H   H38       1.0  0.00855  0.70008  0.54316  1.0000
  H   H39       1.0  0.50855  0.79992  0.45684  1.0000
  H   H40       1.0  0.99145  0.70008  0.95684  1.0000
  C   C1        1.0  0.12271  0.96778  0.14791  1.0000
  C   C2        1.0  0.37729  0.53223  0.64791  1.0000
  C   C3        1.0  0.87729  0.96778  0.35209  1.0000
  C   C4        1.0  0.62271  0.53222  0.85209  1.0000
  C   C5        1.0  0.87729  0.03222  0.85209  1.0000
  C   C6        1.0  0.62271  0.46778  0.35209  1.0000
  C   C7        1.0  0.12271  0.03223  0.64791  1.0000
  C   C8        1.0  0.37729  0.46778  0.14791  1.0000
  C   C9        1.0  0.28845  0.93417  0.24956  1.0000
  C   C10       1.0  0.21155  0.56583  0.74956  1.0000
  C   C11       1.0  0.71155  0.93417  0.25045  1.0000
  C   C12       1.0  0.78845  0.56583  0.75044  1.0000
  C   C13       1.0  0.71154  0.06583  0.75044  1.0000
  C   C14       1.0  0.78845  0.43417  0.25044  1.0000
  C   C15       1.0  0.28845  0.06583  0.74956  1.0000
  C   C16       1.0  0.21155  0.43417  0.24955  1.0000
  N   N1        1.0  0.15993  0.87662  0.21034  1.0000
  N   N2        1.0  0.34007  0.62338  0.71034  1.0000
  N   N3        1.0  0.84007  0.87662  0.28966  1.0000
  N   N4        1.0  0.65993  0.62338  0.78966  1.0000
  N   N5        1.0  0.84007  0.12338  0.78966  1.0000
  N   N6        1.0  0.65993  0.37662  0.28965  1.0000
  N   N7        1.0  0.15993  0.12338  0.71035  1.0000
  N   N8        1.0  0.34007  0.37662  0.21034  1.0000
  N   N9        1.0  0.33077  0.05555  0.21420  1.0000
  N   N10       1.0  0.16923  0.44444  0.71420  1.0000
  N   N11       1.0  0.66922  0.05555  0.28580  1.0000
  N   N12       1.0  0.83077  0.44444  0.78580  1.0000
  N   N13       1.0  0.66922  0.94445  0.78580  1.0000
  N   N14       1.0  0.83078  0.55555  0.28580  1.0000
  N   N15       1.0  0.33077  0.94444  0.71420  1.0000
  N   N16       1.0  0.16923  0.55556  0.21420  1.0000
  N   N17       1.0  0.22421  0.07488  0.15015  1.0000
  N   N18       1.0  0.27579  0.42512  0.65015  1.0000
  N   N19       1.0  0.77579  0.07488  0.34986  1.0000
  N   N20       1.0  0.72420  0.42512  0.84985  1.0000
  N   N21       1.0  0.77579  0.92512  0.84985  1.0000
  N   N22       1.0  0.72420  0.57487  0.34985  1.0000
  N   N23       1.0  0.22421  0.92512  0.65014  1.0000
  N   N24       1.0  0.27579  0.57488  0.15015  1.0000
  O   O1        1.0  0.57925  0.21240  0.12029  1.0000
  O   O2        1.0  0.92076  0.28760  0.62029  1.0000
  O   O3        1.0  0.42076  0.21240  0.37971  1.0000
  O   O4        1.0  0.07924  0.28760  0.87971  1.0000
  O   O5        1.0  0.42076  0.78760  0.87971  1.0000
  O   O6        1.0  0.07925  0.71240  0.37971  1.0000
  O   O7        1.0  0.57924  0.78760  0.62029  1.0000
  O   O8        1.0  0.92075  0.71240  0.12029  1.0000
  O   O9        1.0  0.80433  0.06123  0.05664  1.0000
  O   O10       1.0  0.69567  0.43877  0.55664  1.0000
  O   O11       1.0  0.19567  0.06123  0.44336  1.0000
  O   O12       1.0  0.30433  0.43877  0.94336  1.0000
  O   O13       1.0  0.19567  0.93877  0.94336  1.0000
  O   O14       1.0  0.30433  0.56123  0.44336  1.0000
  O   O15       1.0  0.80432  0.93877  0.55664  1.0000
  O   O16       1.0  0.69567  0.56123  0.05664  1.0000
  O   O17       1.0  0.83448  0.32012  0.05735  1.0000
  O   O18       1.0  0.66552  0.17988  0.55735  1.0000
  O   O19       1.0  0.16552  0.32012  0.44265  1.0000
  O   O20       1.0  0.33448  0.17988  0.94265  1.0000
  O   O21       1.0  0.16552  0.67988  0.94264  1.0000
  O   O22       1.0  0.33448  0.82012  0.44265  1.0000
  O   O23       1.0  0.83447  0.67988  0.55736  1.0000
  O   O24       1.0  0.66552  0.82012  0.05735  1.0000
  O   O25       1.0  0.63058  0.21298  0.96014  1.0000
  O   O26       1.0  0.86942  0.28702  0.46014  1.0000
  O   O27       1.0  0.36942  0.21298  0.53986  1.0000
  O   O28       1.0  0.13058  0.28702  0.03986  1.0000
  O   O29       1.0  0.36942  0.78702  0.03986  1.0000
  O   O30       1.0  0.13058  0.71298  0.53986  1.0000
  O   O31       1.0  0.63058  0.78702  0.46014  1.0000
  O   O32       1.0  0.86942  0.71298  0.96014  1.0000
