data_image0
_chemical_formula_structural       Mg6H54C42N6O30
_chemical_formula_sum              "Mg6 H54 C42 N6 O30"
_cell_length_a       8.06224
_cell_length_b       14.0082
_cell_length_c       14.0082
_cell_angle_alpha    120
_cell_angle_beta     89.9999
_cell_angle_gamma    90

_space_group_name_H-M_alt    "P 1"
_space_group_IT_number       1

loop_
  _space_group_symop_operation_xyz
  'x, y, z'

loop_
  _atom_site_type_symbol
  _atom_site_label
  _atom_site_symmetry_multiplicity
  _atom_site_fract_x
  _atom_site_fract_y
  _atom_site_fract_z
  _atom_site_occupancy
  Mg  Mg1       1.0  0.60195  0.22067  0.98450  1.0000
  Mg  Mg2       1.0  0.60195  0.01550  0.23618  1.0000
  Mg  Mg3       1.0  0.60195  0.76382  0.77932  1.0000
  Mg  Mg4       1.0  0.39805  0.77932  0.01550  1.0000
  Mg  Mg5       1.0  0.39805  0.98450  0.76382  1.0000
  Mg  Mg6       1.0  0.39805  0.23618  0.22068  1.0000
  H   H1        1.0  0.86563  0.04526  0.88130  1.0000
  H   H2        1.0  0.86563  0.11870  0.16396  1.0000
  H   H3        1.0  0.86563  0.83604  0.95474  1.0000
  H   H4        1.0  0.13437  0.95474  0.11870  1.0000
  H   H5        1.0  0.13437  0.88130  0.83604  1.0000
  H   H6        1.0  0.13437  0.16396  0.04526  1.0000
  H   H7        1.0  0.05945  0.07313  0.74304  1.0000
  H   H8        1.0  0.05945  0.25696  0.33009  1.0000
  H   H9        1.0  0.05944  0.66991  0.92687  1.0000
  H   H10       1.0  0.94055  0.92687  0.25696  1.0000
  H   H11       1.0  0.94056  0.74304  0.66991  1.0000
  H   H12       1.0  0.94056  0.33009  0.07313  1.0000
  H   H13       1.0  0.53463  0.55277  0.42384  1.0000
  H   H14       1.0  0.53463  0.57616  0.12893  1.0000
  H   H15       1.0  0.53463  0.87107  0.44723  1.0000
  H   H16       1.0  0.46536  0.44723  0.57616  1.0000
  H   H17       1.0  0.46537  0.42384  0.87107  1.0000
  H   H18       1.0  0.46537  0.12893  0.55277  1.0000
  H   H19       1.0  0.80296  0.04522  0.54302  1.0000
  H   H20       1.0  0.80296  0.45698  0.50220  1.0000
  H   H21       1.0  0.80296  0.49780  0.95478  1.0000
  H   H22       1.0  0.19704  0.95478  0.45698  1.0000
  H   H23       1.0  0.19704  0.54302  0.49780  1.0000
  H   H24       1.0  0.19704  0.50220  0.04522  1.0000
  H   H25       1.0  0.83074  0.11224  0.68987  1.0000
  H   H26       1.0  0.83075  0.31013  0.42237  1.0000
  H   H27       1.0  0.83075  0.57762  0.88776  1.0000
  H   H28       1.0  0.16926  0.88776  0.31013  1.0000
  H   H29       1.0  0.16926  0.68987  0.57762  1.0000
  H   H30       1.0  0.16926  0.42238  0.11224  1.0000
  H   H31       1.0  0.69067  0.99925  0.62249  1.0000
  H   H32       1.0  0.69067  0.37751  0.37676  1.0000
  H   H33       1.0  0.69067  0.62324  0.00075  1.0000
  H   H34       1.0  0.30933  0.00075  0.37751  1.0000
  H   H35       1.0  0.30933  0.62249  0.62324  1.0000
  H   H36       1.0  0.30933  0.37676  0.99925  1.0000
  H   H37       1.0  0.88626  0.84683  0.43577  1.0000
  H   H38       1.0  0.88626  0.56423  0.41106  1.0000
  H   H39       1.0  0.88627  0.58894  0.15317  1.0000
  H   H40       1.0  0.11373  0.15317  0.56423  1.0000
  H   H41       1.0  0.11374  0.43577  0.58894  1.0000
  H   H42       1.0  0.11373  0.41106  0.84683  1.0000
  H   H43       1.0  0.06276  0.81060  0.49001  1.0000
  H   H44       1.0  0.06276  0.50999  0.32059  1.0000
  H   H45       1.0  0.06276  0.67941  0.18940  1.0000
  H   H46       1.0  0.93724  0.18940  0.50999  1.0000
  H   H47       1.0  0.93724  0.49001  0.67941  1.0000
  H   H48       1.0  0.93724  0.32059  0.81060  1.0000
  H   H49       1.0  0.85671  0.79356  0.52637  1.0000
  H   H50       1.0  0.85671  0.47363  0.26720  1.0000
  H   H51       1.0  0.85671  0.73280  0.20644  1.0000
  H   H52       1.0  0.14329  0.20644  0.47364  1.0000
  H   H53       1.0  0.14329  0.52637  0.73280  1.0000
  H   H54       1.0  0.14329  0.26720  0.79356  1.0000
  C   C1        1.0  0.75032  0.99591  0.85122  1.0000
  C   C2        1.0  0.75032  0.14878  0.14469  1.0000
  C   C3        1.0  0.75032  0.85531  0.00409  1.0000
  C   C4        1.0  0.24968  0.00409  0.14878  1.0000
  C   C5        1.0  0.24968  0.85123  0.85531  1.0000
  C   C6        1.0  0.24968  0.14468  0.99591  1.0000
  C   C7        1.0  0.54430  0.77336  0.57222  1.0000
  C   C8        1.0  0.54430  0.42778  0.20113  1.0000
  C   C9        1.0  0.54431  0.79887  0.22664  1.0000
  C   C10       1.0  0.45570  0.22664  0.42778  1.0000
  C   C11       1.0  0.45570  0.57222  0.79887  1.0000
  C   C12       1.0  0.45570  0.20113  0.77336  1.0000
  C   C13       1.0  0.06514  0.98673  0.67535  1.0000
  C   C14       1.0  0.06514  0.32466  0.31138  1.0000
  C   C15       1.0  0.06514  0.68862  0.01327  1.0000
  C   C16       1.0  0.93486  0.01327  0.32466  1.0000
  C   C17       1.0  0.93486  0.67534  0.68862  1.0000
  C   C18       1.0  0.93486  0.31138  0.98673  1.0000
  C   C19       1.0  0.53390  0.71778  0.44866  1.0000
  C   C20       1.0  0.53390  0.55134  0.26912  1.0000
  C   C21       1.0  0.53390  0.73088  0.28222  1.0000
  C   C22       1.0  0.46610  0.28222  0.55134  1.0000
  C   C23       1.0  0.46610  0.44866  0.73089  1.0000
  C   C24       1.0  0.46610  0.26912  0.71778  1.0000
  C   C25       1.0  0.53301  0.60281  0.38432  1.0000
  C   C26       1.0  0.53301  0.61568  0.21849  1.0000
  C   C27       1.0  0.53301  0.78151  0.39718  1.0000
  C   C28       1.0  0.46699  0.39719  0.61568  1.0000
  C   C29       1.0  0.46699  0.38432  0.78151  1.0000
  C   C30       1.0  0.46698  0.21849  0.60282  1.0000
  C   C31       1.0  0.80936  0.03298  0.61456  1.0000
  C   C32       1.0  0.80936  0.38544  0.41842  1.0000
  C   C33       1.0  0.80936  0.58158  0.96702  1.0000
  C   C34       1.0  0.19064  0.96702  0.38544  1.0000
  C   C35       1.0  0.19064  0.61456  0.58158  1.0000
  C   C36       1.0  0.19064  0.41842  0.03298  1.0000
  C   C37       1.0  0.93732  0.84548  0.50769  1.0000
  C   C38       1.0  0.93732  0.49232  0.33779  1.0000
  C   C39       1.0  0.93732  0.66221  0.15452  1.0000
  C   C40       1.0  0.06268  0.15452  0.49232  1.0000
  C   C41       1.0  0.06268  0.50769  0.66221  1.0000
  C   C42       1.0  0.06268  0.33779  0.84548  1.0000
  N   N1        1.0  0.94423  0.95755  0.60056  1.0000
  N   N2        1.0  0.94423  0.39944  0.35699  1.0000
  N   N3        1.0  0.94423  0.64301  0.04245  1.0000
  N   N4        1.0  0.05577  0.04245  0.39944  1.0000
  N   N5        1.0  0.05577  0.60056  0.64301  1.0000
  N   N6        1.0  0.05576  0.35699  0.95755  1.0000
  O   O1        1.0  0.61618  0.05000  0.86291  1.0000
  O   O2        1.0  0.61618  0.13709  0.18709  1.0000
  O   O3        1.0  0.61618  0.81291  0.95000  1.0000
  O   O4        1.0  0.38382  0.95000  0.13709  1.0000
  O   O5        1.0  0.38382  0.86291  0.81291  1.0000
  O   O6        1.0  0.38382  0.18709  0.05000  1.0000
  O   O7        1.0  0.76169  0.89339  0.80955  1.0000
  O   O8        1.0  0.76169  0.19045  0.08383  1.0000
  O   O9        1.0  0.76169  0.91617  0.10661  1.0000
  O   O10       1.0  0.23831  0.10661  0.19044  1.0000
  O   O11       1.0  0.23831  0.80956  0.91616  1.0000
  O   O12       1.0  0.23830  0.08383  0.89339  1.0000
  O   O13       1.0  0.41936  0.09962  0.71393  1.0000
  O   O14       1.0  0.41937  0.28607  0.38569  1.0000
  O   O15       1.0  0.41937  0.61431  0.90038  1.0000
  O   O16       1.0  0.58063  0.90038  0.28607  1.0000
  O   O17       1.0  0.58063  0.71393  0.61431  1.0000
  O   O18       1.0  0.58063  0.38569  0.09962  1.0000
  O   O19       1.0  0.51975  0.87667  0.62569  1.0000
  O   O20       1.0  0.51975  0.37430  0.25098  1.0000
  O   O21       1.0  0.51975  0.74902  0.12333  1.0000
  O   O22       1.0  0.48025  0.12333  0.37431  1.0000
  O   O23       1.0  0.48025  0.62569  0.74902  1.0000
  O   O24       1.0  0.48025  0.25098  0.87667  1.0000
  O   O25       1.0  0.17739  0.92272  0.67107  1.0000
  O   O26       1.0  0.17739  0.32893  0.25165  1.0000
  O   O27       1.0  0.17739  0.74835  0.07728  1.0000
  O   O28       1.0  0.82261  0.07728  0.32893  1.0000
  O   O29       1.0  0.82261  0.67107  0.74835  1.0000
  O   O30       1.0  0.82261  0.25165  0.92272  1.0000
