data_image0
_chemical_formula_structural       Cu2H44C44N4O8
_chemical_formula_sum              "Cu2 H44 C44 N4 O8"
_cell_length_a       10.4915
_cell_length_b       10.8751
_cell_length_c       10.8751
_cell_angle_alpha    105.108
_cell_angle_beta     102.067
_cell_angle_gamma    102.067

_space_group_name_H-M_alt    "P 1"
_space_group_IT_number       1

loop_
  _space_group_symop_operation_xyz
  'x, y, z'

loop_
  _atom_site_type_symbol
  _atom_site_label
  _atom_site_symmetry_multiplicity
  _atom_site_fract_x
  _atom_site_fract_y
  _atom_site_fract_z
  _atom_site_occupancy
  Cu  Cu1       1.0  0.99999  1.00000  1.00000  1.0000
  Cu  Cu2       1.0  0.50000  0.99999  0.00000  1.0000
  H   H1        1.0  0.85341  0.07983  0.19166  1.0000
  H   H2        1.0  0.64659  0.80833  0.92018  1.0000
  H   H3        1.0  0.14658  0.92017  0.80834  1.0000
  H   H4        1.0  0.35341  0.19166  0.07983  1.0000
  H   H5        1.0  0.24296  0.03825  0.21927  1.0000
  H   H6        1.0  0.25703  0.78072  0.96174  1.0000
  H   H7        1.0  0.75703  0.96174  0.78072  1.0000
  H   H8        1.0  0.74297  0.21927  0.03826  1.0000
  H   H9        1.0  0.02981  0.79710  0.23787  1.0000
  H   H10       1.0  0.47020  0.76213  0.20290  1.0000
  H   H11       1.0  0.97020  0.20290  0.76213  1.0000
  H   H12       1.0  0.52981  0.23788  0.79710  1.0000
  H   H13       1.0  0.16248  0.73966  0.31152  1.0000
  H   H14       1.0  0.33752  0.68848  0.26035  1.0000
  H   H15       1.0  0.83752  0.26034  0.68849  1.0000
  H   H16       1.0  0.66249  0.31152  0.73966  1.0000
  H   H17       1.0  0.99494  0.67253  0.31392  1.0000
  H   H18       1.0  0.50506  0.68608  0.32748  1.0000
  H   H19       1.0  0.00506  0.32746  0.68608  1.0000
  H   H20       1.0  0.49495  0.31393  0.67253  1.0000
  H   H21       1.0  0.89503  0.65141  0.76642  1.0000
  H   H22       1.0  0.60498  0.23358  0.34859  1.0000
  H   H23       1.0  0.10498  0.34859  0.23358  1.0000
  H   H24       1.0  0.39503  0.76642  0.65141  1.0000
  H   H25       1.0  0.80269  0.48202  0.69154  1.0000
  H   H26       1.0  0.69733  0.30846  0.51799  1.0000
  H   H27       1.0  0.19733  0.51799  0.30846  1.0000
  H   H28       1.0  0.30268  0.69155  0.48202  1.0000
  H   H29       1.0  0.97231  0.53497  0.68769  1.0000
  H   H30       1.0  0.52770  0.31232  0.46504  1.0000
  H   H31       1.0  0.02770  0.46504  0.31231  1.0000
  H   H32       1.0  0.47230  0.68769  0.53496  1.0000
  H   H33       1.0  0.12502  0.16386  0.57923  1.0000
  H   H34       1.0  0.37497  0.42076  0.83615  1.0000
  H   H35       1.0  0.87498  0.83614  0.42076  1.0000
  H   H36       1.0  0.62502  0.57923  0.16385  1.0000
  H   H37       1.0  0.89400  0.14708  0.43542  1.0000
  H   H38       1.0  0.60600  0.56458  0.85293  1.0000
  H   H39       1.0  0.10600  0.85293  0.56458  1.0000
  H   H40       1.0  0.39399  0.43541  0.14707  1.0000
  H   H41       1.0  0.30072  0.10652  0.46644  1.0000
  H   H42       1.0  0.19928  0.53355  0.89349  1.0000
  H   H43       1.0  0.69928  0.89348  0.53354  1.0000
  H   H44       1.0  0.80072  0.46644  0.10652  1.0000
  C   C1        1.0  0.96309  0.75568  0.00162  1.0000
  C   C2        1.0  0.53691  0.99838  0.24432  1.0000
  C   C3        1.0  0.03692  0.24432  0.99838  1.0000
  C   C4        1.0  0.46309  0.00162  0.75568  1.0000
  C   C5        1.0  0.98242  0.62270  0.00124  1.0000
  C   C6        1.0  0.51759  0.99876  0.37731  1.0000
  C   C7        1.0  0.01759  0.37731  0.99875  1.0000
  C   C8        1.0  0.48241  0.00125  0.62270  1.0000
  C   C9        1.0  0.03004  0.60168  0.12263  1.0000
  C   C10       1.0  0.46996  0.87737  0.39832  1.0000
  C   C11       1.0  0.96997  0.39832  0.87737  1.0000
  C   C12       1.0  0.53004  0.12263  0.60168  1.0000
  C   C13       1.0  0.95173  0.52324  0.87868  1.0000
  C   C14       1.0  0.54828  0.12132  0.47676  1.0000
  C   C15       1.0  0.04828  0.47676  0.12132  1.0000
  C   C16       1.0  0.45173  0.87868  0.52324  1.0000
  C   C17       1.0  0.95190  0.08955  0.25604  1.0000
  C   C18       1.0  0.54809  0.74395  0.91045  1.0000
  C   C19       1.0  0.04809  0.91045  0.74395  1.0000
  C   C20       1.0  0.45190  0.25604  0.08955  1.0000
  C   C21       1.0  0.17008  0.06644  0.27176  1.0000
  C   C22       1.0  0.32990  0.72823  0.93355  1.0000
  C   C23       1.0  0.82991  0.93356  0.72823  1.0000
  C   C24       1.0  0.67009  0.27175  0.06644  1.0000
  C   C25       1.0  0.05564  0.70845  0.25246  1.0000
  C   C26       1.0  0.44436  0.74754  0.29156  1.0000
  C   C27       1.0  0.94437  0.29155  0.74754  1.0000
  C   C28       1.0  0.55564  0.25246  0.70845  1.0000
  C   C29       1.0  0.90315  0.54996  0.75026  1.0000
  C   C30       1.0  0.59685  0.24973  0.45004  1.0000
  C   C31       1.0  0.09685  0.45004  0.24973  1.0000
  C   C32       1.0  0.40315  0.75028  0.54997  1.0000
  C   C33       1.0  0.10311  0.13593  0.47150  1.0000
  C   C34       1.0  0.39688  0.52849  0.86408  1.0000
  C   C35       1.0  0.89688  0.86407  0.52849  1.0000
  C   C36       1.0  0.60312  0.47150  0.13593  1.0000
  C   C37       1.0  0.97600  0.12761  0.39323  1.0000
  C   C38       1.0  0.52400  0.60676  0.87240  1.0000
  C   C39       1.0  0.02400  0.87240  0.60677  1.0000
  C   C40       1.0  0.47600  0.39322  0.12760  1.0000
  C   C41       1.0  0.20129  0.10455  0.40956  1.0000
  C   C42       1.0  0.29870  0.59043  0.89545  1.0000
  C   C43       1.0  0.79870  0.89545  0.59043  1.0000
  C   C44       1.0  0.70130  0.40956  0.10455  1.0000
  N   N1        1.0  0.04737  0.06005  0.19708  1.0000
  N   N2        1.0  0.45263  0.80291  0.93994  1.0000
  N   N3        1.0  0.95262  0.93995  0.80292  1.0000
  N   N4        1.0  0.54738  0.19708  0.06005  1.0000
  O   O1        1.0  0.06937  0.84214  0.00258  1.0000
  O   O2        1.0  0.43062  0.99741  0.15785  1.0000
  O   O3        1.0  0.93063  0.15786  0.99741  1.0000
  O   O4        1.0  0.56937  0.00259  0.84215  1.0000
  O   O5        1.0  0.85033  0.77745  0.00017  1.0000
  O   O6        1.0  0.64966  0.99984  0.22254  1.0000
  O   O7        1.0  0.14967  0.22255  0.99984  1.0000
  O   O8        1.0  0.35033  0.00016  0.77745  1.0000
