data_image0
_chemical_formula_structural       K4Co4H48C48N8O32
_chemical_formula_sum              "K4 Co4 H48 C48 N8 O32"
_cell_length_a       7.39211
_cell_length_b       13.8919
_cell_length_c       14.0268
_cell_angle_alpha    90.0004
_cell_angle_beta     95.5181
_cell_angle_gamma    90.0004

_space_group_name_H-M_alt    "P 1"
_space_group_IT_number       1

loop_
  _space_group_symop_operation_xyz
  'x, y, z'

loop_
  _atom_site_type_symbol
  _atom_site_label
  _atom_site_symmetry_multiplicity
  _atom_site_fract_x
  _atom_site_fract_y
  _atom_site_fract_z
  _atom_site_occupancy
  K   K1        1.0  0.74926  0.06522  0.94723  1.0000
  K   K2        1.0  0.75074  0.56522  0.55277  1.0000
  K   K3        1.0  0.25074  0.93478  0.05277  1.0000
  K   K4        1.0  0.24926  0.43478  0.44723  1.0000
  Co  Co1       1.0  0.77451  0.18404  0.62433  1.0000
  Co  Co2       1.0  0.72549  0.68403  0.87566  1.0000
  Co  Co3       1.0  0.22550  0.81596  0.37566  1.0000
  Co  Co4       1.0  0.27450  0.31596  0.12434  1.0000
  H   H1        1.0  0.35117  0.94969  0.86676  1.0000
  H   H2        1.0  0.14882  0.44968  0.63323  1.0000
  H   H3        1.0  0.64882  0.05032  0.13323  1.0000
  H   H4        1.0  0.85117  0.55032  0.36676  1.0000
  H   H5        1.0  0.26453  0.05390  0.85576  1.0000
  H   H6        1.0  0.23546  0.55390  0.64423  1.0000
  H   H7        1.0  0.73547  0.94610  0.14423  1.0000
  H   H8        1.0  0.76452  0.44610  0.35577  1.0000
  H   H9        1.0  0.81428  0.20932  0.10966  1.0000
  H   H10       1.0  0.68573  0.70932  0.39034  1.0000
  H   H11       1.0  0.18572  0.79069  0.89034  1.0000
  H   H12       1.0  0.31428  0.29069  0.60966  1.0000
  H   H13       1.0  0.61516  0.23092  0.13190  1.0000
  H   H14       1.0  0.88484  0.73092  0.36810  1.0000
  H   H15       1.0  0.38484  0.76909  0.86810  1.0000
  H   H16       1.0  0.11516  0.26909  0.63190  1.0000
  H   H17       1.0  0.87679  0.31269  0.46582  1.0000
  H   H18       1.0  0.62320  0.81269  0.03418  1.0000
  H   H19       1.0  0.12321  0.68731  0.53418  1.0000
  H   H20       1.0  0.37680  0.18731  0.96582  1.0000
  H   H21       1.0  0.96420  0.27905  0.30029  1.0000
  H   H22       1.0  0.53579  0.77905  0.19971  1.0000
  H   H23       1.0  0.03580  0.72094  0.69971  1.0000
  H   H24       1.0  0.46422  0.22095  0.80029  1.0000
  H   H25       1.0  0.95417  0.10762  0.24082  1.0000
  H   H26       1.0  0.54583  0.60762  0.25918  1.0000
  H   H27       1.0  0.04583  0.89238  0.75918  1.0000
  H   H28       1.0  0.45418  0.39238  0.74082  1.0000
  H   H29       1.0  0.85249  0.97900  0.34682  1.0000
  H   H30       1.0  0.64750  0.47900  0.15318  1.0000
  H   H31       1.0  0.14750  0.02099  0.65318  1.0000
  H   H32       1.0  0.35250  0.52100  0.84682  1.0000
  H   H33       1.0  0.73583  0.88097  0.44359  1.0000
  H   H34       1.0  0.76419  0.38098  0.05642  1.0000
  H   H35       1.0  0.26417  0.11902  0.55642  1.0000
  H   H36       1.0  0.23582  0.61902  0.94359  1.0000
  H   H37       1.0  0.60254  0.78242  0.56862  1.0000
  H   H38       1.0  0.89750  0.28242  0.93139  1.0000
  H   H39       1.0  0.39746  0.21759  0.43139  1.0000
  H   H40       1.0  0.10252  0.71758  0.06861  1.0000
  H   H41       1.0  0.53321  0.86331  0.72167  1.0000
  H   H42       1.0  0.96681  0.36331  0.77834  1.0000
  H   H43       1.0  0.46679  0.13669  0.27834  1.0000
  H   H44       1.0  0.03319  0.63669  0.22166  1.0000
  H   H45       1.0  0.59621  0.03804  0.74259  1.0000
  H   H46       1.0  0.90379  0.53803  0.75741  1.0000
  H   H47       1.0  0.40379  0.96197  0.25741  1.0000
  H   H48       1.0  0.09621  0.46197  0.24259  1.0000
  C   C1        1.0  0.87328  0.24036  0.43615  1.0000
  C   C2        1.0  0.62671  0.74035  0.06385  1.0000
  C   C3        1.0  0.12671  0.75964  0.56385  1.0000
  C   C4        1.0  0.37329  0.25965  0.93615  1.0000
  C   C5        1.0  0.92117  0.22064  0.34455  1.0000
  C   C6        1.0  0.57882  0.72064  0.15545  1.0000
  C   C7        1.0  0.07883  0.77936  0.65545  1.0000
  C   C8        1.0  0.42118  0.27936  0.84455  1.0000
  C   C9        1.0  0.91533  0.12589  0.31155  1.0000
  C   C10       1.0  0.58467  0.62588  0.18845  1.0000
  C   C11       1.0  0.08467  0.87411  0.68845  1.0000
  C   C12       1.0  0.41534  0.37412  0.81155  1.0000
  C   C13       1.0  0.85762  0.05376  0.37038  1.0000
  C   C14       1.0  0.64238  0.55376  0.12962  1.0000
  C   C15       1.0  0.14238  0.94624  0.62962  1.0000
  C   C16       1.0  0.35763  0.44624  0.87038  1.0000
  C   C17       1.0  0.81009  0.07778  0.46110  1.0000
  C   C18       1.0  0.68991  0.57778  0.03890  1.0000
  C   C19       1.0  0.18992  0.92222  0.53890  1.0000
  C   C20       1.0  0.31009  0.42222  0.96110  1.0000
  C   C21       1.0  0.74116  0.01049  0.52850  1.0000
  C   C22       1.0  0.75884  0.51048  0.97150  1.0000
  C   C23       1.0  0.25884  0.98951  0.47150  1.0000
  C   C24       1.0  0.24116  0.48951  0.02850  1.0000
  C   C25       1.0  0.70606  0.91308  0.51109  1.0000
  C   C26       1.0  0.79396  0.41308  0.98892  1.0000
  C   C27       1.0  0.29394  0.08692  0.48892  1.0000
  C   C28       1.0  0.20605  0.58692  0.01108  1.0000
  C   C29       1.0  0.63251  0.85828  0.58086  1.0000
  C   C30       1.0  0.86751  0.35828  0.91915  1.0000
  C   C31       1.0  0.36749  0.14172  0.41915  1.0000
  C   C32       1.0  0.13249  0.64172  0.08085  1.0000
  C   C33       1.0  0.59181  0.90281  0.66527  1.0000
  C   C34       1.0  0.90820  0.40280  0.83474  1.0000
  C   C35       1.0  0.40818  0.09720  0.33474  1.0000
  C   C36       1.0  0.09180  0.59719  0.16526  1.0000
  C   C37       1.0  0.62914  0.00022  0.67861  1.0000
  C   C38       1.0  0.87086  0.50022  0.82139  1.0000
  C   C39       1.0  0.37086  0.99978  0.32139  1.0000
  C   C40       1.0  0.12913  0.49978  0.17861  1.0000
  C   C41       1.0  0.96100  0.15410  0.76734  1.0000
  C   C42       1.0  0.53900  0.65410  0.73266  1.0000
  C   C43       1.0  0.03901  0.84590  0.23266  1.0000
  C   C44       1.0  0.46099  0.34590  0.26734  1.0000
  C   C45       1.0  0.62968  0.33401  0.60415  1.0000
  C   C46       1.0  0.87032  0.83400  0.89585  1.0000
  C   C47       1.0  0.37033  0.66599  0.39585  1.0000
  C   C48       1.0  0.12967  0.16599  0.10415  1.0000
  N   N1        1.0  0.82047  0.17034  0.49368  1.0000
  N   N2        1.0  0.67953  0.67034  0.00632  1.0000
  N   N3        1.0  0.17954  0.82966  0.50632  1.0000
  N   N4        1.0  0.32047  0.32966  0.99368  1.0000
  N   N5        1.0  0.70529  0.05262  0.61244  1.0000
  N   N6        1.0  0.79471  0.55261  0.88756  1.0000
  N   N7        1.0  0.29471  0.94739  0.38756  1.0000
  N   N8        1.0  0.20529  0.44739  0.11244  1.0000
  O   O1        1.0  0.01784  0.15518  0.67983  1.0000
  O   O2        1.0  0.48216  0.65518  0.82016  1.0000
  O   O3        1.0  0.98217  0.84482  0.32017  1.0000
  O   O4        1.0  0.51783  0.34482  0.17984  1.0000
  O   O5        1.0  0.78720  0.17803  0.76305  1.0000
  O   O6        1.0  0.71279  0.67803  0.73695  1.0000
  O   O7        1.0  0.21281  0.82197  0.23695  1.0000
  O   O8        1.0  0.28719  0.32197  0.26305  1.0000
  O   O9        1.0  0.05654  0.13196  0.84216  1.0000
  O   O10       1.0  0.44345  0.63196  0.65784  1.0000
  O   O11       1.0  0.94346  0.86804  0.15784  1.0000
  O   O12       1.0  0.55653  0.36804  0.34216  1.0000
  O   O13       1.0  0.54333  0.24981  0.60093  1.0000
  O   O14       1.0  0.95667  0.74981  0.89907  1.0000
  O   O15       1.0  0.45667  0.75019  0.39907  1.0000
  O   O16       1.0  0.04333  0.25019  0.10092  1.0000
  O   O17       1.0  0.80594  0.32143  0.62284  1.0000
  O   O18       1.0  0.69407  0.82142  0.87716  1.0000
  O   O19       1.0  0.19407  0.67857  0.37715  1.0000
  O   O20       1.0  0.30593  0.17858  0.12284  1.0000
  O   O21       1.0  0.55203  0.41331  0.59107  1.0000
  O   O22       1.0  0.94797  0.91330  0.90894  1.0000
  O   O23       1.0  0.44797  0.58670  0.40894  1.0000
  O   O24       1.0  0.05202  0.08670  0.09106  1.0000
  O   O25       1.0  0.37899  0.01896  0.87468  1.0000
  O   O26       1.0  0.12100  0.51895  0.62532  1.0000
  O   O27       1.0  0.62101  0.98105  0.12532  1.0000
  O   O28       1.0  0.87899  0.48105  0.37468  1.0000
  O   O29       1.0  0.69014  0.18221  0.10352  1.0000
  O   O30       1.0  0.80986  0.68221  0.39648  1.0000
  O   O31       1.0  0.30986  0.81780  0.89648  1.0000
  O   O32       1.0  0.19014  0.31780  0.60351  1.0000
