data_image0
_chemical_formula_structural       Cu2P4H28C36N4O12
_chemical_formula_sum              "Cu2 P4 H28 C36 N4 O12"
_cell_length_a       8.60381
_cell_length_b       8.97657
_cell_length_c       12.1437
_cell_angle_alpha    99.7298
_cell_angle_beta     106.806
_cell_angle_gamma    98.2797

_space_group_name_H-M_alt    "P 1"
_space_group_IT_number       1

loop_
  _space_group_symop_operation_xyz
  'x, y, z'

loop_
  _atom_site_type_symbol
  _atom_site_label
  _atom_site_symmetry_multiplicity
  _atom_site_fract_x
  _atom_site_fract_y
  _atom_site_fract_z
  _atom_site_occupancy
  Cu  Cu1       1.0  0.32538  0.82115  0.58419  1.0000
  Cu  Cu2       1.0  0.67461  0.17885  0.41581  1.0000
  P   P1        1.0  0.32677  0.04795  0.85562  1.0000
  P   P2        1.0  0.67324  0.95206  0.14438  1.0000
  P   P3        1.0  0.66196  0.05183  0.64705  1.0000
  P   P4        1.0  0.33804  0.94816  0.35295  1.0000
  H   H1        1.0  0.41511  0.86617  0.95666  1.0000
  H   H2        1.0  0.58490  0.13383  0.04335  1.0000
  H   H3        1.0  0.45686  0.12608  0.70035  1.0000
  H   H4        1.0  0.54315  0.87393  0.29965  1.0000
  H   H5        1.0  0.99781  0.99974  0.68468  1.0000
  H   H6        1.0  0.00220  0.00026  0.31532  1.0000
  H   H7        1.0  0.71592  0.18673  0.89660  1.0000
  H   H8        1.0  0.28408  0.81327  0.10340  1.0000
  H   H9        1.0  0.96632  0.24949  0.07321  1.0000
  H   H10       1.0  0.03368  0.75051  0.92680  1.0000
  H   H11       1.0  0.23502  0.19154  0.05529  1.0000
  H   H12       1.0  0.76498  0.80846  0.94471  1.0000
  H   H13       1.0  0.97397  0.85374  0.43357  1.0000
  H   H14       1.0  0.02602  0.14625  0.56643  1.0000
  H   H15       1.0  0.68593  0.75622  0.43589  1.0000
  H   H16       1.0  0.31406  0.24377  0.56410  1.0000
  H   H17       1.0  0.64552  0.57497  0.56457  1.0000
  H   H18       1.0  0.35447  0.42502  0.43542  1.0000
  H   H19       1.0  0.78236  0.42692  0.72061  1.0000
  H   H20       1.0  0.21763  0.57306  0.27938  1.0000
  H   H21       1.0  0.03815  0.36813  0.84444  1.0000
  H   H22       1.0  0.96184  0.63187  0.15556  1.0000
  H   H23       1.0  0.35638  0.38716  0.89772  1.0000
  H   H24       1.0  0.64362  0.61284  0.10229  1.0000
  H   H25       1.0  0.61823  0.50723  0.87176  1.0000
  H   H26       1.0  0.38177  0.49278  0.12824  1.0000
  H   H27       1.0  0.61008  0.69566  0.73758  1.0000
  H   H28       1.0  0.38991  0.30434  0.26242  1.0000
  C   C1        1.0  0.13309  0.09174  0.86872  1.0000
  C   C2        1.0  0.86692  0.90826  0.13129  1.0000
  C   C3        1.0  0.99016  0.05318  0.76991  1.0000
  C   C4        1.0  0.00984  0.94682  0.23009  1.0000
  C   C5        1.0  0.83983  0.08768  0.77873  1.0000
  C   C6        1.0  0.16018  0.91232  0.22126  1.0000
  C   C7        1.0  0.83210  0.15890  0.88868  1.0000
  C   C8        1.0  0.16790  0.84110  0.11132  1.0000
  C   C9        1.0  0.97413  0.19576  0.98805  1.0000
  C   C10       1.0  0.02587  0.80424  0.01195  1.0000
  C   C11       1.0  0.12390  0.16322  0.97814  1.0000
  C   C12       1.0  0.87610  0.83678  0.02186  1.0000
  C   C13       1.0  0.95159  0.77615  0.48972  1.0000
  C   C14       1.0  0.04840  0.22384  0.51028  1.0000
  C   C15       1.0  0.79097  0.71923  0.49061  1.0000
  C   C16       1.0  0.20902  0.28076  0.50939  1.0000
  C   C17       1.0  0.76933  0.62000  0.56307  1.0000
  C   C18       1.0  0.23066  0.37998  0.43693  1.0000
  C   C19       1.0  0.90859  0.57783  0.63617  1.0000
  C   C20       1.0  0.09141  0.42216  0.36382  1.0000
  C   C21       1.0  0.06522  0.64052  0.62918  1.0000
  C   C22       1.0  0.93478  0.35948  0.37082  1.0000
  C   C23       1.0  0.90278  0.47798  0.71608  1.0000
  C   C24       1.0  0.09722  0.52202  0.28391  1.0000
  C   C25       1.0  0.04454  0.44341  0.78377  1.0000
  C   C26       1.0  0.95546  0.55659  0.21623  1.0000
  C   C27       1.0  0.20380  0.50256  0.77587  1.0000
  C   C28       1.0  0.79620  0.49745  0.22413  1.0000
  C   C29       1.0  0.21237  0.60222  0.69839  1.0000
  C   C30       1.0  0.78763  0.39778  0.30161  1.0000
  C   C31       1.0  0.35437  0.46710  0.83911  1.0000
  C   C32       1.0  0.64563  0.53290  0.16089  1.0000
  C   C33       1.0  0.50056  0.53298  0.82431  1.0000
  C   C34       1.0  0.49944  0.46703  0.17569  1.0000
  C   C35       1.0  0.49799  0.63531  0.74842  1.0000
  C   C36       1.0  0.50201  0.36470  0.25158  1.0000
  N   N1        1.0  0.08466  0.73758  0.55752  1.0000
  N   N2        1.0  0.91534  0.26242  0.44248  1.0000
  N   N3        1.0  0.35686  0.66698  0.68599  1.0000
  N   N4        1.0  0.64314  0.33302  0.31401  1.0000
  O   O1        1.0  0.31802  0.04165  0.72683  1.0000
  O   O2        1.0  0.68198  0.95836  0.27317  1.0000
  O   O3        1.0  0.32439  0.88199  0.88155  1.0000
  O   O4        1.0  0.67563  0.11802  0.11845  1.0000
  O   O5        1.0  0.46932  0.16850  0.94634  1.0000
  O   O6        1.0  0.53068  0.83151  0.05367  1.0000
  O   O7        1.0  0.56550  0.88644  0.62746  1.0000
  O   O8        1.0  0.43450  0.11356  0.37254  1.0000
  O   O9        1.0  0.55422  0.17384  0.67236  1.0000
  O   O10       1.0  0.44578  0.82616  0.32763  1.0000
  O   O11       1.0  0.73253  0.08105  0.54918  1.0000
  O   O12       1.0  0.26747  0.91895  0.45082  1.0000
