data_image0
_chemical_formula_structural       Cd2Ag2H34C50S6N12
_chemical_formula_sum              "Cd2 Ag2 H34 C50 S6 N12"
_cell_length_a       9.9897
_cell_length_b       10.7843
_cell_length_c       13.0148
_cell_angle_alpha    72.2988
_cell_angle_beta     68.8927
_cell_angle_gamma    86.5421

_space_group_name_H-M_alt    "P 1"
_space_group_IT_number       1

loop_
  _space_group_symop_operation_xyz
  'x, y, z'

loop_
  _atom_site_type_symbol
  _atom_site_label
  _atom_site_symmetry_multiplicity
  _atom_site_fract_x
  _atom_site_fract_y
  _atom_site_fract_z
  _atom_site_occupancy
  Cd  Cd1       1.0  0.34178  0.60409  0.72951  1.0000
  Cd  Cd2       1.0  0.65822  0.39591  0.27048  1.0000
  Ag  Ag1       1.0  0.09920  0.65535  0.42900  1.0000
  Ag  Ag2       1.0  0.90080  0.34465  0.57099  1.0000
  H   H1        1.0  0.12326  0.40066  0.95270  1.0000
  H   H2        1.0  0.87674  0.59933  0.04730  1.0000
  H   H3        1.0  0.04414  0.32441  0.16936  1.0000
  H   H4        1.0  0.95586  0.67558  0.83064  1.0000
  H   H5        1.0  0.16657  0.42886  0.26330  1.0000
  H   H6        1.0  0.83343  0.57114  0.73670  1.0000
  H   H7        1.0  0.35986  0.60176  0.13863  1.0000
  H   H8        1.0  0.64013  0.39825  0.86137  1.0000
  H   H9        1.0  0.52439  0.73610  0.02736  1.0000
  H   H10       1.0  0.47561  0.26389  0.97264  1.0000
  H   H11       1.0  0.56907  0.91079  0.05939  1.0000
  H   H12       1.0  0.43093  0.08921  0.94061  1.0000
  H   H13       1.0  0.69912  0.05723  0.10860  1.0000
  H   H14       1.0  0.30087  0.94276  0.89140  1.0000
  H   H15       1.0  0.97176  0.29414  0.90811  1.0000
  H   H16       1.0  0.02824  0.70585  0.09189  1.0000
  H   H17       1.0  0.06020  0.16561  0.97452  1.0000
  H   H18       1.0  0.93980  0.83438  0.02548  1.0000
  H   H19       1.0  0.89212  0.21037  0.05913  1.0000
  H   H20       1.0  0.10788  0.78962  0.94087  1.0000
  H   H21       1.0  0.04003  0.12567  0.77793  1.0000
  H   H22       1.0  0.95997  0.87432  0.22207  1.0000
  H   H23       1.0  0.91375  0.97657  0.72817  1.0000
  H   H24       1.0  0.08625  0.02343  0.27184  1.0000
  H   H25       1.0  0.74171  0.96035  0.67179  1.0000
  H   H26       1.0  0.25829  0.03966  0.32821  1.0000
  H   H27       1.0  0.75171  0.99738  0.50573  1.0000
  H   H28       1.0  0.24829  0.00262  0.49427  1.0000
  H   H29       1.0  0.76677  0.02079  0.30727  1.0000
  H   H30       1.0  0.23323  0.97921  0.69273  1.0000
  H   H31       1.0  0.61816  0.86235  0.27568  1.0000
  H   H32       1.0  0.38185  0.13765  0.72432  1.0000
  H   H33       1.0  0.45579  0.69529  0.44906  1.0000
  H   H34       1.0  0.54422  0.30471  0.55094  1.0000
  C   C1        1.0  0.17242  0.44209  0.99830  1.0000
  C   C2        1.0  0.82759  0.55790  0.00170  1.0000
  C   C3        1.0  0.12977  0.39987  0.11822  1.0000
  C   C4        1.0  0.87023  0.60012  0.88178  1.0000
  C   C5        1.0  0.19793  0.45843  0.16952  1.0000
  C   C6        1.0  0.80208  0.54157  0.83048  1.0000
  C   C7        1.0  0.30671  0.55488  0.09961  1.0000
  C   C8        1.0  0.69329  0.44513  0.90039  1.0000
  C   C9        1.0  0.34412  0.59237  0.97958  1.0000
  C   C10       1.0  0.65588  0.40763  0.02042  1.0000
  C   C11       1.0  0.45863  0.69525  0.89913  1.0000
  C   C12       1.0  0.54137  0.30475  0.10087  1.0000
  C   C13       1.0  0.54077  0.76035  0.93604  1.0000
  C   C14       1.0  0.45923  0.23965  0.06396  1.0000
  C   C15       1.0  0.64540  0.85752  0.85433  1.0000
  C   C16       1.0  0.35460  0.14248  0.14568  1.0000
  C   C17       1.0  0.73027  0.93329  0.88920  1.0000
  C   C18       1.0  0.26973  0.06671  0.11080  1.0000
  C   C19       1.0  0.67395  0.95500  0.99765  1.0000
  C   C20       1.0  0.32605  0.04500  0.00235  1.0000
  C   C21       1.0  0.74695  0.03887  0.02523  1.0000
  C   C22       1.0  0.25304  0.96113  0.97477  1.0000
  C   C23       1.0  0.87840  0.10354  0.94680  1.0000
  C   C24       1.0  0.12159  0.89646  0.05321  1.0000
  C   C25       1.0  0.95390  0.19842  0.97424  1.0000
  C   C26       1.0  0.04610  0.80158  0.02577  1.0000
  C   C27       1.0  0.93717  0.07751  0.84033  1.0000
  C   C28       1.0  0.06283  0.92248  0.15968  1.0000
  C   C29       1.0  0.86525  0.99397  0.81194  1.0000
  C   C30       1.0  0.13475  0.00603  0.18806  1.0000
  C   C31       1.0  0.66371  0.88405  0.73725  1.0000
  C   C32       1.0  0.33629  0.11596  0.26275  1.0000
  C   C33       1.0  0.57953  0.81379  0.70605  1.0000
  C   C34       1.0  0.42048  0.18621  0.29394  1.0000
  C   C35       1.0  0.59426  0.83391  0.58396  1.0000
  C   C36       1.0  0.40575  0.16609  0.41604  1.0000
  C   C37       1.0  0.68726  0.93111  0.49132  1.0000
  C   C38       1.0  0.31274  0.06890  0.50868  1.0000
  C   C39       1.0  0.69638  0.94342  0.37913  1.0000
  C   C40       1.0  0.30363  0.05659  0.62087  1.0000
  C   C41       1.0  0.61382  0.85785  0.36157  1.0000
  C   C42       1.0  0.38618  0.14215  0.63843  1.0000
  C   C43       1.0  0.52290  0.76417  0.45819  1.0000
  C   C44       1.0  0.47710  0.23583  0.54181  1.0000
  C   C45       1.0  0.16638  0.44131  0.64688  1.0000
  C   C46       1.0  0.83362  0.55870  0.35310  1.0000
  C   C47       1.0  0.11327  0.78236  0.62842  1.0000
  C   C48       1.0  0.88672  0.21764  0.37157  1.0000
  C   C49       1.0  0.57103  0.35307  0.71719  1.0000
  C   C50       1.0  0.42896  0.64694  0.28281  1.0000
  S   S1        1.0  0.16033  0.41411  0.53133  1.0000
  S   S2        1.0  0.83966  0.58590  0.46865  1.0000
  S   S3        1.0  0.01564  0.82007  0.54773  1.0000
  S   S4        1.0  0.98435  0.17993  0.45227  1.0000
  S   S5        1.0  0.67819  0.23428  0.73539  1.0000
  S   S6        1.0  0.32181  0.76572  0.26460  1.0000
  N   N1        1.0  0.51291  0.75303  0.56584  1.0000
  N   N2        1.0  0.48709  0.24697  0.43416  1.0000
  N   N3        1.0  0.47932  0.72289  0.78661  1.0000
  N   N4        1.0  0.52068  0.27712  0.21339  1.0000
  N   N5        1.0  0.27575  0.53593  0.93126  1.0000
  N   N6        1.0  0.72425  0.46406  0.06874  1.0000
  N   N7        1.0  0.17442  0.46057  0.72947  1.0000
  N   N8        1.0  0.82559  0.53943  0.27052  1.0000
  N   N9        1.0  0.18092  0.75864  0.69019  1.0000
  N   N10       1.0  0.81908  0.24136  0.30981  1.0000
  N   N11       1.0  0.49260  0.43824  0.70555  1.0000
  N   N12       1.0  0.50741  0.56175  0.29445  1.0000
