data_image0
_chemical_formula_structural       Co2H28C34N4O8
_chemical_formula_sum              "Co2 H28 C34 N4 O8"
_cell_length_a       6.83465
_cell_length_b       9.42044
_cell_length_c       11.1075
_cell_angle_alpha    86.6099
_cell_angle_beta     88.727
_cell_angle_gamma    90.0534

_space_group_name_H-M_alt    "P 1"
_space_group_IT_number       1

loop_
  _space_group_symop_operation_xyz
  'x, y, z'

loop_
  _atom_site_type_symbol
  _atom_site_label
  _atom_site_symmetry_multiplicity
  _atom_site_fract_x
  _atom_site_fract_y
  _atom_site_fract_z
  _atom_site_occupancy
  Co  Co1       1.0  0.22014  0.27734  0.73783  1.0000
  Co  Co2       1.0  0.77986  0.72265  0.26217  1.0000
  H   H1        1.0  0.26600  0.84670  0.45812  1.0000
  H   H2        1.0  0.73400  0.15330  0.54188  1.0000
  H   H3        1.0  0.29527  0.66657  0.63016  1.0000
  H   H4        1.0  0.70475  0.33344  0.36985  1.0000
  H   H5        1.0  0.31558  0.61676  0.85656  1.0000
  H   H6        1.0  0.68443  0.38324  0.14343  1.0000
  H   H7        1.0  0.30296  0.70819  0.06267  1.0000
  H   H8        1.0  0.69703  0.29181  0.93733  1.0000
  H   H9        1.0  0.25215  0.91580  0.19455  1.0000
  H   H10       1.0  0.74784  0.08419  0.80544  1.0000
  H   H11       1.0  0.21344  0.18010  0.20510  1.0000
  H   H12       1.0  0.78655  0.81990  0.79490  1.0000
  H   H13       1.0  0.10042  0.20315  0.48820  1.0000
  H   H14       1.0  0.89958  0.79685  0.51180  1.0000
  H   H15       1.0  0.19836  0.08087  0.38579  1.0000
  H   H16       1.0  0.80164  0.91913  0.61422  1.0000
  H   H17       1.0  0.35490  0.20132  0.45739  1.0000
  H   H18       1.0  0.64510  0.79867  0.54262  1.0000
  H   H19       1.0  0.34119  0.42599  0.03734  1.0000
  H   H20       1.0  0.65881  0.57401  0.96267  1.0000
  H   H21       1.0  0.09993  0.40154  0.09682  1.0000
  H   H22       1.0  0.90006  0.59845  0.90318  1.0000
  H   H23       1.0  0.14201  0.42831  0.93725  1.0000
  H   H24       1.0  0.85799  0.57168  0.06275  1.0000
  H   H25       1.0  0.72980  0.51112  0.55465  1.0000
  H   H26       1.0  0.27022  0.48887  0.44534  1.0000
  H   H27       1.0  0.72401  0.59236  0.69506  1.0000
  H   H28       1.0  0.27600  0.40765  0.30494  1.0000
  C   C1        1.0  0.25007  0.02556  0.57144  1.0000
  C   C2        1.0  0.74992  0.97445  0.42857  1.0000
  C   C3        1.0  0.26816  0.87967  0.55047  1.0000
  C   C4        1.0  0.73185  0.12032  0.44952  1.0000
  C   C5        1.0  0.28465  0.77950  0.64562  1.0000
  C   C6        1.0  0.71536  0.22050  0.35438  1.0000
  C   C7        1.0  0.28161  0.82427  0.76466  1.0000
  C   C8        1.0  0.71840  0.17574  0.23534  1.0000
  C   C9        1.0  0.29601  0.72965  0.86961  1.0000
  C   C10       1.0  0.70399  0.27036  0.13039  1.0000
  C   C11       1.0  0.28752  0.77991  0.98270  1.0000
  C   C12       1.0  0.71248  0.22009  0.01729  1.0000
  C   C13       1.0  0.26325  0.92841  0.99902  1.0000
  C   C14       1.0  0.73674  0.07159  0.00099  1.0000
  C   C15       1.0  0.24880  0.98671  0.11323  1.0000
  C   C16       1.0  0.75118  0.01329  0.88677  1.0000
  C   C17       1.0  0.22657  0.13167  0.11870  1.0000
  C   C18       1.0  0.77343  0.86832  0.88130  1.0000
  C   C19       1.0  0.21846  0.22180  0.01257  1.0000
  C   C20       1.0  0.78153  0.77820  0.98742  1.0000
  C   C21       1.0  0.25287  0.02459  0.89652  1.0000
  C   C22       1.0  0.74711  0.97542  0.10348  1.0000
  C   C23       1.0  0.26349  0.97238  0.77847  1.0000
  C   C24       1.0  0.73650  0.02763  0.22153  1.0000
  C   C25       1.0  0.22457  0.13360  0.46916  1.0000
  C   C26       1.0  0.77543  0.86640  0.53084  1.0000
  C   C27       1.0  0.19786  0.37832  0.02098  1.0000
  C   C28       1.0  0.80214  0.62168  0.97903  1.0000
  C   C29       1.0  0.53908  0.40854  0.68979  1.0000
  C   C30       1.0  0.46091  0.59145  0.31021  1.0000
  C   C31       1.0  0.72445  0.48980  0.65316  1.0000
  C   C32       1.0  0.27555  0.51020  0.34684  1.0000
  C   C33       1.0  0.90775  0.40932  0.69061  1.0000
  C   C34       1.0  0.09227  0.59068  0.30938  1.0000
  N   N1        1.0  0.25149  0.07043  0.68389  1.0000
  N   N2        1.0  0.74850  0.92957  0.31610  1.0000
  N   N3        1.0  0.23074  0.16785  0.90355  1.0000
  N   N4        1.0  0.76925  0.83214  0.09645  1.0000
  O   O1        1.0  0.48076  0.40160  0.79940  1.0000
  O   O2        1.0  0.51927  0.59839  0.20061  1.0000
  O   O3        1.0  0.44146  0.34681  0.61079  1.0000
  O   O4        1.0  0.55855  0.65319  0.38918  1.0000
  O   O5        1.0  0.91242  0.27346  0.68925  1.0000
  O   O6        1.0  0.08758  0.72652  0.31076  1.0000
  O   O7        1.0  0.05821  0.47799  0.72083  1.0000
  O   O8        1.0  0.94180  0.52203  0.27917  1.0000
