data_image0
_chemical_formula_structural       Na4H24C16N12O24
_chemical_formula_sum              "Na4 H24 C16 N12 O24"
_cell_length_a       6.87787
_cell_length_b       10.5704
_cell_length_c       11.4123
_cell_angle_alpha    90.0001
_cell_angle_beta     95.0957
_cell_angle_gamma    89.9998

_space_group_name_H-M_alt    "P 1"
_space_group_IT_number       1

loop_
  _space_group_symop_operation_xyz
  'x, y, z'

loop_
  _atom_site_type_symbol
  _atom_site_label
  _atom_site_symmetry_multiplicity
  _atom_site_fract_x
  _atom_site_fract_y
  _atom_site_fract_z
  _atom_site_occupancy
  Na  Na1       1.0  0.25269  0.93055  0.99687  1.0000
  Na  Na2       1.0  0.24731  0.43055  0.50313  1.0000
  Na  Na3       1.0  0.74731  0.06945  0.00313  1.0000
  Na  Na4       1.0  0.75269  0.56945  0.49687  1.0000
  H   H1        1.0  0.10419  0.18039  0.91155  1.0000
  H   H2        1.0  0.39581  0.68039  0.58845  1.0000
  H   H3        1.0  0.89581  0.81961  0.08845  1.0000
  H   H4        1.0  0.60419  0.31961  0.41155  1.0000
  H   H5        1.0  0.01918  0.07325  0.82281  1.0000
  H   H6        1.0  0.48082  0.57326  0.67718  1.0000
  H   H7        1.0  0.98082  0.92675  0.17718  1.0000
  H   H8        1.0  0.51918  0.42674  0.32282  1.0000
  H   H9        1.0  0.51564  0.01105  0.20626  1.0000
  H   H10       1.0  0.98436  0.51105  0.29374  1.0000
  H   H11       1.0  0.48436  0.98895  0.79374  1.0000
  H   H12       1.0  0.01564  0.48895  0.70626  1.0000
  H   H13       1.0  0.42493  0.13063  0.13794  1.0000
  H   H14       1.0  0.07507  0.63063  0.36206  1.0000
  H   H15       1.0  0.57507  0.86937  0.86206  1.0000
  H   H16       1.0  0.92493  0.36937  0.63794  1.0000
  H   H17       1.0  0.16181  0.42568  0.91473  1.0000
  H   H18       1.0  0.33819  0.92568  0.58527  1.0000
  H   H19       1.0  0.83820  0.57432  0.08527  1.0000
  H   H20       1.0  0.66180  0.07432  0.41473  1.0000
  H   H21       1.0  0.51433  0.71741  0.25808  1.0000
  H   H22       1.0  0.98567  0.21741  0.24191  1.0000
  H   H23       1.0  0.48567  0.28259  0.74191  1.0000
  H   H24       1.0  0.01433  0.78259  0.75809  1.0000
  C   C1        1.0  0.32758  0.50533  0.09351  1.0000
  C   C2        1.0  0.17242  0.00534  0.40649  1.0000
  C   C3        1.0  0.67242  0.49467  0.90649  1.0000
  C   C4        1.0  0.82758  0.99466  0.59352  1.0000
  C   C5        1.0  0.29247  0.36893  0.06950  1.0000
  C   C6        1.0  0.20751  0.86892  0.43050  1.0000
  C   C7        1.0  0.70752  0.63107  0.93050  1.0000
  C   C8        1.0  0.79248  0.13107  0.56950  1.0000
  C   C9        1.0  0.27923  0.61638  0.02789  1.0000
  C   C10       1.0  0.22077  0.11638  0.47211  1.0000
  C   C11       1.0  0.72077  0.38362  0.97211  1.0000
  C   C12       1.0  0.77923  0.88362  0.52789  1.0000
  C   C13       1.0  0.17322  0.63502  0.90990  1.0000
  C   C14       1.0  0.32679  0.13503  0.59010  1.0000
  C   C15       1.0  0.82679  0.36498  0.09010  1.0000
  C   C16       1.0  0.67321  0.86497  0.40990  1.0000
  N   N1        1.0  0.35075  0.71615  0.09179  1.0000
  N   N2        1.0  0.14925  0.21615  0.40821  1.0000
  N   N3        1.0  0.64925  0.28385  0.90821  1.0000
  N   N4        1.0  0.85075  0.78385  0.59180  1.0000
  N   N5        1.0  0.42773  0.54052  0.19505  1.0000
  N   N6        1.0  0.07226  0.04052  0.30495  1.0000
  N   N7        1.0  0.57227  0.45948  0.80495  1.0000
  N   N8        1.0  0.92773  0.95948  0.69505  1.0000
  N   N9        1.0  0.43604  0.66534  0.18888  1.0000
  N   N10       1.0  0.06396  0.16534  0.31112  1.0000
  N   N11       1.0  0.56396  0.33466  0.81112  1.0000
  N   N12       1.0  0.93604  0.83466  0.68888  1.0000
  O   O1        1.0  0.11099  0.53468  0.85462  1.0000
  O   O2        1.0  0.38900  0.03468  0.64538  1.0000
  O   O3        1.0  0.88901  0.46532  0.14538  1.0000
  O   O4        1.0  0.61100  0.96532  0.35462  1.0000
  O   O5        1.0  0.14946  0.74616  0.87215  1.0000
  O   O6        1.0  0.35054  0.24615  0.62784  1.0000
  O   O7        1.0  0.85054  0.25384  0.12784  1.0000
  O   O8        1.0  0.64946  0.75384  0.37216  1.0000
  O   O9        1.0  0.47482  0.04403  0.12722  1.0000
  O   O10       1.0  0.02519  0.54403  0.37279  1.0000
  O   O11       1.0  0.52518  0.95597  0.87278  1.0000
  O   O12       1.0  0.97482  0.45597  0.62721  1.0000
  O   O13       1.0  0.20214  0.34059  0.96548  1.0000
  O   O14       1.0  0.29786  0.84059  0.53452  1.0000
  O   O15       1.0  0.79787  0.65941  0.03452  1.0000
  O   O16       1.0  0.70213  0.15941  0.46548  1.0000
  O   O17       1.0  0.05362  0.09369  0.90636  1.0000
  O   O18       1.0  0.44638  0.59370  0.59364  1.0000
  O   O19       1.0  0.94638  0.90630  0.09364  1.0000
  O   O20       1.0  0.55362  0.40630  0.40636  1.0000
  O   O21       1.0  0.34776  0.28853  0.14352  1.0000
  O   O22       1.0  0.15224  0.78854  0.35649  1.0000
  O   O23       1.0  0.65225  0.71147  0.85648  1.0000
  O   O24       1.0  0.84776  0.21146  0.64351  1.0000
