data_image0
_chemical_formula_structural       Cd2H32C32N16Cl4
_chemical_formula_sum              "Cd2 H32 C32 N16 Cl4"
_cell_length_a       7.5341
_cell_length_b       8.09911
_cell_length_c       16.9944
_cell_angle_alpha    90.0001
_cell_angle_beta     90
_cell_angle_gamma    112.906

_space_group_name_H-M_alt    "P 1"
_space_group_IT_number       1

loop_
  _space_group_symop_operation_xyz
  'x, y, z'

loop_
  _atom_site_type_symbol
  _atom_site_label
  _atom_site_symmetry_multiplicity
  _atom_site_fract_x
  _atom_site_fract_y
  _atom_site_fract_z
  _atom_site_occupancy
  Cd  Cd1       1.0  1.00000  1.00000  0.50000  1.0000
  Cd  Cd2       1.0  0.00000  0.50000  0.00000  1.0000
  H   H1        1.0  0.50161  0.84484  0.45179  1.0000
  H   H2        1.0  0.49839  0.65516  0.95179  1.0000
  H   H3        1.0  0.49839  0.15516  0.54821  1.0000
  H   H4        1.0  0.50161  0.34484  0.04821  1.0000
  H   H5        1.0  0.19139  0.60009  0.41386  1.0000
  H   H6        1.0  0.80861  0.89991  0.91386  1.0000
  H   H7        1.0  0.80861  0.39991  0.58614  1.0000
  H   H8        1.0  0.19139  0.10009  0.08614  1.0000
  H   H9        1.0  0.18446  0.38116  0.40228  1.0000
  H   H10       1.0  0.81554  0.11884  0.90229  1.0000
  H   H11       1.0  0.81554  0.61883  0.59772  1.0000
  H   H12       1.0  0.18446  0.88117  0.09772  1.0000
  H   H13       1.0  0.50384  0.59260  0.24967  1.0000
  H   H14       1.0  0.49616  0.90740  0.74966  1.0000
  H   H15       1.0  0.49616  0.40740  0.75034  1.0000
  H   H16       1.0  0.50384  0.09260  0.25033  1.0000
  H   H17       1.0  0.40781  0.59520  0.10989  1.0000
  H   H18       1.0  0.59219  0.90480  0.60988  1.0000
  H   H19       1.0  0.59219  0.40480  0.89011  1.0000
  H   H20       1.0  0.40782  0.09520  0.39011  1.0000
  H   H21       1.0  0.83883  0.47539  0.17118  1.0000
  H   H22       1.0  0.16117  0.02462  0.67118  1.0000
  H   H23       1.0  0.16117  0.52461  0.82882  1.0000
  H   H24       1.0  0.83883  0.97539  0.32882  1.0000
  H   H25       1.0  0.90774  0.45456  0.31366  1.0000
  H   H26       1.0  0.09226  0.04544  0.81366  1.0000
  H   H27       1.0  0.09226  0.54543  0.68634  1.0000
  H   H28       1.0  0.90774  0.95457  0.18634  1.0000
  H   H29       1.0  0.85173  0.54979  0.43138  1.0000
  H   H30       1.0  0.14827  0.95021  0.93138  1.0000
  H   H31       1.0  0.14827  0.45021  0.56862  1.0000
  H   H32       1.0  0.85173  0.04979  0.06862  1.0000
  C   C1        1.0  0.55882  0.74492  0.43671  1.0000
  C   C2        1.0  0.44117  0.75508  0.93671  1.0000
  C   C3        1.0  0.44118  0.25507  0.56329  1.0000
  C   C4        1.0  0.55882  0.24493  0.06329  1.0000
  C   C5        1.0  0.25379  0.51933  0.38028  1.0000
  C   C6        1.0  0.74621  0.98067  0.88028  1.0000
  C   C7        1.0  0.74622  0.48067  0.61972  1.0000
  C   C8        1.0  0.25379  0.01933  0.11972  1.0000
  C   C9        1.0  0.21341  0.52464  0.29378  1.0000
  C   C10       1.0  0.78659  0.97536  0.79378  1.0000
  C   C11       1.0  0.78659  0.47536  0.70622  1.0000
  C   C12       1.0  0.21341  0.02464  0.20622  1.0000
  C   C13       1.0  0.35384  0.56367  0.23518  1.0000
  C   C14       1.0  0.64616  0.93632  0.73518  1.0000
  C   C15       1.0  0.64616  0.43632  0.76482  1.0000
  C   C16       1.0  0.35384  0.06368  0.26482  1.0000
  C   C17       1.0  0.30038  0.56468  0.15661  1.0000
  C   C18       1.0  0.69962  0.93532  0.65661  1.0000
  C   C19       1.0  0.69962  0.43532  0.84339  1.0000
  C   C20       1.0  0.30038  0.06468  0.34339  1.0000
  C   C21       1.0  0.98360  0.49657  0.19125  1.0000
  C   C22       1.0  0.01640  0.00344  0.69125  1.0000
  C   C23       1.0  0.01641  0.50343  0.80875  1.0000
  C   C24       1.0  0.98359  0.99657  0.30875  1.0000
  C   C25       1.0  0.02351  0.48859  0.27050  1.0000
  C   C26       1.0  0.97649  0.01141  0.77050  1.0000
  C   C27       1.0  0.97649  0.51140  0.72950  1.0000
  C   C28       1.0  0.02351  0.98860  0.22950  1.0000
  C   C29       1.0  0.73178  0.59127  0.42512  1.0000
  C   C30       1.0  0.26822  0.90873  0.92512  1.0000
  C   C31       1.0  0.26822  0.40872  0.57488  1.0000
  C   C32       1.0  0.73178  0.09127  0.07488  1.0000
  N   N1        1.0  0.56436  0.48720  0.39342  1.0000
  N   N2        1.0  0.43563  0.01280  0.89342  1.0000
  N   N3        1.0  0.43564  0.51280  0.60658  1.0000
  N   N4        1.0  0.56436  0.98720  0.10658  1.0000
  N   N5        1.0  0.73480  0.75094  0.45241  1.0000
  N   N6        1.0  0.26519  0.74906  0.95241  1.0000
  N   N7        1.0  0.26520  0.24905  0.54759  1.0000
  N   N8        1.0  0.73480  0.25095  0.04759  1.0000
  N   N9        1.0  0.45601  0.58775  0.40149  1.0000
  N   N10       1.0  0.54398  0.91225  0.90149  1.0000
  N   N11       1.0  0.54399  0.41225  0.59851  1.0000
  N   N12       1.0  0.45601  0.08775  0.09851  1.0000
  N   N13       1.0  0.11859  0.53222  0.13471  1.0000
  N   N14       1.0  0.88141  0.96778  0.63471  1.0000
  N   N15       1.0  0.88141  0.46777  0.86529  1.0000
  N   N16       1.0  0.11860  0.03223  0.36529  1.0000
  Cl  Cl1       1.0  0.80831  0.19834  0.46414  1.0000
  Cl  Cl2       1.0  0.19169  0.30166  0.96414  1.0000
  Cl  Cl3       1.0  0.19169  0.80166  0.53586  1.0000
  Cl  Cl4       1.0  0.80831  0.69834  0.03586  1.0000
