data_image0
_chemical_formula_structural       U4H54C60N6Cl4O22
_chemical_formula_sum              "U4 H54 C60 N6 Cl4 O22"
_cell_length_a       11.1462
_cell_length_b       11.7825
_cell_length_c       12.9544
_cell_angle_alpha    87.5577
_cell_angle_beta     78.2374
_cell_angle_gamma    78.2539

_space_group_name_H-M_alt    "P 1"
_space_group_IT_number       1

loop_
  _space_group_symop_operation_xyz
  'x, y, z'

loop_
  _atom_site_type_symbol
  _atom_site_label
  _atom_site_symmetry_multiplicity
  _atom_site_fract_x
  _atom_site_fract_y
  _atom_site_fract_z
  _atom_site_occupancy
  U   U1        1.0  0.96438  0.24871  0.34387  1.0000
  U   U2        1.0  0.03562  0.75129  0.65613  1.0000
  U   U3        1.0  0.86690  0.07332  0.60232  1.0000
  U   U4        1.0  0.13310  0.92668  0.39768  1.0000
  H   H1        1.0  0.47188  0.46650  0.60470  1.0000
  H   H2        1.0  0.52812  0.53350  0.39530  1.0000
  H   H3        1.0  0.44522  0.63828  0.72010  1.0000
  H   H4        1.0  0.55478  0.36172  0.27990  1.0000
  H   H5        1.0  0.82986  0.58818  0.70177  1.0000
  H   H6        1.0  0.17014  0.41182  0.29823  1.0000
  H   H7        1.0  0.86882  0.41196  0.58602  1.0000
  H   H8        1.0  0.13118  0.58804  0.41398  1.0000
  H   H9        1.0  0.37221  0.32938  0.79370  1.0000
  H   H10       1.0  0.62778  0.67063  0.20630  1.0000
  H   H11       1.0  0.38999  0.11329  0.78246  1.0000
  H   H12       1.0  0.61001  0.88671  0.21754  1.0000
  H   H13       1.0  0.17819  0.15268  0.54901  1.0000
  H   H14       1.0  0.82181  0.84732  0.45099  1.0000
  H   H15       1.0  0.14828  0.36866  0.55406  1.0000
  H   H16       1.0  0.85172  0.63134  0.44593  1.0000
  H   H17       1.0  0.19136  0.47177  0.91787  1.0000
  H   H18       1.0  0.80864  0.52823  0.08213  1.0000
  H   H19       1.0  0.23258  0.67126  0.88659  1.0000
  H   H20       1.0  0.76743  0.32874  0.11341  1.0000
  H   H21       1.0  0.08728  0.75992  0.20308  1.0000
  H   H22       1.0  0.91272  0.24008  0.79692  1.0000
  H   H23       1.0  0.02867  0.56565  0.24134  1.0000
  H   H24       1.0  0.97133  0.43434  0.75865  1.0000
  H   H25       1.0  0.65440  0.67770  0.85928  1.0000
  H   H26       1.0  0.34560  0.32229  0.14072  1.0000
  H   H27       1.0  0.69580  0.76626  0.75071  1.0000
  H   H28       1.0  0.30420  0.23375  0.24929  1.0000
  H   H29       1.0  0.39587  0.69920  0.06553  1.0000
  H   H30       1.0  0.60413  0.30080  0.93447  1.0000
  H   H31       1.0  0.54959  0.71005  0.00807  1.0000
  H   H32       1.0  0.45041  0.28995  0.99193  1.0000
  H   H33       1.0  0.48125  0.60425  0.96116  1.0000
  H   H34       1.0  0.51875  0.39574  0.03884  1.0000
  H   H35       1.0  0.24803  0.84220  0.10051  1.0000
  H   H36       1.0  0.75197  0.15780  0.89949  1.0000
  H   H37       1.0  0.12055  0.90076  0.04034  1.0000
  H   H38       1.0  0.87945  0.09924  0.95967  1.0000
  H   H39       1.0  0.09971  0.05086  0.80742  1.0000
  H   H40       1.0  0.90029  0.94914  0.19258  1.0000
  H   H41       1.0  0.11272  0.05945  0.94070  1.0000
  H   H42       1.0  0.88728  0.94055  0.05931  1.0000
  H   H43       1.0  0.05203  0.94481  0.89615  1.0000
  H   H44       1.0  0.94797  0.05519  0.10385  1.0000
  H   H45       1.0  0.18798  0.99225  0.66665  1.0000
  H   H46       1.0  0.81202  0.00775  0.33335  1.0000
  H   H47       1.0  0.33821  0.96938  0.58934  1.0000
  H   H48       1.0  0.66178  0.03062  0.41066  1.0000
  H   H49       1.0  0.63782  0.84299  0.62830  1.0000
  H   H50       1.0  0.36218  0.15700  0.37170  1.0000
  H   H51       1.0  0.53276  0.96644  0.60148  1.0000
  H   H52       1.0  0.46724  0.03356  0.39852  1.0000
  H   H53       1.0  0.51154  0.82739  0.56858  1.0000
  H   H54       1.0  0.48846  0.17261  0.43143  1.0000
  C   C1        1.0  0.68618  0.31993  0.52111  1.0000
  C   C2        1.0  0.31383  0.68007  0.47889  1.0000
  C   C3        1.0  0.67151  0.42544  0.58840  1.0000
  C   C4        1.0  0.32849  0.57456  0.41160  1.0000
  C   C5        1.0  0.55266  0.49089  0.62529  1.0000
  C   C6        1.0  0.44734  0.50911  0.37471  1.0000
  C   C7        1.0  0.53685  0.58603  0.68925  1.0000
  C   C8        1.0  0.46315  0.41397  0.31074  1.0000
  C   C9        1.0  0.75487  0.55571  0.67825  1.0000
  C   C10       1.0  0.24513  0.44429  0.32175  1.0000
  C   C11       1.0  0.77432  0.45993  0.61493  1.0000
  C   C12       1.0  0.22568  0.54007  0.38507  1.0000
  C   C13       1.0  0.23152  0.49664  0.69102  1.0000
  C   C14       1.0  0.76848  0.50336  0.30898  1.0000
  C   C15       1.0  0.25467  0.36606  0.67768  1.0000
  C   C16       1.0  0.74533  0.63394  0.32232  1.0000
  C   C17       1.0  0.32633  0.29323  0.74019  1.0000
  C   C18       1.0  0.67366  0.70677  0.25981  1.0000
  C   C19       1.0  0.33767  0.17453  0.73462  1.0000
  C   C20       1.0  0.66233  0.82547  0.26538  1.0000
  C   C21       1.0  0.21703  0.19682  0.60238  1.0000
  C   C22       1.0  0.78297  0.80318  0.39762  1.0000
  C   C23       1.0  0.20251  0.31599  0.60612  1.0000
  C   C24       1.0  0.79749  0.68401  0.39388  1.0000
  C   C25       1.0  0.09086  0.37710  0.10356  1.0000
  C   C26       1.0  0.90913  0.62290  0.89644  1.0000
  C   C27       1.0  0.11079  0.50099  0.08328  1.0000
  C   C28       1.0  0.88921  0.49901  0.91672  1.0000
  C   C29       1.0  0.16647  0.53292  0.98285  1.0000
  C   C30       1.0  0.83353  0.46708  0.01715  1.0000
  C   C31       1.0  0.19173  0.64315  0.96459  1.0000
  C   C32       1.0  0.80828  0.35685  0.03540  1.0000
  C   C33       1.0  0.10657  0.69329  0.14241  1.0000
  C   C34       1.0  0.89343  0.30671  0.85759  1.0000
  C   C35       1.0  0.07654  0.58518  0.16273  1.0000
  C   C36       1.0  0.92346  0.41482  0.83726  1.0000
  C   C37       1.0  0.49657  0.79020  0.81137  1.0000
  C   C38       1.0  0.50343  0.20980  0.18863  1.0000
  C   C39       1.0  0.41674  0.77942  0.90934  1.0000
  C   C40       1.0  0.58326  0.22058  0.09066  1.0000
  C   C41       1.0  0.29456  0.84723  0.92925  1.0000
  C   C42       1.0  0.70544  0.15277  0.07075  1.0000
  C   C43       1.0  0.25258  0.92557  0.85269  1.0000
  C   C44       1.0  0.74742  0.07443  0.14731  1.0000
  C   C45       1.0  0.33308  0.93311  0.75474  1.0000
  C   C46       1.0  0.66692  0.06689  0.24526  1.0000
  C   C47       1.0  0.45579  0.86726  0.73365  1.0000
  C   C48       1.0  0.54420  0.13274  0.26635  1.0000
  C   C49       1.0  0.62535  0.71616  0.78766  1.0000
  C   C50       1.0  0.37466  0.28384  0.21234  1.0000
  C   C51       1.0  0.46218  0.69403  0.99014  1.0000
  C   C52       1.0  0.53782  0.30596  0.00986  1.0000
  C   C53       1.0  0.20626  0.83448  0.03159  1.0000
  C   C54       1.0  0.79374  0.16552  0.96841  1.0000
  C   C55       1.0  0.12276  0.99910  0.87540  1.0000
  C   C56       1.0  0.87724  0.00090  0.12460  1.0000
  C   C57       1.0  0.28403  0.00106  0.66640  1.0000
  C   C58       1.0  0.71597  0.99894  0.33361  1.0000
  C   C59       1.0  0.53892  0.87611  0.62777  1.0000
  C   C60       1.0  0.46107  0.12389  0.37224  1.0000
  N   N1        1.0  0.63744  0.61629  0.71521  1.0000
  N   N2        1.0  0.36257  0.38371  0.28479  1.0000
  N   N3        1.0  0.16604  0.71957  0.04481  1.0000
  N   N4        1.0  0.83396  0.28043  0.95519  1.0000
  N   N5        1.0  0.28099  0.12862  0.66826  1.0000
  N   N6        1.0  0.71901  0.87138  0.33174  1.0000
  Cl  Cl1       1.0  0.15931  0.08272  0.22627  1.0000
  Cl  Cl2       1.0  0.84069  0.91728  0.77373  1.0000
  Cl  Cl3       1.0  0.66597  0.19751  0.74119  1.0000
  Cl  Cl4       1.0  0.33403  0.80249  0.25881  1.0000
  O   O1        1.0  0.79925  0.25488  0.50457  1.0000
  O   O2        1.0  0.20075  0.74512  0.49543  1.0000
  O   O3        1.0  0.59660  0.30162  0.48684  1.0000
  O   O4        1.0  0.40341  0.69838  0.51316  1.0000
  O   O5        1.0  0.05613  0.35420  0.20267  1.0000
  O   O6        1.0  0.94387  0.64580  0.79733  1.0000
  O   O7        1.0  0.11127  0.31009  0.02799  1.0000
  O   O8        1.0  0.88872  0.68992  0.97200  1.0000
  O   O9        1.0  0.15642  0.55510  0.63541  1.0000
  O   O10       1.0  0.84358  0.44490  0.36458  1.0000
  O   O11       1.0  0.28394  0.53507  0.75429  1.0000
  O   O12       1.0  0.71606  0.46493  0.24571  1.0000
  O   O13       1.0  0.06873  0.29549  0.41842  1.0000
  O   O14       1.0  0.93127  0.70452  0.58157  1.0000
  O   O15       1.0  0.86046  0.21021  0.26632  1.0000
  O   O16       1.0  0.13953  0.78979  0.73368  1.0000
  O   O17       1.0  0.96938  0.14247  0.66295  1.0000
  O   O18       1.0  0.03063  0.85753  0.33705  1.0000
  O   O19       1.0  0.75731  0.00661  0.55113  1.0000
  O   O20       1.0  0.24269  0.99339  0.44887  1.0000
  O   O21       1.0  0.98232  0.08442  0.43494  1.0000
  O   O22       1.0  0.01768  0.91558  0.56505  1.0000
