data_image0
_chemical_formula_structural       Cs2H20C10Cl2O10
_chemical_formula_sum              "Cs2 H20 C10 Cl2 O10"
_cell_length_a       5.36424
_cell_length_b       7.60826
_cell_length_c       11.8227
_cell_angle_alpha    96.0771
_cell_angle_beta     102.781
_cell_angle_gamma    91.6076

_space_group_name_H-M_alt    "P 1"
_space_group_IT_number       1

loop_
  _space_group_symop_operation_xyz
  'x, y, z'

loop_
  _atom_site_type_symbol
  _atom_site_label
  _atom_site_symmetry_multiplicity
  _atom_site_fract_x
  _atom_site_fract_y
  _atom_site_fract_z
  _atom_site_occupancy
  Cs  Cs1       1.0  0.69557  0.18986  0.03697  1.0000
  Cs  Cs2       1.0  0.71036  0.49739  0.52927  1.0000
  H   H1        1.0  0.03313  0.19303  0.43311  1.0000
  H   H2        1.0  0.04880  0.32357  0.85560  1.0000
  H   H3        1.0  0.35971  0.23255  0.30812  1.0000
  H   H4        1.0  0.79796  0.54278  0.23931  1.0000
  H   H5        1.0  0.79402  0.91707  0.41436  1.0000
  H   H6        1.0  0.59242  0.68790  0.95893  1.0000
  H   H7        1.0  0.39569  0.42521  0.72775  1.0000
  H   H8        1.0  0.24316  0.58364  0.01112  1.0000
  H   H9        1.0  0.83920  0.76387  0.80383  1.0000
  H   H10       1.0  0.74077  0.90916  0.22123  1.0000
  H   H11       1.0  0.47647  0.15079  0.72595  1.0000
  H   H12       1.0  0.23263  0.93978  0.29839  1.0000
  H   H13       1.0  0.35267  0.60749  0.22173  1.0000
  H   H14       1.0  0.89591  0.16259  0.69435  1.0000
  H   H15       1.0  0.23741  0.88298  0.80665  1.0000
  H   H16       1.0  0.40512  0.09209  0.51467  1.0000
  H   H17       1.0  0.03405  0.86988  0.98445  1.0000
  H   H18       1.0  0.99492  0.78034  0.11381  1.0000
  H   H19       1.0  0.21006  0.78394  0.49589  1.0000
  H   H20       1.0  0.43191  0.84545  0.63375  1.0000
  C   C1        1.0  0.33849  0.70929  0.05798  1.0000
  C   C2        1.0  0.58615  0.84953  0.25528  1.0000
  C   C3        1.0  0.28543  0.17728  0.67456  1.0000
  C   C4        1.0  0.37707  0.98412  0.25153  1.0000
  C   C5        1.0  0.48642  0.67589  0.17951  1.0000
  C   C6        1.0  0.08518  0.12578  0.74133  1.0000
  C   C7        1.0  0.06525  0.92601  0.74741  1.0000
  C   C8        1.0  0.24580  0.06462  0.55649  1.0000
  C   C9        1.0  0.13439  0.83853  0.07051  1.0000
  C   C10       1.0  0.24476  0.87133  0.57851  1.0000
  Cl  Cl1       1.0  0.10253  0.40631  0.34336  1.0000
  Cl  Cl2       1.0  0.75992  0.51020  0.84347  1.0000
  O   O1        1.0  0.00624  0.09641  0.48047  1.0000
  O   O2        1.0  0.24752  0.00436  0.13347  1.0000
  O   O3        1.0  0.14630  0.21500  0.85771  1.0000
  O   O4        1.0  0.49604  0.14796  0.30120  1.0000
  O   O5        1.0  0.03974  0.83010  0.63310  1.0000
  O   O6        1.0  0.68900  0.56467  0.16369  1.0000
  O   O7        1.0  0.68353  0.81260  0.37222  1.0000
  O   O8        1.0  0.49945  0.78370  0.99139  1.0000
  O   O9        1.0  0.27619  0.36129  0.65888  1.0000
  O   O10       1.0  0.84223  0.88798  0.78470  1.0000
