data_image0
_chemical_formula_structural       Cd2H36C54N8O14
_chemical_formula_sum              "Cd2 H36 C54 N8 O14"
_cell_length_a       7.87094
_cell_length_b       11.8759
_cell_length_c       13.9532
_cell_angle_alpha    109.454
_cell_angle_beta     99.1657
_cell_angle_gamma    94.4606

_space_group_name_H-M_alt    "P 1"
_space_group_IT_number       1

loop_
  _space_group_symop_operation_xyz
  'x, y, z'

loop_
  _atom_site_type_symbol
  _atom_site_label
  _atom_site_symmetry_multiplicity
  _atom_site_fract_x
  _atom_site_fract_y
  _atom_site_fract_z
  _atom_site_occupancy
  Cd  Cd1       1.0  0.24286  0.53642  0.02232  1.0000
  Cd  Cd2       1.0  0.75714  0.46358  0.97768  1.0000
  H   H1        1.0  0.09281  0.21624  0.67263  1.0000
  H   H2        1.0  0.90719  0.78377  0.32737  1.0000
  H   H3        1.0  0.49382  0.90315  0.06221  1.0000
  H   H4        1.0  0.50618  0.09685  0.93779  1.0000
  H   H5        1.0  0.69363  0.07925  0.06191  1.0000
  H   H6        1.0  0.30637  0.92075  0.93809  1.0000
  H   H7        1.0  0.01618  0.08585  0.11428  1.0000
  H   H8        1.0  0.98382  0.91415  0.88573  1.0000
  H   H9        1.0  0.99206  0.02165  0.32515  1.0000
  H   H10       1.0  0.00794  0.97835  0.67485  1.0000
  H   H11       1.0  0.45468  0.17013  0.56030  1.0000
  H   H12       1.0  0.54531  0.82987  0.43970  1.0000
  H   H13       1.0  0.63704  0.09146  0.42843  1.0000
  H   H14       1.0  0.36296  0.90854  0.57157  1.0000
  H   H15       1.0  0.49527  0.97406  0.24429  1.0000
  H   H16       1.0  0.50473  0.02594  0.75572  1.0000
  H   H17       1.0  0.17781  0.59773  0.26079  1.0000
  H   H18       1.0  0.82219  0.40227  0.73921  1.0000
  H   H19       1.0  0.42126  0.30161  0.29601  1.0000
  H   H20       1.0  0.57874  0.69839  0.70399  1.0000
  H   H21       1.0  0.41169  0.30351  0.09780  1.0000
  H   H22       1.0  0.58830  0.69649  0.90220  1.0000
  H   H23       1.0  0.28653  0.45315  0.76998  1.0000
  H   H24       1.0  0.71348  0.54685  0.23002  1.0000
  H   H25       1.0  0.05366  0.75223  0.73514  1.0000
  H   H26       1.0  0.94634  0.24777  0.26486  1.0000
  H   H27       1.0  0.05847  0.74720  0.93411  1.0000
  H   H28       1.0  0.94152  0.25280  0.06589  1.0000
  H   H29       1.0  0.25182  0.37757  0.60464  1.0000
  H   H30       1.0  0.74819  0.62243  0.39536  1.0000
  H   H31       1.0  0.30541  0.32158  0.42857  1.0000
  H   H32       1.0  0.69459  0.67842  0.57143  1.0000
  H   H33       1.0  0.22405  0.67851  0.42828  1.0000
  H   H34       1.0  0.77595  0.32149  0.57172  1.0000
  H   H35       1.0  0.17173  0.73373  0.60270  1.0000
  H   H36       1.0  0.82828  0.26627  0.39730  1.0000
  C   C1        1.0  0.96831  0.71324  0.15221  1.0000
  C   C2        1.0  0.03169  0.28676  0.84779  1.0000
  C   C3        1.0  0.88094  0.81430  0.13124  1.0000
  C   C4        1.0  0.11906  0.18569  0.86876  1.0000
  C   C5        1.0  0.70017  0.81167  0.10413  1.0000
  C   C6        1.0  0.29983  0.18833  0.89587  1.0000
  C   C7        1.0  0.57208  0.70665  0.09641  1.0000
  C   C8        1.0  0.42793  0.29335  0.90359  1.0000
  C   C9        1.0  0.63450  0.90817  0.08111  1.0000
  C   C10       1.0  0.36550  0.09183  0.91889  1.0000
  C   C11       1.0  0.74527  0.00587  0.08202  1.0000
  C   C12       1.0  0.25473  0.99413  0.91799  1.0000
  C   C13       1.0  0.92433  0.01060  0.11121  1.0000
  C   C14       1.0  0.07567  0.98940  0.88879  1.0000
  C   C15       1.0  0.98943  0.91708  0.13789  1.0000
  C   C16       1.0  0.01057  0.08292  0.86211  1.0000
  C   C17       1.0  0.23643  0.99267  0.27286  1.0000
  C   C18       1.0  0.76357  0.00733  0.72714  1.0000
  C   C19       1.0  0.13338  0.03767  0.34567  1.0000
  C   C20       1.0  0.86661  0.96232  0.65433  1.0000
  C   C21       1.0  0.21298  0.10142  0.44941  1.0000
  C   C22       1.0  0.78701  0.89858  0.55059  1.0000
  C   C23       1.0  0.09633  0.14410  0.52468  1.0000
  C   C24       1.0  0.90367  0.85590  0.47532  1.0000
  C   C25       1.0  0.39433  0.12213  0.47935  1.0000
  C   C26       1.0  0.60567  0.87787  0.52065  1.0000
  C   C27       1.0  0.49587  0.07768  0.40513  1.0000
  C   C28       1.0  0.50413  0.92232  0.59488  1.0000
  C   C29       1.0  0.41802  0.01239  0.30221  1.0000
  C   C30       1.0  0.58198  0.98761  0.69779  1.0000
  C   C31       1.0  0.24799  0.51996  0.24431  1.0000
  C   C32       1.0  0.75201  0.48004  0.75569  1.0000
  C   C33       1.0  0.26915  0.49564  0.41527  1.0000
  C   C34       1.0  0.73085  0.50436  0.58473  1.0000
  C   C35       1.0  0.36973  0.36235  0.25937  1.0000
  C   C36       1.0  0.63027  0.63765  0.74063  1.0000
  C   C37       1.0  0.36513  0.36501  0.16155  1.0000
  C   C38       1.0  0.63487  0.63499  0.83845  1.0000
  C   C39       1.0  0.22204  0.53271  0.78694  1.0000
  C   C40       1.0  0.77796  0.46729  0.21306  1.0000
  C   C41       1.0  0.10305  0.69114  0.77196  1.0000
  C   C42       1.0  0.89696  0.30886  0.22804  1.0000
  C   C43       1.0  0.10584  0.68772  0.86950  1.0000
  C   C44       1.0  0.89415  0.31228  0.13050  1.0000
  C   C45       1.0  0.20817  0.55961  0.61700  1.0000
  C   C46       1.0  0.79183  0.44039  0.38300  1.0000
  C   C47       1.0  0.24759  0.44432  0.56687  1.0000
  C   C48       1.0  0.75241  0.55568  0.43313  1.0000
  C   C49       1.0  0.27785  0.41249  0.46644  1.0000
  C   C50       1.0  0.72216  0.58752  0.53356  1.0000
  C   C51       1.0  0.23157  0.61132  0.46562  1.0000
  C   C52       1.0  0.76843  0.38868  0.53437  1.0000
  C   C53       1.0  0.20104  0.64303  0.56610  1.0000
  C   C54       1.0  0.79896  0.35697  0.43390  1.0000
  N   N1        1.0  0.18000  0.58877  0.87736  1.0000
  N   N2        1.0  0.82000  0.41123  0.12264  1.0000
  N   N3        1.0  0.17701  0.59165  0.71953  1.0000
  N   N4        1.0  0.82299  0.40835  0.28047  1.0000
  N   N5        1.0  0.28868  0.46316  0.15331  1.0000
  N   N6        1.0  0.71132  0.53684  0.84669  1.0000
  N   N7        1.0  0.29613  0.46183  0.31179  1.0000
  N   N8        1.0  0.70387  0.53817  0.68821  1.0000
  O   O1        1.0  0.00256  0.63378  0.07267  1.0000
  O   O2        1.0  0.99744  0.36622  0.92733  1.0000
  O   O3        1.0  0.00961  0.71717  0.24459  1.0000
  O   O4        1.0  0.99038  0.28283  0.75540  1.0000
  O   O5        1.0  0.62645  0.60759  0.09375  1.0000
  O   O6        1.0  0.37355  0.39241  0.90625  1.0000
  O   O7        1.0  0.41348  0.72247  0.09053  1.0000
  O   O8        1.0  0.58653  0.27753  0.90947  1.0000
  O   O9        1.0  0.16821  0.92526  0.16976  1.0000
  O   O10       1.0  0.83179  0.07474  0.83024  1.0000
  O   O11       1.0  0.17870  0.18612  0.62391  1.0000
  O   O12       1.0  0.82130  0.81388  0.37610  1.0000
  O   O13       1.0  0.93857  0.14153  0.49710  1.0000
  O   O14       1.0  0.06142  0.85847  0.50291  1.0000
