data_image0
_chemical_formula_structural       Cu4H36C52Br4N8
_chemical_formula_sum              "Cu4 H36 C52 Br4 N8"
_cell_length_a       10.5468
_cell_length_b       12.0085
_cell_length_c       12.9044
_cell_angle_alpha    109.169
_cell_angle_beta     104.64
_cell_angle_gamma    109.592

_space_group_name_H-M_alt    "P 1"
_space_group_IT_number       1

loop_
  _space_group_symop_operation_xyz
  'x, y, z'

loop_
  _atom_site_type_symbol
  _atom_site_label
  _atom_site_symmetry_multiplicity
  _atom_site_fract_x
  _atom_site_fract_y
  _atom_site_fract_z
  _atom_site_occupancy
  Cu  Cu1       1.0  0.78927  0.57904  0.32999  1.0000
  Cu  Cu2       1.0  0.04102  0.75108  0.33009  1.0000
  Cu  Cu3       1.0  0.21073  0.42096  0.67001  1.0000
  Cu  Cu4       1.0  0.95898  0.24892  0.66990  1.0000
  H   H1        1.0  0.88539  0.85335  0.48582  1.0000
  H   H2        1.0  0.10012  0.63227  0.48574  1.0000
  H   H3        1.0  0.11461  0.14666  0.51418  1.0000
  H   H4        1.0  0.89988  0.36773  0.51426  1.0000
  H   H5        1.0  0.95653  0.99798  0.70148  1.0000
  H   H6        1.0  0.24473  0.70319  0.70139  1.0000
  H   H7        1.0  0.04347  0.00202  0.29853  1.0000
  H   H8        1.0  0.75527  0.29681  0.29861  1.0000
  H   H9        1.0  0.87712  0.65015  0.75928  1.0000
  H   H10       1.0  0.38236  0.10889  0.75937  1.0000
  H   H11       1.0  0.12288  0.34985  0.24072  1.0000
  H   H12       1.0  0.61764  0.89111  0.24063  1.0000
  H   H13       1.0  0.82207  0.52449  0.54625  1.0000
  H   H14       1.0  0.22444  0.02173  0.54636  1.0000
  H   H15       1.0  0.17793  0.47551  0.45375  1.0000
  H   H16       1.0  0.77556  0.97827  0.45364  1.0000
  H   H17       1.0  0.15973  0.05451  0.89518  1.0000
  H   H18       1.0  0.23527  0.84100  0.89522  1.0000
  H   H19       1.0  0.84027  0.94548  0.10482  1.0000
  H   H20       1.0  0.76472  0.15900  0.10478  1.0000
  H   H21       1.0  0.71314  0.72628  0.02421  1.0000
  H   H22       1.0  0.81120  0.29769  0.02416  1.0000
  H   H23       1.0  0.28686  0.27371  0.97579  1.0000
  H   H24       1.0  0.18880  0.70231  0.97584  1.0000
  H   H25       1.0  0.45544  0.54729  0.91648  1.0000
  H   H26       1.0  0.96091  0.36914  0.91641  1.0000
  H   H27       1.0  0.54456  0.45271  0.08352  1.0000
  H   H28       1.0  0.03909  0.63086  0.08359  1.0000
  H   H29       1.0  0.40597  0.59782  0.60873  1.0000
  H   H30       1.0  0.70262  0.01086  0.60854  1.0000
  H   H31       1.0  0.59402  0.40218  0.39128  1.0000
  H   H32       1.0  0.29738  0.98913  0.39146  1.0000
  H   H33       1.0  0.65650  0.78238  0.70378  1.0000
  H   H34       1.0  0.54741  0.92115  0.70368  1.0000
  H   H35       1.0  0.34350  0.21762  0.29622  1.0000
  H   H36       1.0  0.45259  0.07886  0.29632  1.0000
  C   C1        1.0  0.88370  0.81284  0.55009  1.0000
  C   C2        1.0  0.16611  0.73702  0.55003  1.0000
  C   C3        1.0  0.11630  0.18716  0.44991  1.0000
  C   C4        1.0  0.83389  0.26298  0.44997  1.0000
  C   C5        1.0  0.92193  0.89208  0.66992  1.0000
  C   C6        1.0  0.24779  0.77754  0.66987  1.0000
  C   C7        1.0  0.07807  0.10792  0.33008  1.0000
  C   C8        1.0  0.75221  0.22246  0.33013  1.0000
  C   C9        1.0  0.91611  0.83526  0.74899  1.0000
  C   C10       1.0  0.33289  0.91341  0.74895  1.0000
  C   C11       1.0  0.08389  0.16474  0.25101  1.0000
  C   C12       1.0  0.66711  0.08659  0.25105  1.0000
  C   C13       1.0  0.87785  0.69986  0.70230  1.0000
  C   C14       1.0  0.32452  0.00218  0.70230  1.0000
  C   C15       1.0  0.12215  0.30014  0.29770  1.0000
  C   C16       1.0  0.67548  0.99782  0.29770  1.0000
  C   C17       1.0  0.84535  0.62832  0.58184  1.0000
  C   C18       1.0  0.23662  0.95347  0.58192  1.0000
  C   C19       1.0  0.15465  0.37168  0.41816  1.0000
  C   C20       1.0  0.76337  0.04654  0.41809  1.0000
  C   C21       1.0  0.95294  0.91788  0.87644  1.0000
  C   C22       1.0  0.42354  0.95839  0.87639  1.0000
  C   C23       1.0  0.04706  0.08212  0.12356  1.0000
  C   C24       1.0  0.57646  0.04162  0.12361  1.0000
  C   C25       1.0  0.08831  0.03254  0.94135  1.0000
  C   C26       1.0  0.35290  0.90909  0.94144  1.0000
  C   C27       1.0  0.91170  0.96746  0.05865  1.0000
  C   C28       1.0  0.64709  0.09091  0.05856  1.0000
  C   C29       1.0  0.86066  0.88442  0.93584  1.0000
  C   C30       1.0  0.57536  0.05105  0.93571  1.0000
  C   C31       1.0  0.13934  0.11558  0.06415  1.0000
  C   C32       1.0  0.42465  0.94896  0.06429  1.0000
  C   C33       1.0  0.71027  0.77247  0.87368  1.0000
  C   C34       1.0  0.66356  0.10089  0.87357  1.0000
  C   C35       1.0  0.28973  0.22753  0.12632  1.0000
  C   C36       1.0  0.33644  0.89911  0.12643  1.0000
  C   C37       1.0  0.64913  0.70331  0.93231  1.0000
  C   C38       1.0  0.78323  0.22876  0.93223  1.0000
  C   C39       1.0  0.35088  0.29669  0.06769  1.0000
  C   C40       1.0  0.21677  0.77124  0.06777  1.0000
  C   C41       1.0  0.50512  0.60215  0.87266  1.0000
  C   C42       1.0  0.86741  0.27046  0.87255  1.0000
  C   C43       1.0  0.49488  0.39786  0.12734  1.0000
  C   C44       1.0  0.13259  0.72953  0.12744  1.0000
  C   C45       1.0  0.47686  0.62997  0.70139  1.0000
  C   C46       1.0  0.72438  0.07134  0.70118  1.0000
  C   C47       1.0  0.52314  0.37003  0.29861  1.0000
  C   C48       1.0  0.27563  0.92867  0.29882  1.0000
  C   C49       1.0  0.61851  0.73290  0.75488  1.0000
  C   C50       1.0  0.63646  0.02178  0.75472  1.0000
  C   C51       1.0  0.38149  0.26710  0.24512  1.0000
  C   C52       1.0  0.36355  0.97822  0.24529  1.0000
  Br  Br1       1.0  0.94427  0.49530  0.24768  1.0000
  Br  Br2       1.0  0.80378  0.75267  0.24775  1.0000
  Br  Br3       1.0  0.05573  0.50470  0.75232  1.0000
  Br  Br4       1.0  0.19621  0.24733  0.75225  1.0000
  N   N1        1.0  0.84476  0.68161  0.50430  1.0000
  N   N2        1.0  0.15939  0.82252  0.50431  1.0000
  N   N3        1.0  0.15524  0.31839  0.49570  1.0000
  N   N4        1.0  0.84061  0.17748  0.49568  1.0000
  N   N5        1.0  0.41829  0.56407  0.75808  1.0000
  N   N6        1.0  0.83975  0.19398  0.75800  1.0000
  N   N7        1.0  0.58172  0.43593  0.24192  1.0000
  N   N8        1.0  0.16025  0.80602  0.24200  1.0000
