data_image0
_chemical_formula_structural       Cu4H36C56N12
_chemical_formula_sum              "Cu4 H36 C56 N12"
_cell_length_a       4.74937
_cell_length_b       11.9192
_cell_length_c       21.1203
_cell_angle_alpha    85.0248
_cell_angle_beta     83.5771
_cell_angle_gamma    78.5621

_space_group_name_H-M_alt    "P 1"
_space_group_IT_number       1

loop_
  _space_group_symop_operation_xyz
  'x, y, z'

loop_
  _atom_site_type_symbol
  _atom_site_label
  _atom_site_symmetry_multiplicity
  _atom_site_fract_x
  _atom_site_fract_y
  _atom_site_fract_z
  _atom_site_occupancy
  Cu  Cu1       1.0  0.65803  0.90374  0.86732  1.0000
  Cu  Cu2       1.0  0.42962  0.59633  0.63287  1.0000
  Cu  Cu3       1.0  0.34195  0.09626  0.13268  1.0000
  Cu  Cu4       1.0  0.57039  0.40367  0.36713  1.0000
  H   H1        1.0  0.88607  0.05163  0.75612  1.0000
  H   H2        1.0  0.69274  0.44806  0.74387  1.0000
  H   H3        1.0  0.11394  0.94837  0.24388  1.0000
  H   H4        1.0  0.30726  0.55194  0.25613  1.0000
  H   H5        1.0  0.84565  0.09096  0.63948  1.0000
  H   H6        1.0  0.57554  0.40886  0.86053  1.0000
  H   H7        1.0  0.15437  0.90903  0.36052  1.0000
  H   H8        1.0  0.42447  0.59114  0.13947  1.0000
  H   H9        1.0  0.29325  0.84039  0.65379  1.0000
  H   H10       1.0  0.78905  0.66004  0.84627  1.0000
  H   H11       1.0  0.70675  0.15960  0.34621  1.0000
  H   H12       1.0  0.21096  0.33996  0.15374  1.0000
  H   H13       1.0  0.35529  0.81276  0.76957  1.0000
  H   H14       1.0  0.93802  0.68724  0.73044  1.0000
  H   H15       1.0  0.64471  0.18724  0.23043  1.0000
  H   H16       1.0  0.06198  0.31276  0.26956  1.0000
  H   H17       1.0  0.53146  0.81127  0.55950  1.0000
  H   H18       1.0  0.90484  0.68894  0.94063  1.0000
  H   H19       1.0  0.46854  0.18873  0.44050  1.0000
  H   H20       1.0  0.09517  0.31107  0.05937  1.0000
  H   H21       1.0  0.82955  0.26103  0.48956  1.0000
  H   H22       1.0  0.57800  0.23897  0.01060  1.0000
  H   H23       1.0  0.17046  0.73897  0.51044  1.0000
  H   H24       1.0  0.42199  0.76103  0.98940  1.0000
  H   H25       1.0  0.80174  0.44824  0.53514  1.0000
  H   H26       1.0  0.78376  0.05206  0.96479  1.0000
  H   H27       1.0  0.19827  0.55176  0.46487  1.0000
  H   H28       1.0  0.21621  0.94794  0.03521  1.0000
  H   H29       1.0  0.16294  0.38511  0.67595  1.0000
  H   H30       1.0  0.22346  0.11518  0.82374  1.0000
  H   H31       1.0  0.83706  0.61489  0.32405  1.0000
  H   H32       1.0  0.77652  0.88483  0.17625  1.0000
  H   H33       1.0  0.17349  0.19140  0.63893  1.0000
  H   H34       1.0  0.00240  0.30854  0.86100  1.0000
  H   H35       1.0  0.82651  0.80859  0.36107  1.0000
  H   H36       1.0  0.99759  0.69147  0.13900  1.0000
  C   C1        1.0  0.75405  0.00745  0.73153  1.0000
  C   C2        1.0  0.49252  0.49241  0.76848  1.0000
  C   C3        1.0  0.24595  0.99254  0.26847  1.0000
  C   C4        1.0  0.50748  0.50760  0.23152  1.0000
  C   C5        1.0  0.72945  0.02956  0.66653  1.0000
  C   C6        1.0  0.42535  0.47040  0.83349  1.0000
  C   C7        1.0  0.27056  0.97044  0.33347  1.0000
  C   C8        1.0  0.57465  0.52960  0.16651  1.0000
  C   C9        1.0  0.55800  0.97160  0.63598  1.0000
  C   C10       1.0  0.16621  0.52860  0.86406  1.0000
  C   C11       1.0  0.44201  0.02840  0.36402  1.0000
  C   C12       1.0  0.83379  0.47140  0.13594  1.0000
  C   C13       1.0  0.42632  0.89011  0.67410  1.0000
  C   C14       1.0  0.99144  0.61009  0.82594  1.0000
  C   C15       1.0  0.57369  0.10988  0.32590  1.0000
  C   C16       1.0  0.00856  0.38991  0.17406  1.0000
  C   C17       1.0  0.46217  0.87324  0.73884  1.0000
  C   C18       1.0  0.07462  0.62680  0.76117  1.0000
  C   C19       1.0  0.53784  0.12676  0.26116  1.0000
  C   C20       1.0  0.92537  0.37320  0.23883  1.0000
  C   C21       1.0  0.52181  0.99080  0.56705  1.0000
  C   C22       1.0  0.08017  0.50931  0.93299  1.0000
  C   C23       1.0  0.47819  0.00920  0.43295  1.0000
  C   C24       1.0  0.91983  0.49069  0.06701  1.0000
  C   C25       1.0  0.50933  0.89548  0.53368  1.0000
  C   C26       1.0  0.94010  0.60463  0.96639  1.0000
  C   C27       1.0  0.49067  0.10451  0.46632  1.0000
  C   C28       1.0  0.05990  0.39537  0.03361  1.0000
  C   C29       1.0  0.50995  0.09848  0.53222  1.0000
  C   C30       1.0  0.13967  0.40150  0.96775  1.0000
  C   C31       1.0  0.49006  0.90152  0.46778  1.0000
  C   C32       1.0  0.86033  0.59850  0.03225  1.0000
  C   C33       1.0  0.50470  0.20823  0.56073  1.0000
  C   C34       1.0  0.27223  0.29177  0.93926  1.0000
  C   C35       1.0  0.49531  0.79177  0.43927  1.0000
  C   C36       1.0  0.72776  0.70823  0.06074  1.0000
  C   C37       1.0  0.68076  0.28339  0.53166  1.0000
  C   C38       1.0  0.49408  0.21664  0.96840  1.0000
  C   C39       1.0  0.31925  0.71661  0.46834  1.0000
  C   C40       1.0  0.50590  0.78336  0.03160  1.0000
  C   C41       1.0  0.66487  0.38890  0.55668  1.0000
  C   C42       1.0  0.60913  0.11135  0.94326  1.0000
  C   C43       1.0  0.33514  0.61110  0.44332  1.0000
  C   C44       1.0  0.39085  0.88865  0.05674  1.0000
  C   C45       1.0  0.31228  0.35281  0.63555  1.0000
  C   C46       1.0  0.29983  0.14743  0.86424  1.0000
  C   C47       1.0  0.68773  0.64719  0.36445  1.0000
  C   C48       1.0  0.70015  0.85258  0.13576  1.0000
  C   C49       1.0  0.31756  0.24525  0.61437  1.0000
  C   C50       1.0  0.17585  0.25480  0.88554  1.0000
  C   C51       1.0  0.68245  0.75475  0.38563  1.0000
  C   C52       1.0  0.82414  0.74520  0.11446  1.0000
  C   C53       1.0  0.04095  0.86301  0.88472  1.0000
  C   C54       1.0  0.78931  0.63731  0.61546  1.0000
  C   C55       1.0  0.95903  0.13700  0.11528  1.0000
  C   C56       1.0  0.21070  0.36269  0.38454  1.0000
  N   N1        1.0  0.62104  0.93129  0.76811  1.0000
  N   N2        1.0  0.32023  0.56859  0.73190  1.0000
  N   N3        1.0  0.37896  0.06871  0.23189  1.0000
  N   N4        1.0  0.67976  0.43141  0.26810  1.0000
  N   N5        1.0  0.48315  0.42445  0.60764  1.0000
  N   N6        1.0  0.51464  0.07597  0.89209  1.0000
  N   N7        1.0  0.51686  0.57554  0.39237  1.0000
  N   N8        1.0  0.48534  0.92403  0.10790  1.0000
  N   N9        1.0  0.29124  0.85418  0.88815  1.0000
  N   N10       1.0  0.03423  0.64620  0.61193  1.0000
  N   N11       1.0  0.70875  0.14582  0.11185  1.0000
  N   N12       1.0  0.96579  0.35379  0.38807  1.0000
