data_image0
_chemical_formula_structural       Cd8H48C36O44
_chemical_formula_sum              "Cd8 H48 C36 O44"
_cell_length_a       8.28656
_cell_length_b       10.4079
_cell_length_c       15.4594
_cell_angle_alpha    90
_cell_angle_beta     104.603
_cell_angle_gamma    90.0001

_space_group_name_H-M_alt    "P 1"
_space_group_IT_number       1

loop_
  _space_group_symop_operation_xyz
  'x, y, z'

loop_
  _atom_site_type_symbol
  _atom_site_label
  _atom_site_symmetry_multiplicity
  _atom_site_fract_x
  _atom_site_fract_y
  _atom_site_fract_z
  _atom_site_occupancy
  Cd  Cd1       1.0  0.27369  0.68454  0.13229  1.0000
  Cd  Cd2       1.0  0.72631  0.18454  0.36771  1.0000
  Cd  Cd3       1.0  0.72631  0.31546  0.86771  1.0000
  Cd  Cd4       1.0  0.27369  0.81546  0.63229  1.0000
  Cd  Cd5       1.0  0.10858  0.44245  0.73693  1.0000
  Cd  Cd6       1.0  0.89142  0.94245  0.76307  1.0000
  Cd  Cd7       1.0  0.89142  0.55755  0.26307  1.0000
  Cd  Cd8       1.0  0.10858  0.05755  0.23693  1.0000
  H   H1        1.0  0.96003  0.28440  0.57272  1.0000
  H   H2        1.0  0.03997  0.78440  0.92728  1.0000
  H   H3        1.0  0.03997  0.71560  0.42728  1.0000
  H   H4        1.0  0.96004  0.21560  0.07272  1.0000
  H   H5        1.0  0.87429  0.23527  0.64488  1.0000
  H   H6        1.0  0.12571  0.73527  0.85512  1.0000
  H   H7        1.0  0.12571  0.76473  0.35512  1.0000
  H   H8        1.0  0.87429  0.26473  0.14488  1.0000
  H   H9        1.0  0.32692  0.64612  0.82618  1.0000
  H   H10       1.0  0.67308  0.14612  0.67383  1.0000
  H   H11       1.0  0.67308  0.35388  0.17383  1.0000
  H   H12       1.0  0.32692  0.85388  0.32617  1.0000
  H   H13       1.0  0.28249  0.56204  0.90715  1.0000
  H   H14       1.0  0.71750  0.06204  0.59285  1.0000
  H   H15       1.0  0.71750  0.43796  0.09285  1.0000
  H   H16       1.0  0.28250  0.93796  0.40715  1.0000
  H   H17       1.0  0.82480  0.57829  0.78069  1.0000
  H   H18       1.0  0.17520  0.07829  0.71931  1.0000
  H   H19       1.0  0.17520  0.42171  0.21931  1.0000
  H   H20       1.0  0.82480  0.92171  0.28069  1.0000
  H   H21       1.0  0.91137  0.66564  0.71935  1.0000
  H   H22       1.0  0.08863  0.16564  0.78065  1.0000
  H   H23       1.0  0.08863  0.33436  0.28065  1.0000
  H   H24       1.0  0.91137  0.83436  0.21935  1.0000
  H   H25       1.0  0.48846  0.30258  0.04669  1.0000
  H   H26       1.0  0.51154  0.80258  0.45331  1.0000
  H   H27       1.0  0.51154  0.69742  0.95331  1.0000
  H   H28       1.0  0.48846  0.19742  0.54669  1.0000
  H   H29       1.0  0.32881  0.27847  0.90363  1.0000
  H   H30       1.0  0.67119  0.77847  0.59637  1.0000
  H   H31       1.0  0.67119  0.72153  0.09637  1.0000
  H   H32       1.0  0.32881  0.22153  0.40364  1.0000
  H   H33       1.0  0.31072  0.05456  0.91551  1.0000
  H   H34       1.0  0.68928  0.55456  0.58449  1.0000
  H   H35       1.0  0.68928  0.94544  0.08450  1.0000
  H   H36       1.0  0.31072  0.44544  0.41551  1.0000
  H   H37       1.0  0.13045  0.06885  0.95568  1.0000
  H   H38       1.0  0.86955  0.56885  0.54432  1.0000
  H   H39       1.0  0.86955  0.93115  0.04433  1.0000
  H   H40       1.0  0.13046  0.43115  0.45568  1.0000
  H   H41       1.0  0.49221  0.07259  0.06307  1.0000
  H   H42       1.0  0.50779  0.57259  0.43693  1.0000
  H   H43       1.0  0.50779  0.92741  0.93693  1.0000
  H   H44       1.0  0.49221  0.42741  0.56307  1.0000
  H   H45       1.0  0.19861  0.20119  0.11504  1.0000
  H   H46       1.0  0.80139  0.70119  0.38496  1.0000
  H   H47       1.0  0.80139  0.79881  0.88496  1.0000
  H   H48       1.0  0.19861  0.29881  0.61504  1.0000
  C   C1        1.0  0.35584  0.30231  0.04757  1.0000
  C   C2        1.0  0.64416  0.80231  0.45243  1.0000
  C   C3        1.0  0.64416  0.69769  0.95243  1.0000
  C   C4        1.0  0.35584  0.19769  0.54757  1.0000
  C   C5        1.0  0.26197  0.25243  0.95373  1.0000
  C   C6        1.0  0.73803  0.75243  0.54627  1.0000
  C   C7        1.0  0.73803  0.74757  0.04627  1.0000
  C   C8        1.0  0.26197  0.24757  0.45373  1.0000
  C   C9        1.0  0.25910  0.10320  0.96497  1.0000
  C   C10       1.0  0.74090  0.60320  0.53503  1.0000
  C   C11       1.0  0.74090  0.89680  0.03503  1.0000
  C   C12       1.0  0.25910  0.39680  0.46497  1.0000
  C   C13       1.0  0.35911  0.07634  0.06175  1.0000
  C   C14       1.0  0.64089  0.57634  0.43825  1.0000
  C   C15       1.0  0.64089  0.92366  0.93825  1.0000
  C   C16       1.0  0.35911  0.42366  0.56175  1.0000
  C   C17       1.0  0.32907  0.19783  0.11211  1.0000
  C   C18       1.0  0.67093  0.69783  0.38789  1.0000
  C   C19       1.0  0.67093  0.80217  0.88789  1.0000
  C   C20       1.0  0.32907  0.30217  0.61211  1.0000
  C   C21       1.0  0.43512  0.19891  0.20727  1.0000
  C   C22       1.0  0.56488  0.69891  0.29273  1.0000
  C   C23       1.0  0.56488  0.80109  0.79273  1.0000
  C   C24       1.0  0.43512  0.30109  0.70727  1.0000
  C   C25       1.0  0.31774  0.43853  0.07028  1.0000
  C   C26       1.0  0.68226  0.93853  0.42972  1.0000
  C   C27       1.0  0.68226  0.56147  0.92973  1.0000
  C   C28       1.0  0.31774  0.06147  0.57028  1.0000
  C   C29       1.0  0.08219  0.29450  0.92246  1.0000
  C   C30       1.0  0.91781  0.79450  0.57754  1.0000
  C   C31       1.0  0.91781  0.70550  0.07754  1.0000
  C   C32       1.0  0.08219  0.20550  0.42246  1.0000
  C   C33       1.0  0.30978  0.94769  0.09251  1.0000
  C   C34       1.0  0.69022  0.44769  0.40749  1.0000
  C   C35       1.0  0.69022  0.05231  0.90749  1.0000
  C   C36       1.0  0.30978  0.55231  0.59251  1.0000
  O   O1        1.0  0.29336  0.46221  0.14750  1.0000
  O   O2        1.0  0.70664  0.96222  0.35250  1.0000
  O   O3        1.0  0.70664  0.53778  0.85250  1.0000
  O   O4        1.0  0.29336  0.03778  0.64750  1.0000
  O   O5        1.0  0.32073  0.52871  0.01551  1.0000
  O   O6        1.0  0.67927  0.02871  0.48449  1.0000
  O   O7        1.0  0.67926  0.47129  0.98449  1.0000
  O   O8        1.0  0.32073  0.97129  0.51550  1.0000
  O   O9        1.0  0.99146  0.30223  0.97691  1.0000
  O   O10       1.0  0.00853  0.80222  0.52309  1.0000
  O   O11       1.0  0.00853  0.69777  0.02309  1.0000
  O   O12       1.0  0.99147  0.19778  0.47691  1.0000
  O   O13       1.0  0.01751  0.31045  0.83748  1.0000
  O   O14       1.0  0.98249  0.81045  0.66252  1.0000
  O   O15       1.0  0.98249  0.68955  0.16252  1.0000
  O   O16       1.0  0.01751  0.18955  0.33748  1.0000
  O   O17       1.0  0.38291  0.84970  0.07106  1.0000
  O   O18       1.0  0.61709  0.34970  0.42894  1.0000
  O   O19       1.0  0.61709  0.15030  0.92894  1.0000
  O   O20       1.0  0.38291  0.65030  0.57106  1.0000
  O   O21       1.0  0.19400  0.93687  0.13340  1.0000
  O   O22       1.0  0.80600  0.43687  0.36660  1.0000
  O   O23       1.0  0.80600  0.06313  0.86660  1.0000
  O   O24       1.0  0.19400  0.56313  0.63340  1.0000
  O   O25       1.0  0.37302  0.15520  0.26861  1.0000
  O   O26       1.0  0.62698  0.65520  0.23139  1.0000
  O   O27       1.0  0.62698  0.84480  0.73139  1.0000
  O   O28       1.0  0.37302  0.34480  0.76861  1.0000
  O   O29       1.0  0.58745  0.23547  0.22276  1.0000
  O   O30       1.0  0.41255  0.73548  0.27724  1.0000
  O   O31       1.0  0.41255  0.76452  0.77724  1.0000
  O   O32       1.0  0.58745  0.26452  0.72276  1.0000
  O   O33       1.0  0.93239  0.31192  0.62852  1.0000
  O   O34       1.0  0.06761  0.81192  0.87148  1.0000
  O   O35       1.0  0.06761  0.68808  0.37148  1.0000
  O   O36       1.0  0.93239  0.18808  0.12852  1.0000
  O   O37       1.0  0.23883  0.59553  0.84483  1.0000
  O   O38       1.0  0.76117  0.09554  0.65517  1.0000
  O   O39       1.0  0.76117  0.40447  0.15517  1.0000
  O   O40       1.0  0.23883  0.90447  0.34483  1.0000
  O   O41       1.0  0.88530  0.57687  0.73283  1.0000
  O   O42       1.0  0.11470  0.07687  0.76717  1.0000
  O   O43       1.0  0.11470  0.42313  0.26717  1.0000
  O   O44       1.0  0.88530  0.92313  0.23283  1.0000
