data_image0
_chemical_formula_structural       Zn2H26C42N4O14
_chemical_formula_sum              "Zn2 H26 C42 N4 O14"
_cell_length_a       7.07722
_cell_length_b       9.30906
_cell_length_c       14.4999
_cell_angle_alpha    108.382
_cell_angle_beta     96.0616
_cell_angle_gamma    92.4768

_space_group_name_H-M_alt    "P 1"
_space_group_IT_number       1

loop_
  _space_group_symop_operation_xyz
  'x, y, z'

loop_
  _atom_site_type_symbol
  _atom_site_label
  _atom_site_symmetry_multiplicity
  _atom_site_fract_x
  _atom_site_fract_y
  _atom_site_fract_z
  _atom_site_occupancy
  Zn  Zn1       1.0  0.19869  0.56071  0.43987  1.0000
  Zn  Zn2       1.0  0.80132  0.43929  0.56013  1.0000
  H   H1        1.0  0.46195  0.89981  0.81023  1.0000
  H   H2        1.0  0.53805  0.10018  0.18976  1.0000
  H   H3        1.0  0.84137  0.64660  0.24554  1.0000
  H   H4        1.0  0.15861  0.35342  0.75446  1.0000
  H   H5        1.0  0.62760  0.66300  0.10191  1.0000
  H   H6        1.0  0.37238  0.33701  0.89810  1.0000
  H   H7        1.0  0.30666  0.51732  0.05599  1.0000
  H   H8        1.0  0.69334  0.48268  0.94401  1.0000
  H   H9        1.0  0.34499  0.15529  0.02181  1.0000
  H   H10       1.0  0.65500  0.84470  0.97819  1.0000
  H   H11       1.0  0.84514  0.00750  0.80856  1.0000
  H   H12       1.0  0.15485  0.99251  0.19143  1.0000
  H   H13       1.0  0.65750  0.18952  0.92202  1.0000
  H   H14       1.0  0.34250  0.81048  0.07797  1.0000
  H   H15       1.0  0.81722  0.35508  0.08674  1.0000
  H   H16       1.0  0.18277  0.64492  0.91325  1.0000
  H   H17       1.0  0.59843  0.72806  0.52581  1.0000
  H   H18       1.0  0.40158  0.27193  0.47419  1.0000
  H   H19       1.0  0.20304  0.78848  0.30402  1.0000
  H   H20       1.0  0.79696  0.21153  0.69598  1.0000
  H   H21       1.0  0.52910  0.97320  0.32310  1.0000
  H   H22       1.0  0.47091  0.02682  0.67691  1.0000
  H   H23       1.0  0.81983  0.05666  0.36079  1.0000
  H   H24       1.0  0.18018  0.94335  0.63922  1.0000
  H   H25       1.0  0.14262  0.16444  0.41546  1.0000
  H   H26       1.0  0.85738  0.83556  0.58455  1.0000
  C   C1        1.0  0.34637  0.42334  0.17385  1.0000
  C   C2        1.0  0.65362  0.57666  0.82615  1.0000
  C   C3        1.0  0.46485  0.41290  0.25497  1.0000
  C   C4        1.0  0.53515  0.58710  0.74503  1.0000
  C   C5        1.0  0.64580  0.49405  0.28008  1.0000
  C   C6        1.0  0.35420  0.50595  0.71992  1.0000
  C   C7        1.0  0.70208  0.58341  0.22423  1.0000
  C   C8        1.0  0.29791  0.41659  0.77577  1.0000
  C   C9        1.0  0.58235  0.59150  0.14367  1.0000
  C   C10       1.0  0.41764  0.40851  0.85634  1.0000
  C   C11       1.0  0.40395  0.51068  0.11768  1.0000
  C   C12       1.0  0.59605  0.48933  0.88233  1.0000
  C   C13       1.0  0.08933  0.26734  0.06176  1.0000
  C   C14       1.0  0.91066  0.73266  0.93824  1.0000
  C   C15       1.0  0.19619  0.16671  0.99895  1.0000
  C   C16       1.0  0.80380  0.83329  0.00105  1.0000
  C   C17       1.0  0.10611  0.07403  0.90733  1.0000
  C   C18       1.0  0.89388  0.92596  0.09266  1.0000
  C   C19       1.0  0.91262  0.08361  0.87915  1.0000
  C   C20       1.0  0.08737  0.91639  0.12084  1.0000
  C   C21       1.0  0.80896  0.18519  0.94301  1.0000
  C   C22       1.0  0.19103  0.81481  0.05698  1.0000
  C   C23       1.0  0.89641  0.27743  0.03471  1.0000
  C   C24       1.0  0.10358  0.72257  0.96529  1.0000
  C   C25       1.0  0.38959  0.30838  0.30635  1.0000
  C   C26       1.0  0.61042  0.69161  0.69365  1.0000
  C   C27       1.0  0.77989  0.49128  0.36651  1.0000
  C   C28       1.0  0.22011  0.50872  0.63349  1.0000
  C   C29       1.0  0.21021  0.95970  0.83847  1.0000
  C   C30       1.0  0.78978  0.04028  0.16153  1.0000
  C   C31       1.0  0.53433  0.76847  0.46813  1.0000
  C   C32       1.0  0.46568  0.23153  0.53187  1.0000
  C   C33       1.0  0.33497  0.80194  0.35219  1.0000
  C   C34       1.0  0.66507  0.19808  0.64782  1.0000
  C   C35       1.0  0.49774  0.89233  0.36011  1.0000
  C   C36       1.0  0.50225  0.10767  0.63990  1.0000
  C   C37       1.0  0.81388  0.93569  0.46729  1.0000
  C   C38       1.0  0.18613  0.06430  0.53271  1.0000
  C   C39       1.0  0.89615  0.02981  0.42167  1.0000
  C   C40       1.0  0.10386  0.97019  0.57833  1.0000
  C   C41       1.0  0.08209  0.09371  0.45396  1.0000
  C   C42       1.0  0.91792  0.90629  0.54605  1.0000
  N   N1        1.0  0.35968  0.72565  0.41994  1.0000
  N   N2        1.0  0.64033  0.27435  0.58006  1.0000
  N   N3        1.0  0.62360  0.86983  0.43379  1.0000
  N   N4        1.0  0.37641  0.13018  0.56622  1.0000
  O   O1        1.0  0.28555  0.35943  0.37524  1.0000
  O   O2        1.0  0.71447  0.64057  0.62476  1.0000
  O   O3        1.0  0.42359  0.17127  0.27672  1.0000
  O   O4        1.0  0.57641  0.82873  0.72329  1.0000
  O   O5        1.0  0.94111  0.56661  0.38051  1.0000
  O   O6        1.0  0.05890  0.43338  0.61949  1.0000
  O   O7        1.0  0.72245  0.41943  0.42124  1.0000
  O   O8        1.0  0.27755  0.58057  0.57876  1.0000
  O   O9        1.0  0.16485  0.35217  0.15676  1.0000
  O   O10       1.0  0.83514  0.64782  0.84324  1.0000
  O   O11       1.0  0.13022  0.86565  0.76248  1.0000
  O   O12       1.0  0.86978  0.13433  0.23752  1.0000
  O   O13       1.0  0.39857  0.97082  0.86617  1.0000
  O   O14       1.0  0.60141  0.02918  0.13382  1.0000
