data_image0
_chemical_formula_structural       Cd2H24C24N20O4
_chemical_formula_sum              "Cd2 H24 C24 N20 O4"
_cell_length_a       7.92384
_cell_length_b       8.42872
_cell_length_c       10.8647
_cell_angle_alpha    95.5369
_cell_angle_beta     89.9999
_cell_angle_gamma    90

_space_group_name_H-M_alt    "P 1"
_space_group_IT_number       1

loop_
  _space_group_symop_operation_xyz
  'x, y, z'

loop_
  _atom_site_type_symbol
  _atom_site_label
  _atom_site_symmetry_multiplicity
  _atom_site_fract_x
  _atom_site_fract_y
  _atom_site_fract_z
  _atom_site_occupancy
  Cd  Cd1       1.0  0.00000  0.50000  0.50000  1.0000
  Cd  Cd2       1.0  0.50000  0.00000  1.00000  1.0000
  H   H1        1.0  0.71142  0.42855  0.69011  1.0000
  H   H2        1.0  0.21142  0.07145  0.80989  1.0000
  H   H3        1.0  0.28858  0.57145  0.30989  1.0000
  H   H4        1.0  0.78858  0.92855  0.19011  1.0000
  H   H5        1.0  0.53783  0.21286  0.76694  1.0000
  H   H6        1.0  0.03783  0.28714  0.73306  1.0000
  H   H7        1.0  0.46217  0.78714  0.23306  1.0000
  H   H8        1.0  0.96217  0.71286  0.26694  1.0000
  H   H9        1.0  0.93135  0.11716  0.41883  1.0000
  H   H10       1.0  0.43135  0.38284  0.08117  1.0000
  H   H11       1.0  0.06865  0.88284  0.58117  1.0000
  H   H12       1.0  0.56865  0.61716  0.91883  1.0000
  H   H13       1.0  0.76469  0.88775  0.48225  1.0000
  H   H14       1.0  0.26469  0.61225  0.01775  1.0000
  H   H15       1.0  0.23531  0.11225  0.51775  1.0000
  H   H16       1.0  0.73531  0.38775  0.98225  1.0000
  H   H17       1.0  0.65913  0.65556  0.49899  1.0000
  H   H18       1.0  0.15913  0.84444  0.00101  1.0000
  H   H19       1.0  0.34087  0.34444  0.50101  1.0000
  H   H20       1.0  0.84087  0.15556  0.99899  1.0000
  H   H21       1.0  0.67233  0.51060  0.39291  1.0000
  H   H22       1.0  0.17233  0.98940  0.10709  1.0000
  H   H23       1.0  0.32767  0.48940  0.60709  1.0000
  H   H24       1.0  0.82767  0.01060  0.89291  1.0000
  C   C1        1.0  0.72021  0.30648  0.64702  1.0000
  C   C2        1.0  0.22021  0.19352  0.85298  1.0000
  C   C3        1.0  0.27979  0.69352  0.35298  1.0000
  C   C4        1.0  0.77979  0.80648  0.14702  1.0000
  C   C5        1.0  0.62324  0.18566  0.68954  1.0000
  C   C6        1.0  0.12324  0.31434  0.81046  1.0000
  C   C7        1.0  0.37676  0.81434  0.31046  1.0000
  C   C8        1.0  0.87676  0.68566  0.18954  1.0000
  C   C9        1.0  0.84225  0.13289  0.49548  1.0000
  C   C10       1.0  0.34225  0.36711  0.00452  1.0000
  C   C11       1.0  0.15775  0.86711  0.50452  1.0000
  C   C12       1.0  0.65775  0.63289  0.99548  1.0000
  C   C13       1.0  0.74941  0.00559  0.53135  1.0000
  C   C14       1.0  0.24941  0.49441  0.96865  1.0000
  C   C15       1.0  0.25059  0.99441  0.46865  1.0000
  C   C16       1.0  0.75059  0.50559  0.03135  1.0000
  C   C17       1.0  0.54871  0.89520  0.67604  1.0000
  C   C18       1.0  0.04871  0.60480  0.82396  1.0000
  C   C19       1.0  0.45129  0.10480  0.32396  1.0000
  C   C20       1.0  0.95129  0.39520  0.17604  1.0000
  C   C21       1.0  0.63981  0.02984  0.63292  1.0000
  C   C22       1.0  0.13981  0.47016  0.86708  1.0000
  C   C23       1.0  0.36019  0.97016  0.36708  1.0000
  C   C24       1.0  0.86019  0.52984  0.13292  1.0000
  N   N1        1.0  0.83132  0.28106  0.55344  1.0000
  N   N2        1.0  0.33132  0.21894  0.94656  1.0000
  N   N3        1.0  0.16868  0.71894  0.44656  1.0000
  N   N4        1.0  0.66868  0.78107  0.05344  1.0000
  N   N5        1.0  0.47230  0.88983  0.78715  1.0000
  N   N6        1.0  0.97229  0.61017  0.71285  1.0000
  N   N7        1.0  0.52770  0.11017  0.21285  1.0000
  N   N8        1.0  0.02771  0.38983  0.28715  1.0000
  N   N9        1.0  0.40415  0.74334  0.78518  1.0000
  N   N10       1.0  0.90415  0.75666  0.71482  1.0000
  N   N11       1.0  0.59585  0.25666  0.21482  1.0000
  N   N12       1.0  0.09585  0.24334  0.28518  1.0000
  N   N13       1.0  0.43839  0.66334  0.67754  1.0000
  N   N14       1.0  0.93839  0.83666  0.82246  1.0000
  N   N15       1.0  0.56161  0.33666  0.32246  1.0000
  N   N16       1.0  0.06161  0.16334  0.17754  1.0000
  N   N17       1.0  0.52879  0.75456  0.60770  1.0000
  N   N18       1.0  0.02879  0.74544  0.89230  1.0000
  N   N19       1.0  0.47121  0.24544  0.39230  1.0000
  N   N20       1.0  0.97121  0.25456  0.10770  1.0000
  O   O1        1.0  0.73893  0.59901  0.43754  1.0000
  O   O2        1.0  0.23893  0.90099  0.06246  1.0000
  O   O3        1.0  0.26107  0.40099  0.56246  1.0000
  O   O4        1.0  0.76107  0.09901  0.93754  1.0000
