data_image0
_chemical_formula_structural       Zn4H40C62N8O18
_chemical_formula_sum              "Zn4 H40 C62 N8 O18"
_cell_length_a       10.9513
_cell_length_b       11.4276
_cell_length_c       12.1657
_cell_angle_alpha    80.9288
_cell_angle_beta     84.774
_cell_angle_gamma    68.1756

_space_group_name_H-M_alt    "P 1"
_space_group_IT_number       1

loop_
  _space_group_symop_operation_xyz
  'x, y, z'

loop_
  _atom_site_type_symbol
  _atom_site_label
  _atom_site_symmetry_multiplicity
  _atom_site_fract_x
  _atom_site_fract_y
  _atom_site_fract_z
  _atom_site_occupancy
  Zn  Zn1       1.0  0.96847  0.35401  0.43449  1.0000
  Zn  Zn2       1.0  0.03153  0.64599  0.56551  1.0000
  Zn  Zn3       1.0  0.17538  0.92808  0.35560  1.0000
  Zn  Zn4       1.0  0.82462  0.07192  0.64440  1.0000
  H   H1        1.0  0.51061  0.59576  0.32513  1.0000
  H   H2        1.0  0.48939  0.40424  0.67487  1.0000
  H   H3        1.0  0.68345  0.38127  0.32072  1.0000
  H   H4        1.0  0.31655  0.61873  0.67928  1.0000
  H   H5        1.0  0.62783  0.18749  0.38724  1.0000
  H   H6        1.0  0.37217  0.81251  0.61276  1.0000
  H   H7        1.0  0.15510  0.18769  0.86631  1.0000
  H   H8        1.0  0.84490  0.81231  0.13369  1.0000
  H   H9        1.0  0.36474  0.23526  0.82994  1.0000
  H   H10       1.0  0.63526  0.76473  0.17006  1.0000
  H   H11       1.0  0.46751  0.23029  0.63966  1.0000
  H   H12       1.0  0.53249  0.76970  0.36034  1.0000
  H   H13       1.0  0.20094  0.21012  0.27495  1.0000
  H   H14       1.0  0.79906  0.78988  0.72505  1.0000
  H   H15       1.0  0.36881  0.06550  0.97333  1.0000
  H   H16       1.0  0.63119  0.93449  0.02667  1.0000
  H   H17       1.0  0.30074  0.88216  0.11640  1.0000
  H   H18       1.0  0.69926  0.11784  0.88360  1.0000
  H   H19       1.0  0.25901  0.35742  0.13183  1.0000
  H   H20       1.0  0.74099  0.64258  0.86817  1.0000
  H   H21       1.0  0.26859  0.33067  0.99080  1.0000
  H   H22       1.0  0.73141  0.66933  0.00920  1.0000
  H   H23       1.0  0.50112  0.12503  0.21242  1.0000
  H   H24       1.0  0.49888  0.87497  0.78758  1.0000
  H   H25       1.0  0.73748  0.08831  0.20241  1.0000
  H   H26       1.0  0.26252  0.91169  0.79759  1.0000
  H   H27       1.0  0.68391  0.36843  0.91093  1.0000
  H   H28       1.0  0.31609  0.63157  0.08907  1.0000
  H   H29       1.0  0.44542  0.40699  0.92053  1.0000
  H   H30       1.0  0.55458  0.59301  0.07946  1.0000
  H   H31       1.0  0.92866  0.10246  0.08696  1.0000
  H   H32       1.0  0.07134  0.89754  0.91304  1.0000
  H   H33       1.0  0.91096  0.22102  0.97008  1.0000
  H   H34       1.0  0.08904  0.77898  0.02992  1.0000
  H   H35       1.0  0.87826  0.44983  0.00903  1.0000
  H   H36       1.0  0.12174  0.55017  0.99097  1.0000
  H   H37       1.0  0.90250  0.54194  0.20403  1.0000
  H   H38       1.0  0.09751  0.45806  0.79597  1.0000
  H   H39       1.0  0.92467  0.16106  0.28434  1.0000
  H   H40       1.0  0.07533  0.83894  0.71566  1.0000
  C   C1        1.0  0.42542  0.29546  0.42528  1.0000
  C   C2        1.0  0.57458  0.70454  0.57472  1.0000
  C   C3        1.0  0.32768  0.41757  0.42974  1.0000
  C   C4        1.0  0.67233  0.58243  0.57026  1.0000
  C   C5        1.0  0.35892  0.52659  0.39320  1.0000
  C   C6        1.0  0.64108  0.47341  0.60680  1.0000
  C   C7        1.0  0.48765  0.51083  0.35294  1.0000
  C   C8        1.0  0.51235  0.48917  0.64706  1.0000
  C   C9        1.0  0.58378  0.39071  0.34981  1.0000
  C   C10       1.0  0.41622  0.60929  0.65019  1.0000
  C   C11       1.0  0.55298  0.28257  0.38562  1.0000
  C   C12       1.0  0.44702  0.71743  0.61438  1.0000
  C   C13       1.0  0.39248  0.17775  0.46029  1.0000
  C   C14       1.0  0.60752  0.82225  0.53971  1.0000
  C   C15       1.0  0.32952  0.16775  0.57418  1.0000
  C   C16       1.0  0.67048  0.83225  0.42582  1.0000
  C   C17       1.0  0.22082  0.12838  0.59778  1.0000
  C   C18       1.0  0.77918  0.87162  0.40221  1.0000
  C   C19       1.0  0.15716  0.13968  0.70354  1.0000
  C   C20       1.0  0.84284  0.86032  0.29646  1.0000
  C   C21       1.0  0.20782  0.18046  0.78570  1.0000
  C   C22       1.0  0.79218  0.81954  0.21430  1.0000
  C   C23       1.0  0.32198  0.20812  0.76509  1.0000
  C   C24       1.0  0.67802  0.79188  0.23491  1.0000
  C   C25       1.0  0.38044  0.20494  0.65863  1.0000
  C   C26       1.0  0.61956  0.79506  0.34138  1.0000
  C   C27       1.0  0.19052  0.42219  0.46422  1.0000
  C   C28       1.0  0.80949  0.57781  0.53578  1.0000
  C   C29       1.0  0.26131  0.65979  0.39451  1.0000
  C   C30       1.0  0.73869  0.34021  0.60549  1.0000
  C   C31       1.0  0.17012  0.08205  0.50830  1.0000
  C   C32       1.0  0.82988  0.91795  0.49170  1.0000
  C   C33       1.0  0.03237  0.11235  0.73043  1.0000
  C   C34       1.0  0.96763  0.88765  0.26957  1.0000
  C   C35       1.0  0.23528  0.14504  0.21320  1.0000
  C   C36       1.0  0.76472  0.85496  0.78680  1.0000
  C   C37       1.0  0.32357  0.06745  0.05621  1.0000
  C   C38       1.0  0.67643  0.93255  0.94380  1.0000
  C   C39       1.0  0.29087  0.97734  0.12767  1.0000
  C   C40       1.0  0.70913  0.02266  0.87233  1.0000
  C   C41       1.0  0.31175  0.29005  0.07264  1.0000
  C   C42       1.0  0.68825  0.70995  0.92736  1.0000
  C   C43       1.0  0.45719  0.26778  0.06627  1.0000
  C   C44       1.0  0.54281  0.73222  0.93373  1.0000
  C   C45       1.0  0.54034  0.17823  0.14540  1.0000
  C   C46       1.0  0.45966  0.82177  0.85460  1.0000
  C   C47       1.0  0.67387  0.15817  0.14018  1.0000
  C   C48       1.0  0.32613  0.84183  0.85982  1.0000
  C   C49       1.0  0.72728  0.22583  0.05651  1.0000
  C   C50       1.0  0.27273  0.77417  0.94348  1.0000
  C   C51       1.0  0.64377  0.31625  0.97808  1.0000
  C   C52       1.0  0.35623  0.68375  0.02192  1.0000
  C   C53       1.0  0.50940  0.33695  0.98282  1.0000
  C   C54       1.0  0.49060  0.66305  0.01718  1.0000
  C   C55       1.0  0.87263  0.20197  0.05475  1.0000
  C   C56       1.0  0.12737  0.79803  0.94525  1.0000
  C   C57       1.0  0.89034  0.40630  0.09510  1.0000
  C   C58       1.0  0.10966  0.59370  0.90490  1.0000
  C   C59       1.0  0.90284  0.45009  0.19094  1.0000
  C   C60       1.0  0.09716  0.54991  0.80906  1.0000
  C   C61       1.0  0.91417  0.25350  0.23745  1.0000
  C   C62       1.0  0.08583  0.74650  0.76255  1.0000
  N   N1        1.0  0.23638  0.02681  0.22493  1.0000
  N   N2        1.0  0.76362  0.97319  0.77507  1.0000
  N   N3        1.0  0.28648  0.17348  0.11134  1.0000
  N   N4        1.0  0.71352  0.82652  0.88865  1.0000
  N   N5        1.0  0.89796  0.28216  0.12620  1.0000
  N   N6        1.0  0.10203  0.71784  0.87380  1.0000
  N   N7        1.0  0.91767  0.35371  0.27868  1.0000
  N   N8        1.0  0.08233  0.64629  0.72132  1.0000
  O   O1        1.0  0.13918  0.38381  0.39387  1.0000
  O   O2        1.0  0.86082  0.61619  0.60613  1.0000
  O   O3        1.0  0.13831  0.45341  0.55748  1.0000
  O   O4        1.0  0.86169  0.54659  0.44252  1.0000
  O   O5        1.0  0.14534  0.68263  0.43591  1.0000
  O   O6        1.0  0.85466  0.31737  0.56409  1.0000
  O   O7        1.0  0.30143  0.74915  0.35045  1.0000
  O   O8        1.0  0.69857  0.25085  0.64956  1.0000
  O   O9        1.0  0.41739  0.09619  0.39786  1.0000
  O   O10       1.0  0.58261  0.90381  0.60214  1.0000
  O   O11       1.0  0.08338  0.16003  0.44332  1.0000
  O   O12       1.0  0.91662  0.83997  0.55668  1.0000
  O   O13       1.0  0.22473  0.96449  0.49716  1.0000
  O   O14       1.0  0.77527  0.03551  0.50284  1.0000
  O   O15       1.0  0.01012  0.04585  0.66255  1.0000
  O   O16       1.0  0.98988  0.95415  0.33745  1.0000
  O   O17       1.0  0.96046  0.15239  0.81240  1.0000
  O   O18       1.0  0.03954  0.84761  0.18760  1.0000
