data_image0
_chemical_formula_structural       Cd2H24C24N20O4
_chemical_formula_sum              "Cd2 H24 C24 N20 O4"
_cell_length_a       7.91159
_cell_length_b       8.4244
_cell_length_c       10.8944
_cell_angle_alpha    95.6346
_cell_angle_beta     90
_cell_angle_gamma    90

_space_group_name_H-M_alt    "P 1"
_space_group_IT_number       1

loop_
  _space_group_symop_operation_xyz
  'x, y, z'

loop_
  _atom_site_type_symbol
  _atom_site_label
  _atom_site_symmetry_multiplicity
  _atom_site_fract_x
  _atom_site_fract_y
  _atom_site_fract_z
  _atom_site_occupancy
  Cd  Cd1       1.0  0.00000  0.00000  0.00000  1.0000
  Cd  Cd2       1.0  0.50000  0.50000  0.50000  1.0000
  H   H1        1.0  0.67228  0.01121  0.89212  1.0000
  H   H2        1.0  0.82772  0.51121  0.39212  1.0000
  H   H3        1.0  0.32772  0.98879  0.10788  1.0000
  H   H4        1.0  0.17228  0.48879  0.60788  1.0000
  H   H5        1.0  0.03613  0.78767  0.23440  1.0000
  H   H6        1.0  0.46387  0.28767  0.73440  1.0000
  H   H7        1.0  0.96387  0.21233  0.76559  1.0000
  H   H8        1.0  0.53613  0.71233  0.26559  1.0000
  H   H9        1.0  0.26670  0.11210  0.51799  1.0000
  H   H10       1.0  0.23330  0.61209  0.01799  1.0000
  H   H11       1.0  0.73330  0.88790  0.48201  1.0000
  H   H12       1.0  0.76670  0.38790  0.98201  1.0000
  H   H13       1.0  0.20896  0.57113  0.31011  1.0000
  H   H14       1.0  0.29104  0.07112  0.81010  1.0000
  H   H15       1.0  0.79104  0.42887  0.68989  1.0000
  H   H16       1.0  0.70896  0.92887  0.18989  1.0000
  H   H17       1.0  0.43207  0.88166  0.58039  1.0000
  H   H18       1.0  0.06793  0.38165  0.08039  1.0000
  H   H19       1.0  0.56793  0.11835  0.41961  1.0000
  H   H20       1.0  0.93207  0.61835  0.91961  1.0000
  H   H21       1.0  0.66012  0.15560  0.99846  1.0000
  H   H22       1.0  0.83988  0.65560  0.49846  1.0000
  H   H23       1.0  0.33989  0.84440  0.00154  1.0000
  H   H24       1.0  0.16012  0.34440  0.50155  1.0000
  C   C1        1.0  0.04950  0.10557  0.32449  1.0000
  C   C2        1.0  0.45050  0.60556  0.82449  1.0000
  C   C3        1.0  0.95050  0.89443  0.67551  1.0000
  C   C4        1.0  0.54950  0.39444  0.17551  1.0000
  C   C5        1.0  0.13990  0.97054  0.36763  1.0000
  C   C6        1.0  0.36010  0.47054  0.86763  1.0000
  C   C7        1.0  0.86010  0.02946  0.63237  1.0000
  C   C8        1.0  0.63990  0.52946  0.13237  1.0000
  C   C9        1.0  0.12217  0.81461  0.31126  1.0000
  C   C10       1.0  0.37783  0.31461  0.81126  1.0000
  C   C11       1.0  0.87783  0.18539  0.68874  1.0000
  C   C12       1.0  0.62216  0.68539  0.18873  1.0000
  C   C13       1.0  0.25010  0.99436  0.46874  1.0000
  C   C14       1.0  0.24990  0.49435  0.96874  1.0000
  C   C15       1.0  0.74990  0.00564  0.53126  1.0000
  C   C16       1.0  0.75010  0.50564  0.03126  1.0000
  C   C17       1.0  0.21853  0.69311  0.35336  1.0000
  C   C18       1.0  0.28147  0.19311  0.85336  1.0000
  C   C19       1.0  0.78147  0.30689  0.64664  1.0000
  C   C20       1.0  0.71853  0.80689  0.14664  1.0000
  C   C21       1.0  0.34217  0.86636  0.50427  1.0000
  C   C22       1.0  0.15784  0.36636  0.00427  1.0000
  C   C23       1.0  0.65783  0.13364  0.49573  1.0000
  C   C24       1.0  0.84216  0.63364  0.99573  1.0000
  N   N1        1.0  0.03023  0.24661  0.39247  1.0000
  N   N2        1.0  0.46977  0.74661  0.89247  1.0000
  N   N3        1.0  0.96977  0.75338  0.60753  1.0000
  N   N4        1.0  0.53023  0.25339  0.10753  1.0000
  N   N5        1.0  0.97337  0.11099  0.21345  1.0000
  N   N6        1.0  0.52663  0.61099  0.71345  1.0000
  N   N7        1.0  0.02663  0.88901  0.78655  1.0000
  N   N8        1.0  0.47337  0.38901  0.28655  1.0000
  N   N9        1.0  0.94071  0.33823  0.32259  1.0000
  N   N10       1.0  0.55929  0.83823  0.82259  1.0000
  N   N11       1.0  0.05929  0.66177  0.67742  1.0000
  N   N12       1.0  0.44071  0.16177  0.17742  1.0000
  N   N13       1.0  0.90624  0.25793  0.21521  1.0000
  N   N14       1.0  0.59376  0.75793  0.71521  1.0000
  N   N15       1.0  0.09376  0.74207  0.78479  1.0000
  N   N16       1.0  0.40624  0.24207  0.28479  1.0000
  N   N17       1.0  0.33018  0.71798  0.44652  1.0000
  N   N18       1.0  0.16983  0.21798  0.94653  1.0000
  N   N19       1.0  0.66982  0.28202  0.55348  1.0000
  N   N20       1.0  0.83018  0.78202  0.05348  1.0000
  O   O1        1.0  0.73957  0.09965  0.93636  1.0000
  O   O2        1.0  0.76043  0.59965  0.43636  1.0000
  O   O3        1.0  0.26043  0.90035  0.06364  1.0000
  O   O4        1.0  0.23957  0.40035  0.56364  1.0000
