data_image0
_chemical_formula_structural       Zn4H40C60N4O18
_chemical_formula_sum              "Zn4 H40 C60 N4 O18"
_cell_length_a       11.2891
_cell_length_b       11.6462
_cell_length_c       12.1332
_cell_angle_alpha    93.1001
_cell_angle_beta     107.558
_cell_angle_gamma    94.1468

_space_group_name_H-M_alt    "P 1"
_space_group_IT_number       1

loop_
  _space_group_symop_operation_xyz
  'x, y, z'

loop_
  _atom_site_type_symbol
  _atom_site_label
  _atom_site_symmetry_multiplicity
  _atom_site_fract_x
  _atom_site_fract_y
  _atom_site_fract_z
  _atom_site_occupancy
  Zn  Zn1       1.0  0.22638  0.05158  0.55393  1.0000
  Zn  Zn2       1.0  0.77362  0.94842  0.44607  1.0000
  Zn  Zn3       1.0  0.96743  0.32810  0.43562  1.0000
  Zn  Zn4       1.0  0.03257  0.67190  0.56438  1.0000
  H   H1        1.0  0.79493  0.68897  0.08354  1.0000
  H   H2        1.0  0.20507  0.31102  0.91646  1.0000
  H   H3        1.0  0.94214  0.56223  0.02724  1.0000
  H   H4        1.0  0.05786  0.43776  0.97277  1.0000
  H   H5        1.0  0.15788  0.56042  0.16325  1.0000
  H   H6        1.0  0.84213  0.43958  0.83677  1.0000
  H   H7        1.0  0.44726  0.27562  0.41586  1.0000
  H   H8        1.0  0.55273  0.72438  0.58413  1.0000
  H   H9        1.0  0.55537  0.42630  0.33374  1.0000
  H   H10       1.0  0.44463  0.57371  0.66626  1.0000
  H   H11       1.0  0.47275  0.62016  0.30643  1.0000
  H   H12       1.0  0.52725  0.37985  0.69357  1.0000
  H   H13       1.0  0.85683  0.39140  0.18942  1.0000
  H   H14       1.0  0.14316  0.60860  0.81058  1.0000
  H   H15       1.0  0.78642  0.28581  0.99159  1.0000
  H   H16       1.0  0.21359  0.71419  0.00841  1.0000
  H   H17       1.0  0.94237  0.98623  0.15336  1.0000
  H   H18       1.0  0.05763  0.01377  0.84664  1.0000
  H   H19       1.0  0.99834  0.09918  0.34128  1.0000
  H   H20       1.0  0.00167  0.90083  0.65872  1.0000
  H   H21       1.0  0.88331  0.07680  0.89096  1.0000
  H   H22       1.0  0.11669  0.92319  0.10904  1.0000
  H   H23       1.0  0.72899  0.09264  0.88569  1.0000
  H   H24       1.0  0.27101  0.90735  0.11432  1.0000
  H   H25       1.0  0.73166  0.91065  0.99771  1.0000
  H   H26       1.0  0.26834  0.08935  0.00229  1.0000
  H   H27       1.0  0.88067  0.89172  0.98521  1.0000
  H   H28       1.0  0.11934  0.10828  0.01479  1.0000
  H   H29       1.0  0.72366  0.76833  0.83531  1.0000
  H   H30       1.0  0.27634  0.23166  0.16469  1.0000
  H   H31       1.0  0.79805  0.87275  0.77099  1.0000
  H   H32       1.0  0.20195  0.12725  0.22901  1.0000
  H   H33       1.0  0.68895  0.02798  0.66956  1.0000
  H   H34       1.0  0.31105  0.97202  0.33044  1.0000
  H   H35       1.0  0.48474  0.10058  0.57405  1.0000
  H   H36       1.0  0.51526  0.89942  0.42595  1.0000
  H   H37       1.0  0.29674  0.86114  0.71680  1.0000
  H   H38       1.0  0.70326  0.13886  0.28320  1.0000
  H   H39       1.0  0.49600  0.78480  0.82800  1.0000
  H   H40       1.0  0.50401  0.21520  0.17199  1.0000
  C   C1        1.0  0.13810  0.69710  0.28096  1.0000
  C   C2        1.0  0.86190  0.30291  0.71905  1.0000
  C   C3        1.0  0.05738  0.77421  0.30739  1.0000
  C   C4        1.0  0.94261  0.22579  0.69262  1.0000
  C   C5        1.0  0.93261  0.76742  0.23592  1.0000
  C   C6        1.0  0.06738  0.23257  0.76408  1.0000
  C   C7        1.0  0.89262  0.69136  0.13560  1.0000
  C   C8        1.0  0.10738  0.30863  0.86440  1.0000
  C   C9        1.0  0.97387  0.62004  0.10621  1.0000
  C   C10       1.0  0.02613  0.37995  0.89380  1.0000
  C   C11       1.0  0.09481  0.62047  0.18095  1.0000
  C   C12       1.0  0.90519  0.37953  0.81906  1.0000
  C   C13       1.0  0.26915  0.69106  0.35705  1.0000
  C   C14       1.0  0.73085  0.30895  0.64295  1.0000
  C   C15       1.0  0.31596  0.57312  0.36647  1.0000
  C   C16       1.0  0.68404  0.42689  0.63353  1.0000
  C   C17       1.0  0.25363  0.48677  0.41114  1.0000
  C   C18       1.0  0.74637  0.51323  0.58886  1.0000
  C   C19       1.0  0.30072  0.37843  0.42786  1.0000
  C   C20       1.0  0.69928  0.62158  0.57214  1.0000
  C   C21       1.0  0.40906  0.35825  0.39853  1.0000
  C   C22       1.0  0.59094  0.64175  0.60146  1.0000
  C   C23       1.0  0.46969  0.44317  0.35311  1.0000
  C   C24       1.0  0.53030  0.55684  0.64689  1.0000
  C   C25       1.0  0.42394  0.55134  0.33812  1.0000
  C   C26       1.0  0.57605  0.44867  0.66188  1.0000
  C   C27       1.0  0.10369  0.85743  0.41468  1.0000
  C   C28       1.0  0.89630  0.14257  0.58532  1.0000
  C   C29       1.0  0.83577  0.83360  0.26814  1.0000
  C   C30       1.0  0.16422  0.16640  0.73185  1.0000
  C   C31       1.0  0.14437  0.52248  0.44725  1.0000
  C   C32       1.0  0.85563  0.47753  0.55274  1.0000
  C   C33       1.0  0.24159  0.28560  0.48108  1.0000
  C   C34       1.0  0.75841  0.71440  0.51891  1.0000
  C   C35       1.0  0.87255  0.30106  0.17610  1.0000
  C   C36       1.0  0.12745  0.69894  0.82390  1.0000
  C   C37       1.0  0.83518  0.24197  0.06702  1.0000
  C   C38       1.0  0.16482  0.75803  0.93298  1.0000
  C   C39       1.0  0.85846  0.12579  0.05438  1.0000
  C   C40       1.0  0.14155  0.87420  0.94562  1.0000
  C   C41       1.0  0.92133  0.07579  0.15527  1.0000
  C   C42       1.0  0.07867  0.92421  0.84473  1.0000
  C   C43       1.0  0.95421  0.13910  0.26200  1.0000
  C   C44       1.0  0.04579  0.86090  0.73801  1.0000
  C   C45       1.0  0.81479  0.05838  0.93776  1.0000
  C   C46       1.0  0.18521  0.94162  0.06224  1.0000
  C   C47       1.0  0.79221  0.92774  0.94307  1.0000
  C   C48       1.0  0.20779  0.07226  0.05693  1.0000
  C   C49       1.0  0.73432  0.86101  0.82332  1.0000
  C   C50       1.0  0.26568  0.13899  0.17668  1.0000
  C   C51       1.0  0.61049  0.90057  0.75869  1.0000
  C   C52       1.0  0.38951  0.09943  0.24131  1.0000
  C   C53       1.0  0.60508  0.98969  0.68504  1.0000
  C   C54       1.0  0.39493  0.01031  0.31496  1.0000
  C   C55       1.0  0.49108  0.02948  0.62952  1.0000
  C   C56       1.0  0.50892  0.97052  0.37048  1.0000
  C   C57       1.0  0.38648  0.89662  0.71116  1.0000
  C   C58       1.0  0.61352  0.10338  0.28884  1.0000
  C   C59       1.0  0.49771  0.85447  0.77183  1.0000
  C   C60       1.0  0.50229  0.14553  0.22817  1.0000
  N   N1        1.0  0.92954  0.24970  0.27261  1.0000
  N   N2        1.0  0.07046  0.75030  0.72740  1.0000
  N   N3        1.0  0.38326  0.98313  0.64128  1.0000
  N   N4        1.0  0.61674  0.01687  0.35872  1.0000
  O   O1        1.0  0.10505  0.82419  0.51251  1.0000
  O   O2        1.0  0.89494  0.17582  0.48749  1.0000
  O   O3        1.0  0.14775  0.95833  0.40151  1.0000
  O   O4        1.0  0.85225  0.04167  0.59849  1.0000
  O   O5        1.0  0.88269  0.90985  0.35612  1.0000
  O   O6        1.0  0.11730  0.09015  0.64388  1.0000
  O   O7        1.0  0.72337  0.81159  0.21329  1.0000
  O   O8        1.0  0.27663  0.18841  0.78670  1.0000
  O   O9        1.0  0.33686  0.77690  0.40935  1.0000
  O   O10       1.0  0.66313  0.22310  0.59065  1.0000
  O   O11       1.0  0.03358  0.48856  0.38704  1.0000
  O   O12       1.0  0.96642  0.51144  0.61296  1.0000
  O   O13       1.0  0.17494  0.59642  0.53517  1.0000
  O   O14       1.0  0.82506  0.40358  0.46483  1.0000
  O   O15       1.0  0.14793  0.30439  0.51478  1.0000
  O   O16       1.0  0.85206  0.69561  0.48521  1.0000
  O   O17       1.0  0.29232  0.19044  0.49132  1.0000
  O   O18       1.0  0.70767  0.80955  0.50866  1.0000
