data_image0
_chemical_formula_structural       Cd4H44C62N8O20
_chemical_formula_sum              "Cd4 H44 C62 N8 O20"
_cell_length_a       11.9782
_cell_length_b       11.3695
_cell_length_c       12.684
_cell_angle_alpha    67.3305
_cell_angle_beta     69.0953
_cell_angle_gamma    84.0854

_space_group_name_H-M_alt    "P 1"
_space_group_IT_number       1

loop_
  _space_group_symop_operation_xyz
  'x, y, z'

loop_
  _atom_site_type_symbol
  _atom_site_label
  _atom_site_symmetry_multiplicity
  _atom_site_fract_x
  _atom_site_fract_y
  _atom_site_fract_z
  _atom_site_occupancy
  Cd  Cd1       1.0  0.48578  0.34180  0.01645  1.0000
  Cd  Cd2       1.0  0.51423  0.65821  0.98354  1.0000
  Cd  Cd3       1.0  0.65813  0.01502  0.12289  1.0000
  Cd  Cd4       1.0  0.34187  0.98498  0.87712  1.0000
  H   H1        1.0  0.82772  0.85521  0.10667  1.0000
  H   H2        1.0  0.17228  0.14479  0.89333  1.0000
  H   H3        1.0  0.85851  0.92965  0.17930  1.0000
  H   H4        1.0  0.14149  0.07034  0.82070  1.0000
  H   H5        1.0  0.96777  0.15737  0.42433  1.0000
  H   H6        1.0  0.03221  0.84263  0.57567  1.0000
  H   H7        1.0  0.11503  0.09604  0.53323  1.0000
  H   H8        1.0  0.88496  0.90396  0.46677  1.0000
  H   H9        1.0  0.31742  0.03131  0.43148  1.0000
  H   H10       1.0  0.68257  0.96871  0.56852  1.0000
  H   H11       1.0  0.82955  0.62245  0.09016  1.0000
  H   H12       1.0  0.17046  0.37755  0.90985  1.0000
  H   H13       1.0  0.01558  0.57543  0.14295  1.0000
  H   H14       1.0  0.98442  0.42457  0.85705  1.0000
  H   H15       1.0  0.08446  0.35307  0.20101  1.0000
  H   H16       1.0  0.91554  0.64693  0.79899  1.0000
  H   H17       1.0  0.23784  0.45250  0.20327  1.0000
  H   H18       1.0  0.76217  0.54749  0.79672  1.0000
  H   H19       1.0  0.21040  0.39625  0.44543  1.0000
  H   H20       1.0  0.78960  0.60374  0.55457  1.0000
  H   H21       1.0  0.53168  0.24258  0.27722  1.0000
  H   H22       1.0  0.46833  0.75743  0.72278  1.0000
  H   H23       1.0  0.47678  0.19657  0.50065  1.0000
  H   H24       1.0  0.52321  0.80343  0.49935  1.0000
  H   H25       1.0  0.33053  0.22764  0.58444  1.0000
  H   H26       1.0  0.66946  0.77236  0.41555  1.0000
  H   H27       1.0  0.30167  0.40212  0.64984  1.0000
  H   H28       1.0  0.69832  0.59788  0.35017  1.0000
  H   H29       1.0  0.62413  0.39878  0.35642  1.0000
  H   H30       1.0  0.37586  0.60121  0.64360  1.0000
  H   H31       1.0  0.47763  0.33785  0.75927  1.0000
  H   H32       1.0  0.52237  0.66215  0.24074  1.0000
  H   H33       1.0  0.77393  0.26667  0.87798  1.0000
  H   H34       1.0  0.22608  0.73332  0.12202  1.0000
  H   H35       1.0  0.67144  0.28255  0.58524  1.0000
  H   H36       1.0  0.32856  0.71745  0.41476  1.0000
  H   H37       1.0  0.87775  0.19465  0.59082  1.0000
  H   H38       1.0  0.12224  0.80535  0.40917  1.0000
  H   H39       1.0  0.92321  0.18881  0.71124  1.0000
  H   H40       1.0  0.07680  0.81120  0.28874  1.0000
  H   H41       1.0  0.88610  0.40959  0.41681  1.0000
  H   H42       1.0  0.11390  0.59041  0.58317  1.0000
  H   H43       1.0  0.02167  0.37236  0.69992  1.0000
  H   H44       1.0  0.97834  0.62764  0.30006  1.0000
  C   C1        1.0  0.41528  0.03973  0.21036  1.0000
  C   C2        1.0  0.58471  0.96026  0.78964  1.0000
  C   C3        1.0  0.22675  0.09014  0.08150  1.0000
  C   C4        1.0  0.77325  0.90986  0.91851  1.0000
  C   C5        1.0  0.77971  0.20333  0.12833  1.0000
  C   C6        1.0  0.22029  0.79667  0.87167  1.0000
  C   C7        1.0  0.69689  0.47023  0.06633  1.0000
  C   C8        1.0  0.30312  0.52978  0.93366  1.0000
  C   C9        1.0  0.98687  0.14498  0.21475  1.0000
  C   C10       1.0  0.01313  0.85502  0.78525  1.0000
  C   C11       1.0  0.28533  0.06017  0.26724  1.0000
  C   C12       1.0  0.71465  0.93983  0.73278  1.0000
  C   C13       1.0  0.20159  0.09193  0.20651  1.0000
  C   C14       1.0  0.79841  0.90807  0.79349  1.0000
  C   C15       1.0  0.08642  0.12434  0.26629  1.0000
  C   C16       1.0  0.91358  0.87565  0.73371  1.0000
  C   C17       1.0  0.05696  0.12941  0.38140  1.0000
  C   C18       1.0  0.94304  0.87058  0.61860  1.0000
  C   C19       1.0  0.13906  0.09538  0.44203  1.0000
  C   C20       1.0  0.86093  0.90462  0.55798  1.0000
  C   C21       1.0  0.25179  0.05839  0.38580  1.0000
  C   C22       1.0  0.74821  0.94161  0.61421  1.0000
  C   C23       1.0  0.94313  0.27654  0.17566  1.0000
  C   C24       1.0  0.05687  0.72345  0.82433  1.0000
  C   C25       1.0  0.84193  0.30505  0.13858  1.0000
  C   C26       1.0  0.15808  0.69495  0.86141  1.0000
  C   C27       1.0  0.80113  0.43029  0.11048  1.0000
  C   C28       1.0  0.19887  0.56972  0.88951  1.0000
  C   C29       1.0  0.86180  0.52585  0.11605  1.0000
  C   C30       1.0  0.13820  0.47414  0.88395  1.0000
  C   C31       1.0  0.96450  0.49901  0.14680  1.0000
  C   C32       1.0  0.03551  0.50099  0.85321  1.0000
  C   C33       1.0  0.00397  0.37502  0.17706  1.0000
  C   C34       1.0  0.99603  0.62498  0.82293  1.0000
  C   C35       1.0  0.29317  0.39840  0.25546  1.0000
  C   C36       1.0  0.70684  0.60160  0.74453  1.0000
  C   C37       1.0  0.27906  0.37223  0.37467  1.0000
  C   C38       1.0  0.72094  0.62776  0.62532  1.0000
  C   C39       1.0  0.44774  0.29210  0.28883  1.0000
  C   C40       1.0  0.55226  0.70791  0.71117  1.0000
  C   C41       1.0  0.40963  0.26982  0.50320  1.0000
  C   C42       1.0  0.59036  0.73016  0.49681  1.0000
  C   C43       1.0  0.45787  0.38687  0.50420  1.0000
  C   C44       1.0  0.54214  0.61314  0.49581  1.0000
  C   C45       1.0  0.38843  0.44560  0.58360  1.0000
  C   C46       1.0  0.61155  0.55440  0.41642  1.0000
  C   C47       1.0  0.56967  0.44222  0.42046  1.0000
  C   C48       1.0  0.43031  0.55776  0.57956  1.0000
  C   C49       1.0  0.56852  0.31656  0.75641  1.0000
  C   C50       1.0  0.43148  0.68343  0.24360  1.0000
  C   C51       1.0  0.71937  0.28108  0.82177  1.0000
  C   C52       1.0  0.28064  0.71891  0.17823  1.0000
  C   C53       1.0  0.66368  0.29083  0.66959  1.0000
  C   C54       1.0  0.33632  0.70916  0.33041  1.0000
  C   C55       1.0  0.88104  0.24836  0.64544  1.0000
  C   C56       1.0  0.11896  0.75164  0.35455  1.0000
  C   C57       1.0  0.93618  0.44852  0.45380  1.0000
  C   C58       1.0  0.06382  0.55148  0.54619  1.0000
  C   C59       1.0  0.94716  0.37598  0.56712  1.0000
  C   C60       1.0  0.05284  0.62402  0.43286  1.0000
  C   C61       1.0  0.01178  0.42861  0.61226  1.0000
  C   C62       1.0  0.98822  0.57140  0.38772  1.0000
  N   N1        1.0  0.39854  0.34836  0.20305  1.0000
  N   N2        1.0  0.60147  0.65165  0.79694  1.0000
  N   N3        1.0  0.37708  0.30425  0.39428  1.0000
  N   N4        1.0  0.62293  0.69575  0.60572  1.0000
  N   N5        1.0  0.60482  0.31046  0.84987  1.0000
  N   N6        1.0  0.39519  0.68953  0.15013  1.0000
  N   N7        1.0  0.75762  0.26729  0.71290  1.0000
  N   N8        1.0  0.24238  0.73272  0.28710  1.0000
  O   O1        1.0  0.46518  0.94924  0.27164  1.0000
  O   O2        1.0  0.53482  0.05076  0.72836  1.0000
  O   O3        1.0  0.47571  0.12036  0.10518  1.0000
  O   O4        1.0  0.52429  0.87965  0.89482  1.0000
  O   O5        1.0  0.16617  0.16243  0.01955  1.0000
  O   O6        1.0  0.83383  0.83757  0.98046  1.0000
  O   O7        1.0  0.30442  0.01274  0.05079  1.0000
  O   O8        1.0  0.69557  0.98725  0.94922  1.0000
  O   O9        1.0  0.82297  0.17817  0.03289  1.0000
  O   O10       1.0  0.17702  0.82183  0.96711  1.0000
  O   O11       1.0  0.68591  0.14718  0.21766  1.0000
  O   O12       1.0  0.31409  0.85283  0.78235  1.0000
  O   O13       1.0  0.66629  0.40263  0.02080  1.0000
  O   O14       1.0  0.33371  0.59737  0.97920  1.0000
  O   O15       1.0  0.64907  0.57329  0.07496  1.0000
  O   O16       1.0  0.35096  0.42673  0.92501  1.0000
  O   O17       1.0  0.93761  0.05040  0.22162  1.0000
  O   O18       1.0  0.06239  0.94960  0.77838  1.0000
  O   O19       1.0  0.79966  0.87115  0.18523  1.0000
  O   O20       1.0  0.20034  0.12885  0.81477  1.0000
