data_image0
_chemical_formula_structural       Zn4H48C56N16O16
_chemical_formula_sum              "Zn4 H48 C56 N16 O16"
_cell_length_a       6.79477
_cell_length_b       11.9148
_cell_length_c       18.6231
_cell_angle_alpha    89.9998
_cell_angle_beta     99.8445
_cell_angle_gamma    90.0001

_space_group_name_H-M_alt    "P 1"
_space_group_IT_number       1

loop_
  _space_group_symop_operation_xyz
  'x, y, z'

loop_
  _atom_site_type_symbol
  _atom_site_label
  _atom_site_symmetry_multiplicity
  _atom_site_fract_x
  _atom_site_fract_y
  _atom_site_fract_z
  _atom_site_occupancy
  Zn  Zn1       1.0  0.22332  0.20642  0.35903  1.0000
  Zn  Zn2       1.0  0.22331  0.29358  0.85902  1.0000
  Zn  Zn3       1.0  0.77670  0.79359  0.64098  1.0000
  Zn  Zn4       1.0  0.77668  0.70642  0.14098  1.0000
  H   H1        1.0  0.55474  0.38776  0.36009  1.0000
  H   H2        1.0  0.55474  0.11224  0.86008  1.0000
  H   H3        1.0  0.44526  0.61225  0.63991  1.0000
  H   H4        1.0  0.44525  0.88775  0.13991  1.0000
  H   H5        1.0  0.91463  0.85192  0.44655  1.0000
  H   H6        1.0  0.91463  0.64807  0.94655  1.0000
  H   H7        1.0  0.08536  0.14808  0.55345  1.0000
  H   H8        1.0  0.08535  0.35192  0.05345  1.0000
  H   H9        1.0  0.28822  0.28384  0.63571  1.0000
  H   H10       1.0  0.28822  0.21616  0.13571  1.0000
  H   H11       1.0  0.71180  0.71616  0.36430  1.0000
  H   H12       1.0  0.71178  0.78385  0.86429  1.0000
  H   H13       1.0  0.80930  0.46555  0.73535  1.0000
  H   H14       1.0  0.80929  0.03445  0.23534  1.0000
  H   H15       1.0  0.19072  0.53446  0.26466  1.0000
  H   H16       1.0  0.19070  0.96555  0.76465  1.0000
  H   H17       1.0  0.90507  0.49461  0.61327  1.0000
  H   H18       1.0  0.90506  0.00539  0.11327  1.0000
  H   H19       1.0  0.09494  0.50540  0.38673  1.0000
  H   H20       1.0  0.09493  0.99461  0.88673  1.0000
  H   H21       1.0  0.69105  0.41770  0.50236  1.0000
  H   H22       1.0  0.69105  0.08230  0.00236  1.0000
  H   H23       1.0  0.30895  0.58230  0.49764  1.0000
  H   H24       1.0  0.30894  0.91770  0.99763  1.0000
  H   H25       1.0  0.85455  0.28860  0.43199  1.0000
  H   H26       1.0  0.85455  0.21139  0.93198  1.0000
  H   H27       1.0  0.14545  0.71140  0.56802  1.0000
  H   H28       1.0  0.14544  0.78860  0.06802  1.0000
  H   H29       1.0  0.60244  0.43095  0.22823  1.0000
  H   H30       1.0  0.60243  0.06905  0.72822  1.0000
  H   H31       1.0  0.39757  0.56905  0.77177  1.0000
  H   H32       1.0  0.39757  0.93094  0.27177  1.0000
  H   H33       1.0  0.97135  0.33442  0.21881  1.0000
  H   H34       1.0  0.97135  0.16558  0.71880  1.0000
  H   H35       1.0  0.02867  0.66558  0.78119  1.0000
  H   H36       1.0  0.02865  0.83442  0.28120  1.0000
  H   H37       1.0  0.84450  0.03801  0.37149  1.0000
  H   H38       1.0  0.84451  0.46199  0.87149  1.0000
  H   H39       1.0  0.15549  0.96200  0.62852  1.0000
  H   H40       1.0  0.15549  0.53801  0.12851  1.0000
  H   H41       1.0  0.28361  0.81805  0.48412  1.0000
  H   H42       1.0  0.28360  0.68194  0.98412  1.0000
  H   H43       1.0  0.71639  0.18194  0.51587  1.0000
  H   H44       1.0  0.71639  0.31806  0.01587  1.0000
  H   H45       1.0  0.47049  0.99993  0.42931  1.0000
  H   H46       1.0  0.47050  0.50007  0.92931  1.0000
  H   H47       1.0  0.52950  0.00007  0.57069  1.0000
  H   H48       1.0  0.52950  0.49993  0.07069  1.0000
  C   C1        1.0  0.47642  0.34444  0.56173  1.0000
  C   C2        1.0  0.47641  0.15556  0.06173  1.0000
  C   C3        1.0  0.52359  0.65557  0.43828  1.0000
  C   C4        1.0  0.52358  0.84443  0.93827  1.0000
  C   C5        1.0  0.42378  0.32929  0.63047  1.0000
  C   C6        1.0  0.42377  0.17071  0.13047  1.0000
  C   C7        1.0  0.57623  0.67072  0.36954  1.0000
  C   C8        1.0  0.57622  0.82928  0.86953  1.0000
  C   C9        1.0  0.54319  0.37181  0.69300  1.0000
  C   C10       1.0  0.54319  0.12820  0.19300  1.0000
  C   C11       1.0  0.45681  0.62820  0.30701  1.0000
  C   C12       1.0  0.45680  0.87180  0.80700  1.0000
  C   C13       1.0  0.71703  0.43170  0.68650  1.0000
  C   C14       1.0  0.71701  0.06830  0.18650  1.0000
  C   C15       1.0  0.28298  0.56831  0.31350  1.0000
  C   C16       1.0  0.28297  0.93170  0.81349  1.0000
  C   C17       1.0  0.77032  0.44771  0.61809  1.0000
  C   C18       1.0  0.77031  0.05229  0.11808  1.0000
  C   C19       1.0  0.22969  0.55229  0.38192  1.0000
  C   C20       1.0  0.22968  0.94771  0.88191  1.0000
  C   C21       1.0  0.65075  0.40429  0.55585  1.0000
  C   C22       1.0  0.65074  0.09571  0.05585  1.0000
  C   C23       1.0  0.34926  0.59572  0.44416  1.0000
  C   C24       1.0  0.34925  0.90428  0.94415  1.0000
  C   C25       1.0  0.34664  0.29300  0.49693  1.0000
  C   C26       1.0  0.34663  0.20701  0.99692  1.0000
  C   C27       1.0  0.65338  0.70701  0.50308  1.0000
  C   C28       1.0  0.65336  0.79299  0.00307  1.0000
  C   C29       1.0  0.48206  0.35517  0.76614  1.0000
  C   C30       1.0  0.48205  0.14483  0.26614  1.0000
  C   C31       1.0  0.51795  0.64483  0.23386  1.0000
  C   C32       1.0  0.51794  0.85517  0.73386  1.0000
  C   C33       1.0  0.83783  0.31414  0.37558  1.0000
  C   C34       1.0  0.83782  0.18586  0.87557  1.0000
  C   C35       1.0  0.16218  0.68587  0.62442  1.0000
  C   C36       1.0  0.16217  0.81414  0.12442  1.0000
  C   C37       1.0  0.71066  0.38831  0.26851  1.0000
  C   C38       1.0  0.71066  0.11169  0.76850  1.0000
  C   C39       1.0  0.28936  0.61169  0.73150  1.0000
  C   C40       1.0  0.28934  0.88830  0.23150  1.0000
  C   C41       1.0  0.89246  0.34055  0.26454  1.0000
  C   C42       1.0  0.89246  0.15945  0.76454  1.0000
  C   C43       1.0  0.10755  0.65945  0.73547  1.0000
  C   C44       1.0  0.10755  0.84055  0.23547  1.0000
  C   C45       1.0  0.99063  0.00396  0.39467  1.0000
  C   C46       1.0  0.99063  0.49604  0.89466  1.0000
  C   C47       1.0  0.00937  0.99605  0.60533  1.0000
  C   C48       1.0  0.00937  0.50396  0.10534  1.0000
  C   C49       1.0  0.22286  0.89023  0.45271  1.0000
  C   C50       1.0  0.22286  0.60976  0.95272  1.0000
  C   C51       1.0  0.77714  0.10976  0.54728  1.0000
  C   C52       1.0  0.77713  0.39024  0.04728  1.0000
  C   C53       1.0  0.31379  0.98036  0.42628  1.0000
  C   C54       1.0  0.31379  0.51964  0.92628  1.0000
  C   C55       1.0  0.68622  0.01965  0.57372  1.0000
  C   C56       1.0  0.68621  0.48036  0.07372  1.0000
  N   N1        1.0  0.97034  0.29488  0.33182  1.0000
  N   N2        1.0  0.97034  0.20512  0.83182  1.0000
  N   N3        1.0  0.02967  0.70513  0.66818  1.0000
  N   N4        1.0  0.02965  0.79488  0.16818  1.0000
  N   N5        1.0  0.68056  0.37105  0.33904  1.0000
  N   N6        1.0  0.68056  0.12894  0.83904  1.0000
  N   N7        1.0  0.31944  0.62895  0.66096  1.0000
  N   N8        1.0  0.31943  0.87105  0.16096  1.0000
  N   N9        1.0  0.16752  0.05082  0.39038  1.0000
  N   N10       1.0  0.16752  0.44918  0.89038  1.0000
  N   N11       1.0  0.83248  0.94918  0.60962  1.0000
  N   N12       1.0  0.83248  0.55082  0.10962  1.0000
  N   N13       1.0  0.02040  0.90615  0.43175  1.0000
  N   N14       1.0  0.02040  0.59384  0.93175  1.0000
  N   N15       1.0  0.97959  0.09385  0.56825  1.0000
  N   N16       1.0  0.97959  0.40616  0.06825  1.0000
  O   O1        1.0  0.41401  0.29201  0.43589  1.0000
  O   O2        1.0  0.41401  0.20799  0.93588  1.0000
  O   O3        1.0  0.58599  0.70799  0.56412  1.0000
  O   O4        1.0  0.58599  0.79200  0.06411  1.0000
  O   O5        1.0  0.18068  0.25095  0.50376  1.0000
  O   O6        1.0  0.18068  0.24905  0.00375  1.0000
  O   O7        1.0  0.81933  0.74905  0.49625  1.0000
  O   O8        1.0  0.81931  0.75095  0.99624  1.0000
  O   O9        1.0  0.32957  0.28992  0.76663  1.0000
  O   O10       1.0  0.32955  0.21007  0.26662  1.0000
  O   O11       1.0  0.67045  0.71007  0.23338  1.0000
  O   O12       1.0  0.67044  0.78993  0.73338  1.0000
  O   O13       1.0  0.57422  0.40471  0.82130  1.0000
  O   O14       1.0  0.57422  0.09530  0.32130  1.0000
  O   O15       1.0  0.42579  0.59529  0.17871  1.0000
  O   O16       1.0  0.42578  0.90471  0.67870  1.0000
