data_image0
_chemical_formula_structural       Zn4H48C56N16O16
_chemical_formula_sum              "Zn4 H48 C56 N16 O16"
_cell_length_a       10.9834
_cell_length_b       11.4735
_cell_length_c       12.6478
_cell_angle_alpha    90.0007
_cell_angle_beta     111.308
_cell_angle_gamma    90

_space_group_name_H-M_alt    "P 1"
_space_group_IT_number       1

loop_
  _space_group_symop_operation_xyz
  'x, y, z'

loop_
  _atom_site_type_symbol
  _atom_site_label
  _atom_site_symmetry_multiplicity
  _atom_site_fract_x
  _atom_site_fract_y
  _atom_site_fract_z
  _atom_site_occupancy
  Zn  Zn1       1.0  0.02073  0.07244  0.25936  1.0000
  Zn  Zn2       1.0  0.52073  0.42756  0.75937  1.0000
  Zn  Zn3       1.0  0.97927  0.92755  0.74064  1.0000
  Zn  Zn4       1.0  0.47927  0.57245  0.24063  1.0000
  H   H1        1.0  0.04531  0.63777  0.34208  1.0000
  H   H2        1.0  0.54530  0.86223  0.84207  1.0000
  H   H3        1.0  0.95469  0.36223  0.65793  1.0000
  H   H4        1.0  0.45470  0.13776  0.15794  1.0000
  H   H5        1.0  0.42229  0.28788  0.52929  1.0000
  H   H6        1.0  0.92230  0.21212  0.02929  1.0000
  H   H7        1.0  0.57770  0.71212  0.47070  1.0000
  H   H8        1.0  0.07771  0.78788  0.97071  1.0000
  H   H9        1.0  0.86689  0.94594  0.39633  1.0000
  H   H10       1.0  0.36689  0.55407  0.89633  1.0000
  H   H11       1.0  0.13311  0.05406  0.60367  1.0000
  H   H12       1.0  0.63310  0.44593  0.10366  1.0000
  H   H13       1.0  0.89471  0.70807  0.44241  1.0000
  H   H14       1.0  0.39471  0.79194  0.94240  1.0000
  H   H15       1.0  0.10529  0.29194  0.55759  1.0000
  H   H16       1.0  0.60529  0.20805  0.05760  1.0000
  H   H17       1.0  0.10820  0.80382  0.23486  1.0000
  H   H18       1.0  0.60819  0.69617  0.73486  1.0000
  H   H19       1.0  0.89180  0.19617  0.76514  1.0000
  H   H20       1.0  0.39181  0.30383  0.26514  1.0000
  H   H21       1.0  0.20405  0.30357  0.35697  1.0000
  H   H22       1.0  0.70405  0.19643  0.85698  1.0000
  H   H23       1.0  0.79594  0.69642  0.64302  1.0000
  H   H24       1.0  0.29595  0.80358  0.14303  1.0000
  H   H25       1.0  0.46641  0.08029  0.60106  1.0000
  H   H26       1.0  0.96643  0.41971  0.10105  1.0000
  H   H27       1.0  0.53358  0.91971  0.39895  1.0000
  H   H28       1.0  0.03358  0.58030  0.89894  1.0000
  H   H29       1.0  0.25856  0.94953  0.45283  1.0000
  H   H30       1.0  0.75857  0.55048  0.95284  1.0000
  H   H31       1.0  0.74144  0.05047  0.54718  1.0000
  H   H32       1.0  0.24144  0.44953  0.04716  1.0000
  H   H33       1.0  0.27818  0.93785  0.00437  1.0000
  H   H34       1.0  0.77818  0.56215  0.50437  1.0000
  H   H35       1.0  0.72181  0.06216  0.99563  1.0000
  H   H36       1.0  0.22182  0.43784  0.49563  1.0000
  H   H37       1.0  0.38610  0.01605  0.87429  1.0000
  H   H38       1.0  0.88610  0.48395  0.37429  1.0000
  H   H39       1.0  0.61390  0.98396  0.12570  1.0000
  H   H40       1.0  0.11391  0.51605  0.62570  1.0000
  H   H41       1.0  0.22542  0.35308  0.88569  1.0000
  H   H42       1.0  0.72542  0.14691  0.38570  1.0000
  H   H43       1.0  0.77458  0.64693  0.11432  1.0000
  H   H44       1.0  0.27459  0.85308  0.61431  1.0000
  H   H45       1.0  0.11324  0.27554  0.01203  1.0000
  H   H46       1.0  0.61324  0.22446  0.51204  1.0000
  H   H47       1.0  0.88676  0.72446  0.98797  1.0000
  H   H48       1.0  0.38677  0.77553  0.48797  1.0000
  C   C1        1.0  0.92119  0.88047  0.37011  1.0000
  C   C2        1.0  0.42120  0.61954  0.87011  1.0000
  C   C3        1.0  0.07880  0.11953  0.62989  1.0000
  C   C4        1.0  0.57880  0.38046  0.12988  1.0000
  C   C5        1.0  0.93354  0.76324  0.39288  1.0000
  C   C6        1.0  0.43355  0.73677  0.89288  1.0000
  C   C7        1.0  0.06645  0.23676  0.60712  1.0000
  C   C8        1.0  0.56645  0.26323  0.10712  1.0000
  C   C9        1.0  0.04601  0.81018  0.28433  1.0000
  C   C10       1.0  0.54601  0.68982  0.78433  1.0000
  C   C11       1.0  0.95399  0.18982  0.71567  1.0000
  C   C12       1.0  0.45399  0.31018  0.21567  1.0000
  C   C13       1.0  0.24594  0.22420  0.40208  1.0000
  C   C14       1.0  0.74595  0.27581  0.90208  1.0000
  C   C15       1.0  0.75405  0.77580  0.59792  1.0000
  C   C16       1.0  0.25405  0.72420  0.09792  1.0000
  C   C17       1.0  0.38252  0.10469  0.52731  1.0000
  C   C18       1.0  0.88253  0.39531  0.02731  1.0000
  C   C19       1.0  0.61747  0.89531  0.47269  1.0000
  C   C20       1.0  0.11747  0.60469  0.97268  1.0000
  C   C21       1.0  0.27875  0.04205  0.45545  1.0000
  C   C22       1.0  0.77876  0.45796  0.95546  1.0000
  C   C23       1.0  0.72124  0.95795  0.54455  1.0000
  C   C24       1.0  0.22125  0.54205  0.04454  1.0000
  C   C25       1.0  0.13231  0.05497  0.09901  1.0000
  C   C26       1.0  0.63231  0.44503  0.59901  1.0000
  C   C27       1.0  0.86769  0.94503  0.90099  1.0000
  C   C28       1.0  0.36770  0.55497  0.40099  1.0000
  C   C29       1.0  0.18854  0.10156  0.01594  1.0000
  C   C30       1.0  0.68854  0.39844  0.51594  1.0000
  C   C31       1.0  0.81146  0.89845  0.98407  1.0000
  C   C32       1.0  0.31146  0.60155  0.48406  1.0000
  C   C33       1.0  0.26573  0.02837  0.97685  1.0000
  C   C34       1.0  0.76573  0.47163  0.47685  1.0000
  C   C35       1.0  0.73427  0.97164  0.02315  1.0000
  C   C36       1.0  0.23428  0.52837  0.52315  1.0000
  C   C37       1.0  0.32623  0.07154  0.90574  1.0000
  C   C38       1.0  0.82623  0.42846  0.40574  1.0000
  C   C39       1.0  0.67377  0.92847  0.09426  1.0000
  C   C40       1.0  0.17378  0.57154  0.59426  1.0000
  C   C41       1.0  0.31314  0.18920  0.87379  1.0000
  C   C42       1.0  0.81315  0.31079  0.37379  1.0000
  C   C43       1.0  0.68686  0.81081  0.12621  1.0000
  C   C44       1.0  0.18686  0.68920  0.62621  1.0000
  C   C45       1.0  0.23453  0.26183  0.91117  1.0000
  C   C46       1.0  0.73453  0.23816  0.41117  1.0000
  C   C47       1.0  0.76547  0.73818  0.08884  1.0000
  C   C48       1.0  0.26548  0.76183  0.58883  1.0000
  C   C49       1.0  0.17223  0.21836  0.98118  1.0000
  C   C50       1.0  0.67223  0.28164  0.48119  1.0000
  C   C51       1.0  0.82777  0.78164  0.01882  1.0000
  C   C52       1.0  0.32777  0.71836  0.51882  1.0000
  C   C53       1.0  0.39201  0.23733  0.80807  1.0000
  C   C54       1.0  0.89200  0.26266  0.30807  1.0000
  C   C55       1.0  0.60799  0.76267  0.19193  1.0000
  C   C56       1.0  0.10800  0.73734  0.69193  1.0000
  N   N1        1.0  0.99173  0.90837  0.30237  1.0000
  N   N2        1.0  0.49173  0.59163  0.80237  1.0000
  N   N3        1.0  0.00827  0.09163  0.69763  1.0000
  N   N4        1.0  0.50827  0.40837  0.19763  1.0000
  N   N5        1.0  0.01187  0.72084  0.33769  1.0000
  N   N6        1.0  0.51187  0.77917  0.83769  1.0000
  N   N7        1.0  0.98812  0.27916  0.66231  1.0000
  N   N8        1.0  0.48813  0.22083  0.16232  1.0000
  N   N9        1.0  0.19388  0.11768  0.37837  1.0000
  N   N10       1.0  0.69388  0.38232  0.87838  1.0000
  N   N11       1.0  0.80612  0.88231  0.62162  1.0000
  N   N12       1.0  0.30612  0.61768  0.12162  1.0000
  N   N13       1.0  0.35993  0.21885  0.49193  1.0000
  N   N14       1.0  0.85993  0.28115  0.99193  1.0000
  N   N15       1.0  0.64007  0.78115  0.50807  1.0000
  N   N16       1.0  0.14007  0.71885  0.00807  1.0000
  O   O1        1.0  0.03780  0.11534  0.11243  1.0000
  O   O2        1.0  0.53781  0.38466  0.61244  1.0000
  O   O3        1.0  0.96219  0.88466  0.88757  1.0000
  O   O4        1.0  0.46220  0.61533  0.38756  1.0000
  O   O5        1.0  0.17855  0.96496  0.15445  1.0000
  O   O6        1.0  0.67855  0.53504  0.65446  1.0000
  O   O7        1.0  0.82145  0.03505  0.84555  1.0000
  O   O8        1.0  0.32146  0.46495  0.34554  1.0000
  O   O9        1.0  0.47160  0.17294  0.78617  1.0000
  O   O10       1.0  0.97160  0.32705  0.28617  1.0000
  O   O11       1.0  0.52840  0.82707  0.21383  1.0000
  O   O12       1.0  0.02840  0.67294  0.71382  1.0000
  O   O13       1.0  0.37389  0.34760  0.78317  1.0000
  O   O14       1.0  0.87389  0.15239  0.28318  1.0000
  O   O15       1.0  0.62611  0.65240  0.21683  1.0000
  O   O16       1.0  0.12611  0.84761  0.71682  1.0000
