data_image0
_chemical_formula_structural       Cu4H30C30Br4N6O6
_chemical_formula_sum              "Cu4 H30 C30 Br4 N6 O6"
_cell_length_a       7.01105
_cell_length_b       11.1516
_cell_length_c       11.3082
_cell_angle_alpha    86.0631
_cell_angle_beta     77.3993
_cell_angle_gamma    77.6319

_space_group_name_H-M_alt    "P 1"
_space_group_IT_number       1

loop_
  _space_group_symop_operation_xyz
  'x, y, z'

loop_
  _atom_site_type_symbol
  _atom_site_label
  _atom_site_symmetry_multiplicity
  _atom_site_fract_x
  _atom_site_fract_y
  _atom_site_fract_z
  _atom_site_occupancy
  Cu  Cu1       1.0  0.60900  0.13877  0.98452  1.0000
  Cu  Cu2       1.0  0.39101  0.86123  0.01548  1.0000
  Cu  Cu3       1.0  0.19344  0.23679  0.22413  1.0000
  Cu  Cu4       1.0  0.80656  0.76321  0.77586  1.0000
  H   H1        1.0  0.88657  0.28414  0.97242  1.0000
  H   H2        1.0  0.11345  0.71586  0.02758  1.0000
  H   H3        1.0  0.51132  0.44592  0.29903  1.0000
  H   H4        1.0  0.48869  0.55409  0.70097  1.0000
  H   H5        1.0  0.66572  0.67642  0.98452  1.0000
  H   H6        1.0  0.33430  0.32359  0.01548  1.0000
  H   H7        1.0  0.92127  0.57073  0.58293  1.0000
  H   H8        1.0  0.07874  0.42927  0.41707  1.0000
  H   H9        1.0  0.14434  0.59274  0.61962  1.0000
  H   H10       1.0  0.85566  0.40726  0.38038  1.0000
  H   H11       1.0  0.04768  0.34921  0.60188  1.0000
  H   H12       1.0  0.95231  0.65079  0.39812  1.0000
  H   H13       1.0  0.24878  0.37716  0.66167  1.0000
  H   H14       1.0  0.75123  0.62283  0.33832  1.0000
  H   H15       1.0  0.85624  0.95903  0.17302  1.0000
  H   H16       1.0  0.14373  0.04096  0.82699  1.0000
  H   H17       1.0  0.59456  0.98328  0.23524  1.0000
  H   H18       1.0  0.40540  0.01674  0.76477  1.0000
  H   H19       1.0  0.63893  0.06737  0.41283  1.0000
  H   H20       1.0  0.36106  0.93263  0.58717  1.0000
  H   H21       1.0  0.90440  0.04495  0.35464  1.0000
  H   H22       1.0  0.09559  0.95504  0.64536  1.0000
  H   H23       1.0  0.09423  0.85761  0.27541  1.0000
  H   H24       1.0  0.90577  0.14238  0.72459  1.0000
  H   H25       1.0  0.26805  0.95237  0.27757  1.0000
  H   H26       1.0  0.73195  0.04762  0.72243  1.0000
  H   H27       1.0  0.42417  0.81667  0.42315  1.0000
  H   H28       1.0  0.57583  0.18334  0.57685  1.0000
  H   H29       1.0  0.18437  0.77329  0.46363  1.0000
  H   H30       1.0  0.81564  0.22671  0.53637  1.0000
  C   C1        1.0  0.78575  0.48163  0.96386  1.0000
  C   C2        1.0  0.21425  0.51837  0.03614  1.0000
  C   C3        1.0  0.79672  0.36522  0.02028  1.0000
  C   C4        1.0  0.20330  0.63478  0.97972  1.0000
  C   C5        1.0  0.69599  0.35303  0.14006  1.0000
  C   C6        1.0  0.30403  0.64698  0.85994  1.0000
  C   C7        1.0  0.58908  0.45633  0.20570  1.0000
  C   C8        1.0  0.41093  0.54367  0.79429  1.0000
  C   C9        1.0  0.57590  0.57329  0.14876  1.0000
  C   C10       1.0  0.42410  0.42671  0.85124  1.0000
  C   C11       1.0  0.67388  0.58554  0.02803  1.0000
  C   C12       1.0  0.32613  0.41446  0.97197  1.0000
  C   C13       1.0  0.89067  0.48968  0.83784  1.0000
  C   C14       1.0  0.10933  0.51032  0.16215  1.0000
  C   C15       1.0  0.01986  0.54471  0.64779  1.0000
  C   C16       1.0  0.98014  0.45529  0.35221  1.0000
  C   C17       1.0  0.08829  0.40549  0.66445  1.0000
  C   C18       1.0  0.91171  0.59451  0.33554  1.0000
  C   C19       1.0  0.70678  0.22857  0.19309  1.0000
  C   C20       1.0  0.29322  0.77143  0.80691  1.0000
  C   C21       1.0  0.72586  0.02569  0.21827  1.0000
  C   C22       1.0  0.27411  0.97431  0.78174  1.0000
  C   C23       1.0  0.75632  0.07775  0.33372  1.0000
  C   C24       1.0  0.24366  0.92225  0.66629  1.0000
  C   C25       1.0  0.45385  0.67995  0.21648  1.0000
  C   C26       1.0  0.54616  0.32005  0.78351  1.0000
  C   C27       1.0  0.24970  0.85701  0.28007  1.0000
  C   C28       1.0  0.75030  0.14299  0.71992  1.0000
  C   C29       1.0  0.30985  0.78318  0.38921  1.0000
  C   C30       1.0  0.69015  0.21682  0.61079  1.0000
  Br  Br1       1.0  0.23108  0.15389  0.42140  1.0000
  Br  Br2       1.0  0.76891  0.84610  0.57859  1.0000
  Br  Br3       1.0  0.23479  0.10306  0.06207  1.0000
  Br  Br4       1.0  0.76521  0.89694  0.93793  1.0000
  N   N1        1.0  0.90399  0.58670  0.76879  1.0000
  N   N2        1.0  0.09602  0.41330  0.23120  1.0000
  N   N3        1.0  0.69274  0.13439  0.13704  1.0000
  N   N4        1.0  0.30726  0.86562  0.86296  1.0000
  N   N5        1.0  0.38225  0.78800  0.17495  1.0000
  N   N6        1.0  0.61776  0.21200  0.82505  1.0000
  O   O1        1.0  0.98286  0.37961  0.78683  1.0000
  O   O2        1.0  0.01714  0.62039  0.21317  1.0000
  O   O3        1.0  0.73863  0.21061  0.30643  1.0000
  O   O4        1.0  0.26137  0.78939  0.69358  1.0000
  O   O5        1.0  0.40370  0.66141  0.33893  1.0000
  O   O6        1.0  0.59631  0.33859  0.66106  1.0000
