data_image0
_chemical_formula_structural       CaH28PbC32S4O14
_chemical_formula_sum              "Ca1 H28 Pb1 C32 S4 O14"
_cell_length_a       8.24455
_cell_length_b       8.80539
_cell_length_c       13.0516
_cell_angle_alpha    106.845
_cell_angle_beta     105.398
_cell_angle_gamma    98.5117

_space_group_name_H-M_alt    "P 1"
_space_group_IT_number       1

loop_
  _space_group_symop_operation_xyz
  'x, y, z'

loop_
  _atom_site_type_symbol
  _atom_site_label
  _atom_site_symmetry_multiplicity
  _atom_site_fract_x
  _atom_site_fract_y
  _atom_site_fract_z
  _atom_site_occupancy
  Ca  Ca1       1.0  1.00000  0.50001  0.99999  1.0000
  H   H1        1.0  0.89605  0.25722  0.74938  1.0000
  H   H2        1.0  0.85370  0.49192  0.74932  1.0000
  H   H3        1.0  0.10395  0.74280  0.25059  1.0000
  H   H4        1.0  0.14632  0.50810  0.25072  1.0000
  H   H5        1.0  0.93622  0.04330  0.59414  1.0000
  H   H6        1.0  0.65818  0.55056  0.59400  1.0000
  H   H7        1.0  0.06377  0.95671  0.40583  1.0000
  H   H8        1.0  0.34183  0.44949  0.40607  1.0000
  H   H9        1.0  0.42122  0.75385  0.52018  1.0000
  H   H10       1.0  0.09893  0.76701  0.51992  1.0000
  H   H11       1.0  0.57880  0.24614  0.47983  1.0000
  H   H12       1.0  0.90106  0.23302  0.48010  1.0000
  H   H13       1.0  0.37937  0.97710  0.67663  1.0000
  H   H14       1.0  0.29727  0.70001  0.67630  1.0000
  H   H15       1.0  0.62063  0.02292  0.32335  1.0000
  H   H16       1.0  0.70272  0.29996  0.32369  1.0000
  H   H17       1.0  0.30112  0.98641  0.88595  1.0000
  H   H18       1.0  0.58531  0.89964  0.88569  1.0000
  H   H19       1.0  0.69884  0.01358  0.11408  1.0000
  H   H20       1.0  0.41465  0.10034  0.11429  1.0000
  H   H21       1.0  0.11933  0.03814  0.80662  1.0000
  H   H22       1.0  0.68811  0.76867  0.80665  1.0000
  H   H23       1.0  0.88065  0.96189  0.19339  1.0000
  H   H24       1.0  0.31191  0.23136  0.19336  1.0000
  H   H25       1.0  0.08862  0.91677  0.89485  1.0000
  H   H26       1.0  0.80680  0.97811  0.89475  1.0000
  H   H27       1.0  0.91131  0.08327  0.10516  1.0000
  H   H28       1.0  0.19317  0.02193  0.10528  1.0000
  Pb  Pb1       1.0  0.50000  0.49998  0.00001  1.0000
  C   C1        1.0  0.60883  0.25432  0.81952  1.0000
  C   C2        1.0  0.21092  0.56519  0.81934  1.0000
  C   C3        1.0  0.39117  0.74570  0.18047  1.0000
  C   C4        1.0  0.78913  0.43470  0.18062  1.0000
  C   C5        1.0  0.63422  0.12867  0.72274  1.0000
  C   C6        1.0  0.08865  0.59414  0.72252  1.0000
  C   C7        1.0  0.36577  0.87136  0.27724  1.0000
  C   C8        1.0  0.91135  0.40582  0.27748  1.0000
  C   C9        1.0  0.79056  0.14877  0.69887  1.0000
  C   C10       1.0  0.90854  0.55002  0.69873  1.0000
  C   C11       1.0  0.20943  0.85126  0.30110  1.0000
  C   C12       1.0  0.09149  0.44999  0.30130  1.0000
  C   C13       1.0  0.81404  0.02809  0.61188  1.0000
  C   C14       1.0  0.79807  0.58368  0.61170  1.0000
  C   C15       1.0  0.18595  0.97192  0.38809  1.0000
  C   C16       1.0  0.20196  0.41635  0.38834  1.0000
  C   C17       1.0  0.68025  0.88708  0.54940  1.0000
  C   C18       1.0  0.86919  0.66247  0.54916  1.0000
  C   C19       1.0  0.31976  0.11294  0.45059  1.0000
  C   C20       1.0  0.13080  0.33754  0.45087  1.0000
  C   C21       1.0  0.52309  0.86492  0.57099  1.0000
  C   C22       1.0  0.04790  0.70648  0.57075  1.0000
  C   C23       1.0  0.47692  0.13507  0.42899  1.0000
  C   C24       1.0  0.95210  0.29354  0.42928  1.0000
  C   C25       1.0  0.50053  0.98764  0.65754  1.0000
  C   C26       1.0  0.15706  0.67016  0.65726  1.0000
  C   C27       1.0  0.49947  0.01238  0.34243  1.0000
  C   C28       1.0  0.84294  0.32982  0.34274  1.0000
  C   C29       1.0  0.17554  0.01436  0.88475  1.0000
  C   C30       1.0  0.70977  0.87051  0.88470  1.0000
  C   C31       1.0  0.82442  0.98566  0.11526  1.0000
  C   C32       1.0  0.29020  0.12951  0.11532  1.0000
  S   S1        1.0  0.72530  0.72562  0.45073  1.0000
  S   S2        1.0  0.27471  0.27437  0.54929  1.0000
  S   S3        1.0  0.21669  0.20132  0.99995  1.0000
  S   S4        1.0  0.78329  0.79869  0.00005  1.0000
  O   O1        1.0  0.47746  0.21763  0.84806  1.0000
  O   O2        1.0  0.37077  0.63014  0.84769  1.0000
  O   O3        1.0  0.52254  0.78237  0.15192  1.0000
  O   O4        1.0  0.62929  0.36967  0.15222  1.0000
  O   O5        1.0  0.72275  0.39188  0.86896  1.0000
  O   O6        1.0  0.14654  0.47719  0.86899  1.0000
  O   O7        1.0  0.27723  0.60814  0.13102  1.0000
  O   O8        1.0  0.85350  0.52276  0.13100  1.0000
  O   O9        1.0  0.56743  0.59681  0.38927  1.0000
  O   O10       1.0  0.82150  0.79306  0.38904  1.0000
  O   O11       1.0  0.43260  0.40317  0.61074  1.0000
  O   O12       1.0  0.17854  0.20690  0.61096  1.0000
  O   O13       1.0  0.04015  0.23571  0.99976  1.0000
  O   O14       1.0  0.95983  0.76432  0.00025  1.0000
