data_image0
_chemical_formula_structural       Hg4H18C14N2Cl8O2
_chemical_formula_sum              "Hg4 H18 C14 N2 Cl8 O2"
_cell_length_a       7.4664
_cell_length_b       9.56929
_cell_length_c       9.65145
_cell_angle_alpha    76.9357
_cell_angle_beta     78.8074
_cell_angle_gamma    87.2989

_space_group_name_H-M_alt    "P 1"
_space_group_IT_number       1

loop_
  _space_group_symop_operation_xyz
  'x, y, z'

loop_
  _atom_site_type_symbol
  _atom_site_label
  _atom_site_symmetry_multiplicity
  _atom_site_fract_x
  _atom_site_fract_y
  _atom_site_fract_z
  _atom_site_occupancy
  Hg  Hg1       1.0  0.75495  0.90064  0.57828  1.0000
  Hg  Hg2       1.0  0.24504  0.09936  0.42171  1.0000
  Hg  Hg3       1.0  0.27178  0.98142  0.94567  1.0000
  Hg  Hg4       1.0  0.72822  0.01858  0.05432  1.0000
  H   H1        1.0  0.98920  0.75128  0.82629  1.0000
  H   H2        1.0  0.01081  0.24873  0.17370  1.0000
  H   H3        1.0  0.78645  0.78567  0.30688  1.0000
  H   H4        1.0  0.21352  0.21433  0.69311  1.0000
  H   H5        1.0  0.80133  0.55169  0.23217  1.0000
  H   H6        1.0  0.19867  0.44831  0.76783  1.0000
  H   H7        1.0  0.75047  0.32384  0.42713  1.0000
  H   H8        1.0  0.24955  0.67616  0.57287  1.0000
  H   H9        1.0  0.67285  0.34393  0.68556  1.0000
  H   H10       1.0  0.32718  0.65607  0.31444  1.0000
  H   H11       1.0  0.56432  0.49715  0.85418  1.0000
  H   H12       1.0  0.43569  0.50285  0.14582  1.0000
  H   H13       1.0  0.56914  0.68730  0.79728  1.0000
  H   H14       1.0  0.43087  0.31270  0.20273  1.0000
  H   H15       1.0  0.78337  0.60541  0.96160  1.0000
  H   H16       1.0  0.21664  0.39459  0.03840  1.0000
  H   H17       1.0  0.89267  0.48617  0.85260  1.0000
  H   H18       1.0  0.10734  0.51383  0.14740  1.0000
  C   C1        1.0  0.76135  0.68479  0.38636  1.0000
  C   C2        1.0  0.23862  0.31520  0.61365  1.0000
  C   C3        1.0  0.77031  0.55394  0.34653  1.0000
  C   C4        1.0  0.22968  0.44607  0.65347  1.0000
  C   C5        1.0  0.74055  0.42857  0.45466  1.0000
  C   C6        1.0  0.25945  0.57142  0.54535  1.0000
  C   C7        1.0  0.69868  0.43963  0.59869  1.0000
  C   C8        1.0  0.30133  0.56037  0.40131  1.0000
  C   C9        1.0  0.68871  0.57395  0.63394  1.0000
  C   C10       1.0  0.31129  0.42605  0.36605  1.0000
  C   C11       1.0  0.64810  0.58864  0.78814  1.0000
  C   C12       1.0  0.35190  0.41136  0.21187  1.0000
  C   C13       1.0  0.82180  0.59008  0.85004  1.0000
  C   C14       1.0  0.17821  0.40992  0.14996  1.0000
  N   N1        1.0  0.72207  0.69381  0.52647  1.0000
  N   N2        1.0  0.27792  0.30620  0.47352  1.0000
  Cl  Cl1       1.0  0.86471  0.08776  0.66041  1.0000
  Cl  Cl2       1.0  0.13529  0.91224  0.33959  1.0000
  Cl  Cl3       1.0  0.36123  0.92987  0.67978  1.0000
  Cl  Cl4       1.0  0.63877  0.07013  0.32022  1.0000
  Cl  Cl5       1.0  0.44942  0.19160  0.93456  1.0000
  Cl  Cl6       1.0  0.55058  0.80839  0.06544  1.0000
  Cl  Cl7       1.0  0.03931  0.79713  0.03247  1.0000
  Cl  Cl8       1.0  0.96069  0.20287  0.96753  1.0000
  O   O1        1.0  0.93904  0.70365  0.76187  1.0000
  O   O2        1.0  0.06097  0.29635  0.23813  1.0000
