data_image0
_chemical_formula_structural       Cd2H36C64Br8N16O14
_chemical_formula_sum              "Cd2 H36 C64 Br8 N16 O14"
_cell_length_a       10.6545
_cell_length_b       12.2234
_cell_length_c       15.1638
_cell_angle_alpha    79.9181
_cell_angle_beta     71.1152
_cell_angle_gamma    67.0001

_space_group_name_H-M_alt    "P 1"
_space_group_IT_number       1

loop_
  _space_group_symop_operation_xyz
  'x, y, z'

loop_
  _atom_site_type_symbol
  _atom_site_label
  _atom_site_symmetry_multiplicity
  _atom_site_fract_x
  _atom_site_fract_y
  _atom_site_fract_z
  _atom_site_occupancy
  Cd  Cd1       1.0  0.45243  0.82307  0.67863  1.0000
  Cd  Cd2       1.0  0.54757  0.17693  0.32137  1.0000
  H   H1        1.0  0.72641  0.85448  0.62572  1.0000
  H   H2        1.0  0.27359  0.14552  0.37428  1.0000
  H   H3        1.0  0.63740  0.95150  0.56266  1.0000
  H   H4        1.0  0.36260  0.04851  0.43734  1.0000
  H   H5        1.0  0.06398  0.15477  0.92078  1.0000
  H   H6        1.0  0.93603  0.84523  0.07922  1.0000
  H   H7        1.0  0.23169  0.95266  0.86991  1.0000
  H   H8        1.0  0.76832  0.04735  0.13009  1.0000
  H   H9        1.0  0.40966  0.08863  0.61050  1.0000
  H   H10       1.0  0.59035  0.91138  0.38950  1.0000
  H   H11       1.0  0.24870  0.29705  0.65005  1.0000
  H   H12       1.0  0.75131  0.70296  0.34995  1.0000
  H   H13       1.0  0.84656  0.40274  0.07575  1.0000
  H   H14       1.0  0.15344  0.59726  0.92425  1.0000
  H   H15       1.0  0.69292  0.51077  0.21887  1.0000
  H   H16       1.0  0.30708  0.48923  0.78113  1.0000
  H   H17       1.0  0.58726  0.83439  0.06786  1.0000
  H   H18       1.0  0.41274  0.16561  0.93214  1.0000
  H   H19       1.0  0.72967  0.73817  0.91629  1.0000
  H   H20       1.0  0.27032  0.26183  0.08371  1.0000
  H   H21       1.0  0.63881  0.50663  0.40757  1.0000
  H   H22       1.0  0.36119  0.49337  0.59243  1.0000
  H   H23       1.0  0.46724  0.67799  0.50624  1.0000
  H   H24       1.0  0.53276  0.32201  0.49377  1.0000
  H   H25       1.0  0.74289  0.62423  0.66270  1.0000
  H   H26       1.0  0.25712  0.37577  0.33731  1.0000
  H   H27       1.0  0.92483  0.44879  0.57298  1.0000
  H   H28       1.0  0.07517  0.55120  0.42703  1.0000
  H   H29       1.0  0.27553  0.07831  0.24388  1.0000
  H   H30       1.0  0.72445  0.92171  0.75612  1.0000
  H   H31       1.0  0.33329  0.96616  0.10530  1.0000
  H   H32       1.0  0.66672  0.03385  0.89470  1.0000
  H   H33       1.0  0.93071  0.14727  0.07107  1.0000
  H   H34       1.0  0.06929  0.85272  0.92892  1.0000
  H   H35       1.0  0.85247  0.26225  0.21011  1.0000
  H   H36       1.0  0.14753  0.73774  0.78989  1.0000
  C   C1        1.0  0.13806  0.14410  0.85133  1.0000
  C   C2        1.0  0.86194  0.85590  0.14867  1.0000
  C   C3        1.0  0.23146  0.03127  0.82308  1.0000
  C   C4        1.0  0.76854  0.96873  0.17692  1.0000
  C   C5        1.0  0.33138  0.10729  0.67829  1.0000
  C   C6        1.0  0.66862  0.89271  0.32171  1.0000
  C   C7        1.0  0.24185  0.22278  0.70027  1.0000
  C   C8        1.0  0.75815  0.77723  0.29973  1.0000
  C   C9        1.0  0.14158  0.24207  0.78816  1.0000
  C   C10       1.0  0.85842  0.75794  0.21184  1.0000
  C   C11       1.0  0.04542  0.36190  0.81199  1.0000
  C   C12       1.0  0.95457  0.63810  0.18801  1.0000
  C   C13       1.0  0.89439  0.50495  0.89855  1.0000
  C   C14       1.0  0.10561  0.49504  0.10145  1.0000
  C   C15       1.0  0.80339  0.56308  0.98433  1.0000
  C   C16       1.0  0.19661  0.43691  0.01567  1.0000
  C   C17       1.0  0.79154  0.49861  0.07084  1.0000
  C   C18       1.0  0.20845  0.50139  0.92916  1.0000
  C   C19       1.0  0.70537  0.55992  0.15105  1.0000
  C   C20       1.0  0.29463  0.44008  0.84895  1.0000
  C   C21       1.0  0.64587  0.73838  0.06709  1.0000
  C   C22       1.0  0.35413  0.26162  0.93291  1.0000
  C   C23       1.0  0.72675  0.68607  0.98243  1.0000
  C   C24       1.0  0.27326  0.31392  0.01757  1.0000
  C   C25       1.0  0.66560  0.52968  0.46359  1.0000
  C   C26       1.0  0.33440  0.47032  0.53641  1.0000
  C   C27       1.0  0.57049  0.62502  0.51799  1.0000
  C   C28       1.0  0.42951  0.37499  0.48202  1.0000
  C   C29       1.0  0.72476  0.59535  0.60536  1.0000
  C   C30       1.0  0.27524  0.40464  0.39465  1.0000
  C   C31       1.0  0.82509  0.49811  0.55574  1.0000
  C   C32       1.0  0.17491  0.50188  0.44427  1.0000
  C   C33       1.0  0.79637  0.46481  0.48254  1.0000
  C   C34       1.0  0.20363  0.53519  0.51746  1.0000
  C   C35       1.0  0.90582  0.36629  0.42927  1.0000
  C   C36       1.0  0.09418  0.63371  0.57073  1.0000
  C   C37       1.0  0.02170  0.24299  0.32102  1.0000
  C   C38       1.0  0.97829  0.75702  0.67898  1.0000
  C   C39       1.0  0.05857  0.18064  0.23810  1.0000
  C   C40       1.0  0.94142  0.81936  0.76189  1.0000
  C   C41       1.0  0.19598  0.09613  0.20748  1.0000
  C   C42       1.0  0.80401  0.90388  0.79251  1.0000
  C   C43       1.0  0.22820  0.03418  0.12955  1.0000
  C   C44       1.0  0.77180  0.96583  0.87046  1.0000
  C   C45       1.0  0.00553  0.13345  0.11074  1.0000
  C   C46       1.0  0.99447  0.86654  0.88926  1.0000
  C   C47       1.0  0.96125  0.20010  0.18821  1.0000
  C   C48       1.0  0.03875  0.79990  0.81179  1.0000
  C   C49       1.0  0.47721  0.66974  0.83760  1.0000
  C   C50       1.0  0.52279  0.33027  0.16241  1.0000
  C   C51       1.0  0.48886  0.58131  0.92117  1.0000
  C   C52       1.0  0.51114  0.41870  0.07883  1.0000
  C   C53       1.0  0.42346  0.53887  0.08950  1.0000
  C   C54       1.0  0.57654  0.46113  0.91050  1.0000
  C   C55       1.0  0.41206  0.61906  0.01157  1.0000
  C   C56       1.0  0.58793  0.38095  0.98843  1.0000
  C   C57       1.0  0.25477  0.91627  0.56541  1.0000
  C   C58       1.0  0.74523  0.08373  0.43459  1.0000
  C   C59       1.0  0.12409  0.96232  0.52995  1.0000
  C   C60       1.0  0.87592  0.03768  0.47005  1.0000
  C   C61       1.0  0.99636  0.04548  0.57937  1.0000
  C   C62       1.0  0.00364  0.95452  0.42063  1.0000
  C   C63       1.0  0.87333  0.08191  0.55006  1.0000
  C   C64       1.0  0.12668  0.91809  0.44994  1.0000
  Br  Br1       1.0  0.29250  0.78194  0.02707  1.0000
  Br  Br2       1.0  0.70749  0.21807  0.97292  1.0000
  Br  Br3       1.0  0.32182  0.59286  0.21135  1.0000
  Br  Br4       1.0  0.67817  0.40714  0.78865  1.0000
  Br  Br5       1.0  0.99240  0.11026  0.68511  1.0000
  Br  Br6       1.0  0.00760  0.88973  0.31489  1.0000
  Br  Br7       1.0  0.69948  0.19078  0.62004  1.0000
  Br  Br8       1.0  0.30053  0.80922  0.37997  1.0000
  N   N1        1.0  0.32496  0.01267  0.73803  1.0000
  N   N2        1.0  0.67504  0.98734  0.26196  1.0000
  N   N3        1.0  0.02176  0.45905  0.75707  1.0000
  N   N4        1.0  0.97824  0.54095  0.24293  1.0000
  N   N5        1.0  0.92456  0.55133  0.81291  1.0000
  N   N6        1.0  0.07543  0.44867  0.18709  1.0000
  N   N7        1.0  0.63417  0.67799  0.15069  1.0000
  N   N8        1.0  0.36584  0.32200  0.84931  1.0000
  N   N9        1.0  0.59975  0.65814  0.58688  1.0000
  N   N10       1.0  0.40026  0.34186  0.41312  1.0000
  N   N11       1.0  0.02753  0.30169  0.44636  1.0000
  N   N12       1.0  0.97247  0.69831  0.55363  1.0000
  N   N13       1.0  0.10138  0.22317  0.37679  1.0000
  N   N14       1.0  0.89862  0.77682  0.62320  1.0000
  N   N15       1.0  0.13584  0.05095  0.08113  1.0000
  N   N16       1.0  0.86417  0.94905  0.91887  1.0000
  O   O1        1.0  0.96728  0.38421  0.90275  1.0000
  O   O2        1.0  0.03272  0.61579  0.09725  1.0000
  O   O3        1.0  0.89460  0.33300  0.35124  1.0000
  O   O4        1.0  0.10540  0.66700  0.64876  1.0000
  O   O5        1.0  0.37118  0.69356  0.80669  1.0000
  O   O6        1.0  0.62882  0.30644  0.19331  1.0000
  O   O7        1.0  0.57264  0.71469  0.80437  1.0000
  O   O8        1.0  0.42736  0.28532  0.19563  1.0000
  O   O9        1.0  0.25721  0.83443  0.62975  1.0000
  O   O10       1.0  0.74280  0.16557  0.37025  1.0000
  O   O11       1.0  0.35142  0.95986  0.53118  1.0000
  O   O12       1.0  0.64858  0.04014  0.46882  1.0000
  O   O13       1.0  0.62718  0.90336  0.62349  1.0000
  O   O14       1.0  0.37282  0.09664  0.37651  1.0000
