data_image0
_chemical_formula_structural       ZnH20C32Br4N8O8
_chemical_formula_sum              "Zn1 H20 C32 Br4 N8 O8"
_cell_length_a       8.07295
_cell_length_b       10.7837
_cell_length_c       11.4766
_cell_angle_alpha    64.272
_cell_angle_beta     76.6059
_cell_angle_gamma    85.7717

_space_group_name_H-M_alt    "P 1"
_space_group_IT_number       1

loop_
  _space_group_symop_operation_xyz
  'x, y, z'

loop_
  _atom_site_type_symbol
  _atom_site_label
  _atom_site_symmetry_multiplicity
  _atom_site_fract_x
  _atom_site_fract_y
  _atom_site_fract_z
  _atom_site_occupancy
  Zn  Zn1       1.0  1.00000  1.00000  0.50000  1.0000
  H   H1        1.0  0.79954  0.22419  0.47536  1.0000
  H   H2        1.0  0.20046  0.77581  0.52465  1.0000
  H   H3        1.0  0.82405  0.17665  0.35764  1.0000
  H   H4        1.0  0.17596  0.82334  0.64236  1.0000
  H   H5        1.0  0.27129  0.44270  0.45583  1.0000
  H   H6        1.0  0.72872  0.55730  0.54417  1.0000
  H   H7        1.0  0.04675  0.26073  0.52836  1.0000
  H   H8        1.0  0.95325  0.73927  0.47164  1.0000
  H   H9        1.0  0.34192  0.07594  0.30520  1.0000
  H   H10       1.0  0.65808  0.92405  0.69480  1.0000
  H   H11       1.0  0.58416  0.24471  0.22794  1.0000
  H   H12       1.0  0.41584  0.75529  0.77206  1.0000
  H   H13       1.0  0.03366  0.73662  0.23032  1.0000
  H   H14       1.0  0.96635  0.26338  0.76968  1.0000
  H   H15       1.0  0.34489  0.77642  0.12799  1.0000
  H   H16       1.0  0.65512  0.22357  0.87201  1.0000
  H   H17       1.0  0.35710  0.45544  0.01941  1.0000
  H   H18       1.0  0.64291  0.54456  0.98059  1.0000
  H   H19       1.0  0.04691  0.39842  0.12070  1.0000
  H   H20       1.0  0.95310  0.60158  0.87929  1.0000
  C   C1        1.0  0.44551  0.35825  0.33600  1.0000
  C   C2        1.0  0.55449  0.64175  0.66400  1.0000
  C   C3        1.0  0.29020  0.36447  0.41869  1.0000
  C   C4        1.0  0.70980  0.63554  0.58131  1.0000
  C   C5        1.0  0.16532  0.26425  0.45811  1.0000
  C   C6        1.0  0.83468  0.73576  0.54189  1.0000
  C   C7        1.0  0.33220  0.15919  0.33572  1.0000
  C   C8        1.0  0.66779  0.84081  0.66428  1.0000
  C   C9        1.0  0.46612  0.25399  0.29232  1.0000
  C   C10       1.0  0.53388  0.74601  0.70768  1.0000
  C   C11       1.0  0.58148  0.45535  0.30585  1.0000
  C   C12       1.0  0.41852  0.54465  0.69415  1.0000
  C   C13       1.0  0.83510  0.54230  0.24217  1.0000
  C   C14       1.0  0.16490  0.45770  0.75782  1.0000
  C   C15       1.0  0.01553  0.56532  0.18177  1.0000
  C   C16       1.0  0.98447  0.43468  0.81823  1.0000
  C   C17       1.0  0.10164  0.67227  0.18447  1.0000
  C   C18       1.0  0.89837  0.32773  0.81552  1.0000
  C   C19       1.0  0.27445  0.69473  0.12631  1.0000
  C   C20       1.0  0.72555  0.30526  0.87368  1.0000
  C   C21       1.0  0.28077  0.51686  0.06584  1.0000
  C   C22       1.0  0.71923  0.48313  0.93416  1.0000
  C   C23       1.0  0.10772  0.48475  0.12201  1.0000
  C   C24       1.0  0.89229  0.51525  0.87799  1.0000
  C   C25       1.0  0.98197  0.03948  0.10404  1.0000
  C   C26       1.0  0.01802  0.96052  0.89596  1.0000
  C   C27       1.0  0.13437  0.06874  0.00761  1.0000
  C   C28       1.0  0.86562  0.93126  0.99239  1.0000
  C   C29       1.0  0.15315  0.02837  0.90457  1.0000
  C   C30       1.0  0.84684  0.97163  0.09543  1.0000
  C   C31       1.0  0.96408  0.07632  0.21979  1.0000
  C   C32       1.0  0.03592  0.92368  0.78022  1.0000
  Br  Br1       1.0  0.31068  0.16892  0.01726  1.0000
  Br  Br2       1.0  0.68932  0.83108  0.98275  1.0000
  Br  Br3       1.0  0.35984  0.06342  0.77473  1.0000
  Br  Br4       1.0  0.64014  0.93658  0.22526  1.0000
  N   N1        1.0  0.18533  0.16272  0.41813  1.0000
  N   N2        1.0  0.81467  0.83728  0.58187  1.0000
  N   N3        1.0  0.57734  0.55302  0.34558  1.0000
  N   N4        1.0  0.42267  0.44698  0.65442  1.0000
  N   N5        1.0  0.74074  0.60786  0.30578  1.0000
  N   N6        1.0  0.25927  0.39214  0.69422  1.0000
  N   N7        1.0  0.36418  0.61988  0.06667  1.0000
  N   N8        1.0  0.63583  0.38011  0.93333  1.0000
  O   O1        1.0  0.74186  0.44342  0.23818  1.0000
  O   O2        1.0  0.25815  0.55658  0.76182  1.0000
  O   O3        1.0  0.02697  0.99013  0.31501  1.0000
  O   O4        1.0  0.97303  0.00986  0.68499  1.0000
  O   O5        1.0  0.88799  0.18503  0.21264  1.0000
  O   O6        1.0  0.11201  0.81497  0.78737  1.0000
  O   O7        1.0  0.79163  0.14456  0.45811  1.0000
  O   O8        1.0  0.20837  0.85544  0.54190  1.0000
