data_image0
_chemical_formula_structural       Cu4H20C30N2O16
_chemical_formula_sum              "Cu4 H20 C30 N2 O16"
_cell_length_a       8.18917
_cell_length_b       10.0899
_cell_length_c       10.8382
_cell_angle_alpha    63.0208
_cell_angle_beta     72.9131
_cell_angle_gamma    75.349

_space_group_name_H-M_alt    "P 1"
_space_group_IT_number       1

loop_
  _space_group_symop_operation_xyz
  'x, y, z'

loop_
  _atom_site_type_symbol
  _atom_site_label
  _atom_site_symmetry_multiplicity
  _atom_site_fract_x
  _atom_site_fract_y
  _atom_site_fract_z
  _atom_site_occupancy
  Cu  Cu1       1.0  0.00560  0.63724  0.85552  1.0000
  Cu  Cu2       1.0  0.99440  0.36276  0.14448  1.0000
  Cu  Cu3       1.0  0.18284  0.30633  0.84341  1.0000
  Cu  Cu4       1.0  0.81716  0.69366  0.15659  1.0000
  H   H1        1.0  0.04661  0.89961  0.42952  1.0000
  H   H2        1.0  0.95339  0.10038  0.57049  1.0000
  H   H3        1.0  0.25516  0.85794  0.03160  1.0000
  H   H4        1.0  0.74485  0.14207  0.96840  1.0000
  H   H5        1.0  0.23002  0.46281  0.42378  1.0000
  H   H6        1.0  0.76996  0.53720  0.57621  1.0000
  H   H7        1.0  0.43315  0.38222  0.11028  1.0000
  H   H8        1.0  0.56684  0.61778  0.88973  1.0000
  H   H9        1.0  0.37563  0.35969  0.28869  1.0000
  H   H10       1.0  0.62437  0.64031  0.71130  1.0000
  H   H11       1.0  0.16674  0.01900  0.84982  1.0000
  H   H12       1.0  0.83326  0.98101  0.15017  1.0000
  H   H13       1.0  0.28157  0.88176  0.69635  1.0000
  H   H14       1.0  0.71843  0.11824  0.30365  1.0000
  H   H15       1.0  0.63013  0.21460  0.43958  1.0000
  H   H16       1.0  0.36987  0.78541  0.56042  1.0000
  H   H17       1.0  0.49763  0.33564  0.60635  1.0000
  H   H18       1.0  0.50237  0.66436  0.39365  1.0000
  H   H19       1.0  0.88345  0.40732  0.93306  1.0000
  H   H20       1.0  0.11656  0.59267  0.06695  1.0000
  C   C1        1.0  0.13488  0.67423  0.44069  1.0000
  C   C2        1.0  0.86511  0.32577  0.55931  1.0000
  C   C3        1.0  0.10285  0.83056  0.36998  1.0000
  C   C4        1.0  0.89715  0.16944  0.63002  1.0000
  C   C5        1.0  0.14744  0.89724  0.22177  1.0000
  C   C6        1.0  0.85258  0.10276  0.77823  1.0000
  C   C7        1.0  0.21791  0.80748  0.14632  1.0000
  C   C8        1.0  0.78209  0.19252  0.85368  1.0000
  C   C9        1.0  0.24469  0.65157  0.21780  1.0000
  C   C10       1.0  0.75531  0.34843  0.78220  1.0000
  C   C11       1.0  0.20723  0.58401  0.36517  1.0000
  C   C12       1.0  0.79276  0.41600  0.63483  1.0000
  C   C13       1.0  0.09905  0.59897  0.59919  1.0000
  C   C14       1.0  0.90094  0.40103  0.40081  1.0000
  C   C15       1.0  0.11890  0.06481  0.14042  1.0000
  C   C16       1.0  0.88110  0.93519  0.85958  1.0000
  C   C17       1.0  0.42243  0.43796  0.17952  1.0000
  C   C18       1.0  0.57757  0.56204  0.82048  1.0000
  C   C19       1.0  0.60003  0.47505  0.16418  1.0000
  C   C20       1.0  0.39997  0.52496  0.83582  1.0000
  C   C21       1.0  0.26893  0.05792  0.75693  1.0000
  C   C22       1.0  0.73108  0.94208  0.24308  1.0000
  C   C23       1.0  0.33397  0.98294  0.66869  1.0000
  C   C24       1.0  0.66605  0.01705  0.33131  1.0000
  C   C25       1.0  0.46533  0.03733  0.54940  1.0000
  C   C26       1.0  0.53469  0.96266  0.45061  1.0000
  C   C27       1.0  0.52736  0.16551  0.52876  1.0000
  C   C28       1.0  0.47265  0.83449  0.47124  1.0000
  C   C29       1.0  0.45390  0.23501  0.62140  1.0000
  C   C30       1.0  0.54610  0.76499  0.37860  1.0000
  N   N1        1.0  0.32511  0.18312  0.73352  1.0000
  N   N2        1.0  0.67489  0.81688  0.26648  1.0000
  O   O1        1.0  0.06301  0.14434  0.21151  1.0000
  O   O2        1.0  0.93700  0.85565  0.78850  1.0000
  O   O3        1.0  0.15113  0.11100  0.00614  1.0000
  O   O4        1.0  0.84888  0.88900  0.99386  1.0000
  O   O5        1.0  0.71289  0.36024  0.20320  1.0000
  O   O6        1.0  0.28711  0.63977  0.79680  1.0000
  O   O7        1.0  0.61893  0.61151  0.11392  1.0000
  O   O8        1.0  0.38106  0.38850  0.88608  1.0000
  O   O9        1.0  0.18621  0.47012  0.65128  1.0000
  O   O10       1.0  0.81377  0.52987  0.34872  1.0000
  O   O11       1.0  0.98828  0.66985  0.66664  1.0000
  O   O12       1.0  0.01172  0.33015  0.33337  1.0000
  O   O13       1.0  0.99746  0.41496  0.94254  1.0000
  O   O14       1.0  0.00255  0.58506  0.05744  1.0000
  O   O15       1.0  0.29990  0.57165  0.13451  1.0000
  O   O16       1.0  0.70011  0.42836  0.86549  1.0000
