data_image0
_chemical_formula_structural       Cu2H32C46N4O20
_chemical_formula_sum              "Cu2 H32 C46 N4 O20"
_cell_length_a       9.6381
_cell_length_b       10.0044
_cell_length_c       11.0897
_cell_angle_alpha    90.0016
_cell_angle_beta     90.8235
_cell_angle_gamma    90.0002

_space_group_name_H-M_alt    "P 1"
_space_group_IT_number       1

loop_
  _space_group_symop_operation_xyz
  'x, y, z'

loop_
  _atom_site_type_symbol
  _atom_site_label
  _atom_site_symmetry_multiplicity
  _atom_site_fract_x
  _atom_site_fract_y
  _atom_site_fract_z
  _atom_site_occupancy
  Cu  Cu1       1.0  0.70130  0.57749  0.03623  1.0000
  Cu  Cu2       1.0  0.29870  0.07750  0.96377  1.0000
  H   H1        1.0  0.15707  0.45280  0.35074  1.0000
  H   H2        1.0  0.84292  0.95281  0.64926  1.0000
  H   H3        1.0  0.15285  0.76114  0.09244  1.0000
  H   H4        1.0  0.84714  0.26115  0.90755  1.0000
  H   H5        1.0  0.96747  0.77670  0.24818  1.0000
  H   H6        1.0  0.03253  0.27672  0.75182  1.0000
  H   H7        1.0  0.29363  0.76473  0.52207  1.0000
  H   H8        1.0  0.70638  0.26472  0.47793  1.0000
  H   H9        1.0  0.46530  0.73836  0.35264  1.0000
  H   H10       1.0  0.53470  0.23835  0.64734  1.0000
  H   H11       1.0  0.91757  0.82167  0.46974  1.0000
  H   H12       1.0  0.08243  0.32169  0.53026  1.0000
  H   H13       1.0  0.05644  0.81600  0.57774  1.0000
  H   H14       1.0  0.94357  0.31600  0.42226  1.0000
  H   H15       1.0  0.90809  0.57941  0.45581  1.0000
  H   H16       1.0  0.09193  0.07944  0.54419  1.0000
  H   H17       1.0  0.07066  0.56234  0.53137  1.0000
  H   H18       1.0  0.92936  0.06234  0.46865  1.0000
  H   H19       1.0  0.98136  0.61244  0.94825  1.0000
  H   H20       1.0  0.01864  0.11245  0.05176  1.0000
  H   H21       1.0  0.09893  0.62524  0.75182  1.0000
  H   H22       1.0  0.90107  0.12525  0.24819  1.0000
  H   H23       1.0  0.69395  0.59341  0.57956  1.0000
  H   H24       1.0  0.30607  0.09341  0.42045  1.0000
  H   H25       1.0  0.59305  0.57976  0.78527  1.0000
  H   H26       1.0  0.40696  0.07977  0.21473  1.0000
  H   H27       1.0  0.38579  0.73287  0.15239  1.0000
  H   H28       1.0  0.61420  0.23287  0.84759  1.0000
  H   H29       1.0  0.35623  0.47060  0.59453  1.0000
  H   H30       1.0  0.64378  0.97059  0.40547  1.0000
  H   H31       1.0  0.85356  0.47042  0.22188  1.0000
  H   H32       1.0  0.14643  0.97042  0.77812  1.0000
  C   C1        1.0  0.23090  0.43166  0.28025  1.0000
  C   C2        1.0  0.76909  0.93166  0.71975  1.0000
  C   C3        1.0  0.37246  0.42944  0.30816  1.0000
  C   C4        1.0  0.62754  0.92944  0.69184  1.0000
  C   C5        1.0  0.46786  0.40562  0.21529  1.0000
  C   C6        1.0  0.53214  0.90563  0.78471  1.0000
  C   C7        1.0  0.41640  0.37669  0.09909  1.0000
  C   C8        1.0  0.58359  0.87670  0.90091  1.0000
  C   C9        1.0  0.27325  0.37875  0.07069  1.0000
  C   C10       1.0  0.72674  0.87875  0.92931  1.0000
  C   C11       1.0  0.18003  0.41105  0.16315  1.0000
  C   C12       1.0  0.81996  0.91104  0.83685  1.0000
  C   C13       1.0  0.42033  0.45929  0.43275  1.0000
  C   C14       1.0  0.57964  0.95930  0.56724  1.0000
  C   C15       1.0  0.62236  0.39612  0.24096  1.0000
  C   C16       1.0  0.37763  0.89612  0.75903  1.0000
  C   C17       1.0  0.51598  0.33563  0.00359  1.0000
  C   C18       1.0  0.48401  0.83564  0.99641  1.0000
  C   C19       1.0  0.22855  0.35617  0.93964  1.0000
  C   C20       1.0  0.77144  0.85618  0.06036  1.0000
  C   C21       1.0  0.02692  0.42012  0.14147  1.0000
  C   C22       1.0  0.97307  0.92012  0.85852  1.0000
  C   C23       1.0  0.17629  0.75776  0.18873  1.0000
  C   C24       1.0  0.82370  0.25777  0.81127  1.0000
  C   C25       1.0  0.07608  0.76886  0.27636  1.0000
  C   C26       1.0  0.92392  0.26886  0.72364  1.0000
  C   C27       1.0  0.11654  0.76840  0.39829  1.0000
  C   C28       1.0  0.88346  0.26840  0.60171  1.0000
  C   C29       1.0  0.25855  0.76071  0.42808  1.0000
  C   C30       1.0  0.74145  0.26070  0.57192  1.0000
  C   C31       1.0  0.35395  0.74819  0.33696  1.0000
  C   C32       1.0  0.64605  0.24818  0.66303  1.0000
  C   C33       1.0  0.01219  0.76778  0.49690  1.0000
  C   C34       1.0  0.98781  0.26779  0.50310  1.0000
  C   C35       1.0  0.97429  0.62122  0.52786  1.0000
  C   C36       1.0  0.02573  0.12123  0.47215  1.0000
  C   C37       1.0  0.92197  0.60839  0.86453  1.0000
  C   C38       1.0  0.07804  0.10839  0.13548  1.0000
  C   C39       1.0  0.98631  0.61645  0.75377  1.0000
  C   C40       1.0  0.01370  0.11646  0.24625  1.0000
  C   C41       1.0  0.90572  0.61158  0.64804  1.0000
  C   C42       1.0  0.09430  0.11158  0.35197  1.0000
  C   C43       1.0  0.76173  0.59912  0.65879  1.0000
  C   C44       1.0  0.23828  0.09912  0.34121  1.0000
  C   C45       1.0  0.70453  0.59039  0.77275  1.0000
  C   C46       1.0  0.29548  0.09039  0.22725  1.0000
  N   N1        1.0  0.78357  0.59534  0.87372  1.0000
  N   N2        1.0  0.21644  0.09535  0.12628  1.0000
  N   N3        1.0  0.31075  0.74492  0.22114  1.0000
  N   N4        1.0  0.68925  0.24492  0.77886  1.0000
  O   O1        1.0  0.31994  0.43893  0.51647  1.0000
  O   O2        1.0  0.68006  0.93892  0.48354  1.0000
  O   O3        1.0  0.53607  0.50076  0.46072  1.0000
  O   O4        1.0  0.46396  0.00075  0.53928  1.0000
  O   O5        1.0  0.66736  0.29459  0.29251  1.0000
  O   O6        1.0  0.33263  0.79459  0.70748  1.0000
  O   O7        1.0  0.69826  0.49609  0.20504  1.0000
  O   O8        1.0  0.30173  0.99609  0.79495  1.0000
  O   O9        1.0  0.49794  0.22348  0.95155  1.0000
  O   O10       1.0  0.50205  0.72349  0.04844  1.0000
  O   O11       1.0  0.61656  0.41171  0.97520  1.0000
  O   O12       1.0  0.38343  0.91171  0.02480  1.0000
  O   O13       1.0  0.22453  0.45689  0.87413  1.0000
  O   O14       1.0  0.77547  0.95689  0.12587  1.0000
  O   O15       1.0  0.20321  0.23596  0.90126  1.0000
  O   O16       1.0  0.79677  0.73596  0.09874  1.0000
  O   O17       1.0  0.95968  0.46389  0.23783  1.0000
  O   O18       1.0  0.04031  0.96388  0.76216  1.0000
  O   O19       1.0  0.97028  0.39080  0.04464  1.0000
  O   O20       1.0  0.02972  0.89080  0.95536  1.0000
