data_image0
_chemical_formula_structural       Zn2H34C56N10O16
_chemical_formula_sum              "Zn2 H34 C56 N10 O16"
_cell_length_a       9.03518
_cell_length_b       10.5666
_cell_length_c       14.6218
_cell_angle_alpha    76.9222
_cell_angle_beta     87.3816
_cell_angle_gamma    68.9018

_space_group_name_H-M_alt    "P 1"
_space_group_IT_number       1

loop_
  _space_group_symop_operation_xyz
  'x, y, z'

loop_
  _atom_site_type_symbol
  _atom_site_label
  _atom_site_symmetry_multiplicity
  _atom_site_fract_x
  _atom_site_fract_y
  _atom_site_fract_z
  _atom_site_occupancy
  Zn  Zn1       1.0  0.36268  0.96652  0.04136  1.0000
  Zn  Zn2       1.0  0.63732  0.03348  0.95864  1.0000
  H   H1        1.0  0.02814  0.65843  0.12543  1.0000
  H   H2        1.0  0.97185  0.34158  0.87457  1.0000
  H   H3        1.0  0.07374  0.38375  0.39784  1.0000
  H   H4        1.0  0.92626  0.61625  0.60215  1.0000
  H   H5        1.0  0.61389  0.68396  0.28449  1.0000
  H   H6        1.0  0.38610  0.31603  0.71551  1.0000
  H   H7        1.0  0.68332  0.26096  0.18829  1.0000
  H   H8        1.0  0.31668  0.73904  0.81172  1.0000
  H   H9        1.0  0.61224  0.39182  0.31461  1.0000
  H   H10       1.0  0.38775  0.60818  0.68540  1.0000
  H   H11       1.0  0.32977  0.49893  0.35242  1.0000
  H   H12       1.0  0.67022  0.50107  0.64759  1.0000
  H   H13       1.0  0.01159  0.09324  0.05062  1.0000
  H   H14       1.0  0.98841  0.90676  0.94938  1.0000
  H   H15       1.0  0.80360  0.06709  0.16295  1.0000
  H   H16       1.0  0.19640  0.93292  0.83705  1.0000
  H   H17       1.0  0.17387  0.73302  0.34359  1.0000
  H   H18       1.0  0.82613  0.26698  0.65641  1.0000
  H   H19       1.0  0.36349  0.76430  0.21854  1.0000
  H   H20       1.0  0.63651  0.23570  0.78146  1.0000
  H   H21       1.0  0.39742  0.07536  0.26861  1.0000
  H   H22       1.0  0.60259  0.92464  0.73139  1.0000
  H   H23       1.0  0.10709  0.14381  0.29148  1.0000
  H   H24       1.0  0.89291  0.85620  0.70851  1.0000
  H   H25       1.0  0.17550  0.87581  0.55294  1.0000
  H   H26       1.0  0.82449  0.12419  0.44705  1.0000
  H   H27       1.0  0.47263  0.80028  0.54405  1.0000
  H   H28       1.0  0.52737  0.19971  0.45595  1.0000
  H   H29       1.0  0.98430  0.74057  0.45433  1.0000
  H   H30       1.0  0.01570  0.25943  0.54567  1.0000
  H   H31       1.0  0.07874  0.37985  0.99280  1.0000
  H   H32       1.0  0.92126  0.62015  0.00720  1.0000
  H   H33       1.0  0.58726  0.65905  0.42114  1.0000
  H   H34       1.0  0.41274  0.34094  0.57886  1.0000
  C   C1        1.0  0.70638  0.79936  0.12251  1.0000
  C   C2        1.0  0.29361  0.20065  0.87749  1.0000
  C   C3        1.0  0.81027  0.68205  0.19802  1.0000
  C   C4        1.0  0.18973  0.31795  0.80198  1.0000
  C   C5        1.0  0.97352  0.61965  0.18841  1.0000
  C   C6        1.0  0.02648  0.38035  0.81159  1.0000
  C   C7        1.0  0.06860  0.50949  0.25888  1.0000
  C   C8        1.0  0.93140  0.49051  0.74112  1.0000
  C   C9        1.0  0.99994  0.46794  0.34236  1.0000
  C   C10       1.0  0.00006  0.53206  0.65764  1.0000
  C   C11       1.0  0.83643  0.53191  0.35366  1.0000
  C   C12       1.0  0.16357  0.46808  0.64634  1.0000
  C   C13       1.0  0.76594  0.48516  0.44286  1.0000
  C   C14       1.0  0.23408  0.51484  0.55715  1.0000
  C   C15       1.0  0.74208  0.63573  0.28029  1.0000
  C   C16       1.0  0.25792  0.36427  0.71971  1.0000
  C   C17       1.0  0.23895  0.43635  0.24292  1.0000
  C   C18       1.0  0.76105  0.56365  0.75708  1.0000
  C   C19       1.0  0.28047  0.35906  0.17296  1.0000
  C   C20       1.0  0.71953  0.64094  0.82704  1.0000
  C   C21       1.0  0.15220  0.34670  0.11813  1.0000
  C   C22       1.0  0.84780  0.65330  0.88187  1.0000
  C   C23       1.0  0.44110  0.29215  0.15499  1.0000
  C   C24       1.0  0.55890  0.70785  0.84501  1.0000
  C   C25       1.0  0.48279  0.18790  0.09399  1.0000
  C   C26       1.0  0.51720  0.81210  0.90601  1.0000
  C   C27       1.0  0.55937  0.30915  0.20383  1.0000
  C   C28       1.0  0.44063  0.69085  0.79618  1.0000
  C   C29       1.0  0.51877  0.38322  0.27466  1.0000
  C   C30       1.0  0.48123  0.61678  0.72535  1.0000
  C   C31       1.0  0.36020  0.44399  0.29552  1.0000
  C   C32       1.0  0.63979  0.55601  0.70448  1.0000
  C   C33       1.0  0.04173  0.01393  0.11595  1.0000
  C   C34       1.0  0.95827  0.98607  0.88405  1.0000
  C   C35       1.0  0.92703  0.00117  0.17984  1.0000
  C   C36       1.0  0.07297  0.99883  0.82017  1.0000
  C   C37       1.0  0.97161  0.90082  0.26438  1.0000
  C   C38       1.0  0.02839  0.09917  0.73562  1.0000
  C   C39       1.0  0.13174  0.81322  0.27936  1.0000
  C   C40       1.0  0.86826  0.18678  0.72064  1.0000
  C   C41       1.0  0.23840  0.83035  0.21086  1.0000
  C   C42       1.0  0.76160  0.16965  0.78914  1.0000
  C   C43       1.0  0.85032  0.88678  0.33086  1.0000
  C   C44       1.0  0.14968  0.11322  0.66915  1.0000
  C   C45       1.0  0.63033  0.89556  0.39265  1.0000
  C   C46       1.0  0.36967  0.10443  0.60735  1.0000
  C   C47       1.0  0.45931  0.93271  0.40466  1.0000
  C   C48       1.0  0.54069  0.06729  0.59534  1.0000
  C   C49       1.0  0.35325  0.03051  0.33340  1.0000
  C   C50       1.0  0.64675  0.96949  0.66660  1.0000
  C   C51       1.0  0.19092  0.06697  0.34628  1.0000
  C   C52       1.0  0.80908  0.93303  0.65371  1.0000
  C   C53       1.0  0.23065  0.91706  0.49104  1.0000
  C   C54       1.0  0.76935  0.08294  0.50896  1.0000
  C   C55       1.0  0.39546  0.87486  0.48574  1.0000
  C   C56       1.0  0.60454  0.12514  0.51426  1.0000
  N   N1        1.0  0.19533  0.92997  0.13067  1.0000
  N   N2        1.0  0.80467  0.07003  0.86933  1.0000
  N   N3        1.0  0.69352  0.94876  0.31338  1.0000
  N   N4        1.0  0.30648  0.05124  0.68662  1.0000
  N   N5        1.0  0.87782  0.80120  0.41786  1.0000
  N   N6        1.0  0.12218  0.19880  0.58214  1.0000
  N   N7        1.0  0.74058  0.80406  0.45839  1.0000
  N   N8        1.0  0.25942  0.19594  0.54161  1.0000
  N   N9        1.0  0.12856  0.01166  0.42318  1.0000
  N   N10       1.0  0.87143  0.98834  0.57682  1.0000
  O   O1        1.0  0.55857  0.82240  0.12545  1.0000
  O   O2        1.0  0.44144  0.17761  0.87455  1.0000
  O   O3        1.0  0.77496  0.86547  0.06268  1.0000
  O   O4        1.0  0.22505  0.13454  0.93732  1.0000
  O   O5        1.0  0.04671  0.30542  0.15108  1.0000
  O   O6        1.0  0.95329  0.69459  0.84892  1.0000
  O   O7        1.0  0.16073  0.39689  0.02466  1.0000
  O   O8        1.0  0.83927  0.60310  0.97534  1.0000
  O   O9        1.0  0.38985  0.12050  0.09956  1.0000
  O   O10       1.0  0.61015  0.87950  0.90044  1.0000
  O   O11       1.0  0.60616  0.17024  0.04549  1.0000
  O   O12       1.0  0.39385  0.82976  0.95451  1.0000
  O   O13       1.0  0.83255  0.37571  0.50067  1.0000
  O   O14       1.0  0.16747  0.62428  0.49933  1.0000
  O   O15       1.0  0.61895  0.56495  0.46116  1.0000
  O   O16       1.0  0.38106  0.43505  0.53884  1.0000
