data_image0
_chemical_formula_structural       Zn4H34C56N6O18
_chemical_formula_sum              "Zn4 H34 C56 N6 O18"
_cell_length_a       10.7431
_cell_length_b       11.458
_cell_length_c       11.6591
_cell_angle_alpha    114.248
_cell_angle_beta     103.958
_cell_angle_gamma    91.3517

_space_group_name_H-M_alt    "P 1"
_space_group_IT_number       1

loop_
  _space_group_symop_operation_xyz
  'x, y, z'

loop_
  _atom_site_type_symbol
  _atom_site_label
  _atom_site_symmetry_multiplicity
  _atom_site_fract_x
  _atom_site_fract_y
  _atom_site_fract_z
  _atom_site_occupancy
  Zn  Zn1       1.0  0.20566  0.54228  0.40243  1.0000
  Zn  Zn2       1.0  0.79434  0.45772  0.59757  1.0000
  Zn  Zn3       1.0  0.15195  0.75109  0.76579  1.0000
  Zn  Zn4       1.0  0.84805  0.24891  0.23421  1.0000
  H   H1        1.0  0.03073  0.13583  0.69051  1.0000
  H   H2        1.0  0.96927  0.86418  0.30949  1.0000
  H   H3        1.0  0.21040  0.99966  0.67012  1.0000
  H   H4        1.0  0.78961  0.00034  0.32988  1.0000
  H   H5        1.0  0.33711  0.99025  0.51546  1.0000
  H   H6        1.0  0.66289  0.00975  0.48454  1.0000
  H   H7        1.0  0.17259  0.95831  0.20376  1.0000
  H   H8        1.0  0.82740  0.04169  0.79624  1.0000
  H   H9        1.0  0.53632  0.01633  0.12661  1.0000
  H   H10       1.0  0.46368  0.98366  0.87339  1.0000
  H   H11       1.0  0.47243  0.26315  0.49573  1.0000
  H   H12       1.0  0.52756  0.73685  0.50427  1.0000
  H   H13       1.0  0.42975  0.41874  0.33011  1.0000
  H   H14       1.0  0.57026  0.58126  0.66989  1.0000
  H   H15       1.0  0.20116  0.66321  0.22000  1.0000
  H   H16       1.0  0.79884  0.33678  0.77999  1.0000
  H   H17       1.0  0.35929  0.71308  0.11757  1.0000
  H   H18       1.0  0.64070  0.28692  0.88243  1.0000
  H   H19       1.0  0.59892  0.46109  0.23156  1.0000
  H   H20       1.0  0.40109  0.53892  0.76844  1.0000
  H   H21       1.0  0.96478  0.55841  0.10061  1.0000
  H   H22       1.0  0.03521  0.44158  0.89939  1.0000
  H   H23       1.0  0.05734  0.69018  0.00613  1.0000
  H   H24       1.0  0.94266  0.30982  0.99387  1.0000
  H   H25       1.0  0.93207  0.84062  0.94083  1.0000
  H   H26       1.0  0.06794  0.15938  0.05917  1.0000
  H   H27       1.0  0.70692  0.86310  0.95971  1.0000
  H   H28       1.0  0.29308  0.13690  0.04029  1.0000
  H   H29       1.0  0.51529  0.75706  0.04178  1.0000
  H   H30       1.0  0.48471  0.24294  0.95822  1.0000
  H   H31       1.0  0.09562  0.50095  0.65132  1.0000
  H   H32       1.0  0.90438  0.49905  0.34868  1.0000
  H   H33       1.0  0.23066  0.54316  0.63793  1.0000
  H   H34       1.0  0.76933  0.45684  0.36208  1.0000
  C   C1        1.0  0.12912  0.29707  0.40652  1.0000
  C   C2        1.0  0.87088  0.70293  0.59348  1.0000
  C   C3        1.0  0.14494  0.21174  0.47739  1.0000
  C   C4        1.0  0.85506  0.78826  0.52261  1.0000
  C   C5        1.0  0.06844  0.21173  0.56017  1.0000
  C   C6        1.0  0.93156  0.78827  0.43983  1.0000
  C   C7        1.0  0.96019  0.28947  0.58114  1.0000
  C   C8        1.0  0.03981  0.71052  0.41886  1.0000
  C   C9        1.0  0.09162  0.13392  0.62760  1.0000
  C   C10       1.0  0.90838  0.86608  0.37240  1.0000
  C   C11       1.0  0.19084  0.05829  0.61598  1.0000
  C   C12       1.0  0.80916  0.94171  0.38402  1.0000
  C   C13       1.0  0.26307  0.05424  0.53031  1.0000
  C   C14       1.0  0.73693  0.94576  0.46969  1.0000
  C   C15       1.0  0.24044  0.12881  0.45949  1.0000
  C   C16       1.0  0.75955  0.87119  0.54051  1.0000
  C   C17       1.0  0.31622  0.10984  0.36296  1.0000
  C   C18       1.0  0.68377  0.89016  0.63704  1.0000
  C   C19       1.0  0.26975  0.01097  0.23571  1.0000
  C   C20       1.0  0.73025  0.98903  0.76429  1.0000
  C   C21       1.0  0.34868  0.97698  0.15041  1.0000
  C   C22       1.0  0.65132  0.02302  0.84960  1.0000
  C   C23       1.0  0.30250  0.87362  0.01318  1.0000
  C   C24       1.0  0.69750  0.12638  0.98682  1.0000
  C   C25       1.0  0.47393  0.04280  0.19174  1.0000
  C   C26       1.0  0.52606  0.95720  0.80827  1.0000
  C   C27       1.0  0.51653  0.14850  0.31407  1.0000
  C   C28       1.0  0.48347  0.85150  0.68593  1.0000
  C   C29       1.0  0.64389  0.22745  0.34957  1.0000
  C   C30       1.0  0.35611  0.77255  0.65042  1.0000
  C   C31       1.0  0.43782  0.18183  0.39960  1.0000
  C   C32       1.0  0.56218  0.81817  0.60040  1.0000
  C   C33       1.0  0.41783  0.48334  0.28202  1.0000
  C   C34       1.0  0.58218  0.51665  0.71798  1.0000
  C   C35       1.0  0.28972  0.61933  0.21934  1.0000
  C   C36       1.0  0.71028  0.38066  0.78066  1.0000
  C   C37       1.0  0.38014  0.64880  0.16502  1.0000
  C   C38       1.0  0.61986  0.35120  0.83498  1.0000
  C   C39       1.0  0.51228  0.50804  0.22940  1.0000
  C   C40       1.0  0.48772  0.49196  0.77061  1.0000
  C   C41       1.0  0.59979  0.62873  0.12556  1.0000
  C   C42       1.0  0.40021  0.37127  0.87444  1.0000
  C   C43       1.0  0.71108  0.72367  0.04292  1.0000
  C   C44       1.0  0.28892  0.27633  0.95709  1.0000
  C   C45       1.0  0.78335  0.63784  0.08381  1.0000
  C   C46       1.0  0.21665  0.36216  0.91619  1.0000
  C   C47       1.0  0.90922  0.62413  0.07008  1.0000
  C   C48       1.0  0.09077  0.37587  0.92992  1.0000
  C   C49       1.0  0.95972  0.69768  0.01787  1.0000
  C   C50       1.0  0.04028  0.30232  0.98213  1.0000
  C   C51       1.0  0.88760  0.78369  0.97944  1.0000
  C   C52       1.0  0.11240  0.21631  0.02056  1.0000
  C   C53       1.0  0.76202  0.79743  0.99035  1.0000
  C   C54       1.0  0.23799  0.20258  0.00965  1.0000
  C   C55       1.0  0.49655  0.59568  0.17236  1.0000
  C   C56       1.0  0.50345  0.40432  0.82764  1.0000
  N   N1        1.0  0.30856  0.54015  0.27993  1.0000
  N   N2        1.0  0.69144  0.45984  0.72007  1.0000
  N   N3        1.0  0.71171  0.58066  0.13469  1.0000
  N   N4        1.0  0.28829  0.41935  0.86531  1.0000
  N   N5        1.0  0.59473  0.71545  0.07060  1.0000
  N   N6        1.0  0.40527  0.28455  0.92940  1.0000
  O   O1        1.0  0.21821  0.39333  0.45207  1.0000
  O   O2        1.0  0.78179  0.60668  0.54793  1.0000
  O   O3        1.0  0.03752  0.26954  0.30421  1.0000
  O   O4        1.0  0.96248  0.73046  0.69579  1.0000
  O   O5        1.0  0.96672  0.40168  0.57436  1.0000
  O   O6        1.0  0.03328  0.59832  0.42564  1.0000
  O   O7        1.0  0.86497  0.24985  0.60517  1.0000
  O   O8        1.0  0.13503  0.75014  0.39482  1.0000
  O   O9        1.0  0.18195  0.86385  0.95265  1.0000
  O   O10       1.0  0.81805  0.13615  0.04735  1.0000
  O   O11       1.0  0.38108  0.80455  0.96159  1.0000
  O   O12       1.0  0.61892  0.19545  0.03841  1.0000
  O   O13       1.0  0.72970  0.17027  0.29650  1.0000
  O   O14       1.0  0.27030  0.82973  0.70349  1.0000
  O   O15       1.0  0.65663  0.34720  0.42662  1.0000
  O   O16       1.0  0.34337  0.65280  0.57338  1.0000
  O   O17       1.0  0.17620  0.56686  0.69823  1.0000
  O   O18       1.0  0.82380  0.43314  0.30177  1.0000
