data_image0
_chemical_formula_structural       U2CuH20C18N2O16
_chemical_formula_sum              "U2 Cu1 H20 C18 N2 O16"
_cell_length_a       7.6838
_cell_length_b       8.38632
_cell_length_c       11.5331
_cell_angle_alpha    69.8156
_cell_angle_beta     80.234
_cell_angle_gamma    74.0603

_space_group_name_H-M_alt    "P 1"
_space_group_IT_number       1

loop_
  _space_group_symop_operation_xyz
  'x, y, z'

loop_
  _atom_site_type_symbol
  _atom_site_label
  _atom_site_symmetry_multiplicity
  _atom_site_fract_x
  _atom_site_fract_y
  _atom_site_fract_z
  _atom_site_occupancy
  U   U1        1.0  0.99661  0.33891  0.40859  1.0000
  U   U2        1.0  0.00337  0.66110  0.59141  1.0000
  Cu  Cu1       1.0  0.50000  0.50000  1.00000  1.0000
  H   H1        1.0  0.32568  0.65569  0.33687  1.0000
  H   H2        1.0  0.67432  0.34431  0.66313  1.0000
  H   H3        1.0  0.42388  0.63684  0.73522  1.0000
  H   H4        1.0  0.57613  0.36316  0.26478  1.0000
  H   H5        1.0  0.49675  0.85020  0.99262  1.0000
  H   H6        1.0  0.50325  0.14979  0.00738  1.0000
  H   H7        1.0  0.98063  0.89026  0.21167  1.0000
  H   H8        1.0  0.01937  0.10973  0.78833  1.0000
  H   H9        1.0  0.20184  0.92589  0.16090  1.0000
  H   H10       1.0  0.79815  0.07411  0.83910  1.0000
  H   H11       1.0  0.36357  0.92759  0.57238  1.0000
  H   H12       1.0  0.63643  0.07241  0.42762  1.0000
  H   H13       1.0  0.36811  0.19248  0.62444  1.0000
  H   H14       1.0  0.63189  0.80752  0.37556  1.0000
  H   H15       1.0  0.43322  0.15495  0.83983  1.0000
  H   H16       1.0  0.56677  0.84504  0.16017  1.0000
  H   H17       1.0  0.13865  0.39925  0.98331  1.0000
  H   H18       1.0  0.86136  0.60074  0.01669  1.0000
  H   H19       1.0  0.21043  0.45561  0.84291  1.0000
  H   H20       1.0  0.78957  0.54439  0.15709  1.0000
  C   C1        1.0  0.23389  0.58327  0.20232  1.0000
  C   C2        1.0  0.76611  0.41673  0.79768  1.0000
  C   C3        1.0  0.09367  0.97028  0.33315  1.0000
  C   C4        1.0  0.90633  0.02972  0.66685  1.0000
  C   C5        1.0  0.19398  0.67434  0.30164  1.0000
  C   C6        1.0  0.80602  0.32566  0.69836  1.0000
  C   C7        1.0  0.42746  0.75399  0.75450  1.0000
  C   C8        1.0  0.57254  0.24601  0.24550  1.0000
  C   C9        1.0  0.46652  0.87571  0.89838  1.0000
  C   C10       1.0  0.53348  0.12429  0.10162  1.0000
  C   C11       1.0  0.11513  0.87013  0.24278  1.0000
  C   C12       1.0  0.88487  0.12987  0.75722  1.0000
  C   C13       1.0  0.39404  0.91654  0.66395  1.0000
  C   C14       1.0  0.60595  0.08346  0.33605  1.0000
  C   C15       1.0  0.39681  0.06354  0.69335  1.0000
  C   C16       1.0  0.60319  0.93646  0.30665  1.0000
  C   C17       1.0  0.43336  0.04250  0.81285  1.0000
  C   C18       1.0  0.56664  0.95750  0.18715  1.0000
  N   N1        1.0  0.46294  0.73385  0.86968  1.0000
  N   N2        1.0  0.53706  0.26615  0.13032  1.0000
  O   O1        1.0  0.22158  0.22473  0.45721  1.0000
  O   O2        1.0  0.77842  0.77527  0.54279  1.0000
  O   O3        1.0  0.77660  0.45632  0.34563  1.0000
  O   O4        1.0  0.22341  0.54369  0.65437  1.0000
  O   O5        1.0  0.13934  0.47620  0.21024  1.0000
  O   O6        1.0  0.86066  0.52380  0.78976  1.0000
  O   O7        1.0  0.13038  0.88192  0.44498  1.0000
  O   O8        1.0  0.86962  0.11808  0.55502  1.0000
  O   O9        1.0  0.07350  0.59815  0.39823  1.0000
  O   O10       1.0  0.92650  0.40185  0.60177  1.0000
  O   O11       1.0  0.04092  0.13526  0.29422  1.0000
  O   O12       1.0  0.95908  0.86474  0.70578  1.0000
  O   O13       1.0  0.36028  0.62226  0.12007  1.0000
  O   O14       1.0  0.63972  0.37773  0.87993  1.0000
  O   O15       1.0  0.24827  0.40814  0.92769  1.0000
  O   O16       1.0  0.75174  0.59185  0.07231  1.0000
