data_image0
_chemical_formula_structural       Er2H18C18N2O22
_chemical_formula_sum              "Er2 H18 C18 N2 O22"
_cell_length_a       7.34652
_cell_length_b       9.25814
_cell_length_c       11.4862
_cell_angle_alpha    73.3902
_cell_angle_beta     70.5834
_cell_angle_gamma    80.0436

_space_group_name_H-M_alt    "P 1"
_space_group_IT_number       1

loop_
  _space_group_symop_operation_xyz
  'x, y, z'

loop_
  _atom_site_type_symbol
  _atom_site_label
  _atom_site_symmetry_multiplicity
  _atom_site_fract_x
  _atom_site_fract_y
  _atom_site_fract_z
  _atom_site_occupancy
  Er  Er1       1.0  0.10698  0.05282  0.21954  1.0000
  Er  Er2       1.0  0.89303  0.94718  0.78046  1.0000
  H   H1        1.0  0.82017  0.09772  0.45974  1.0000
  H   H2        1.0  0.17987  0.90228  0.54024  1.0000
  H   H3        1.0  0.68546  0.10099  0.37259  1.0000
  H   H4        1.0  0.31455  0.89901  0.62740  1.0000
  H   H5        1.0  0.48008  0.05628  0.22776  1.0000
  H   H6        1.0  0.51992  0.94372  0.77223  1.0000
  H   H7        1.0  0.54711  0.01448  0.09222  1.0000
  H   H8        1.0  0.45291  0.98551  0.90777  1.0000
  H   H9        1.0  0.21188  0.51570  0.27905  1.0000
  H   H10       1.0  0.78813  0.48432  0.72095  1.0000
  H   H11       1.0  0.36985  0.19663  0.59452  1.0000
  H   H12       1.0  0.63014  0.80337  0.40548  1.0000
  H   H13       1.0  0.20887  0.66529  0.60137  1.0000
  H   H14       1.0  0.79114  0.33470  0.39864  1.0000
  H   H15       1.0  0.10421  0.35721  0.15958  1.0000
  H   H16       1.0  0.89576  0.64279  0.84041  1.0000
  H   H17       1.0  0.92161  0.35954  0.12044  1.0000
  H   H18       1.0  0.07838  0.64045  0.87954  1.0000
  C   C1        1.0  0.15724  0.76512  0.36335  1.0000
  C   C2        1.0  0.84274  0.23487  0.63666  1.0000
  C   C3        1.0  0.20885  0.60764  0.43096  1.0000
  C   C4        1.0  0.79115  0.39236  0.56904  1.0000
  C   C5        1.0  0.23464  0.48978  0.37202  1.0000
  C   C6        1.0  0.76536  0.51023  0.62799  1.0000
  C   C7        1.0  0.29278  0.34185  0.42935  1.0000
  C   C8        1.0  0.70721  0.65816  0.57065  1.0000
  C   C9        1.0  0.32299  0.31039  0.54828  1.0000
  C   C10       1.0  0.67700  0.68960  0.45172  1.0000
  C   C11       1.0  0.28761  0.42867  0.60815  1.0000
  C   C12       1.0  0.71240  0.57133  0.39183  1.0000
  C   C13       1.0  0.23245  0.57655  0.55184  1.0000
  C   C14       1.0  0.76757  0.42345  0.44816  1.0000
  C   C15       1.0  0.31728  0.21849  0.36253  1.0000
  C   C16       1.0  0.68272  0.78152  0.63746  1.0000
  C   C17       1.0  0.10767  0.99020  0.96228  1.0000
  C   C18       1.0  0.89235  0.00982  0.03774  1.0000
  N   N1        1.0  0.31696  0.39762  0.73392  1.0000
  N   N2        1.0  0.68304  0.60238  0.26608  1.0000
  O   O1        1.0  0.16356  0.87795  0.40565  1.0000
  O   O2        1.0  0.83646  0.12205  0.59435  1.0000
  O   O3        1.0  0.11042  0.78734  0.26199  1.0000
  O   O4        1.0  0.88953  0.21266  0.73804  1.0000
  O   O5        1.0  0.18601  0.22318  0.31047  1.0000
  O   O6        1.0  0.81397  0.77682  0.68953  1.0000
  O   O7        1.0  0.46030  0.12035  0.36064  1.0000
  O   O8        1.0  0.53972  0.87967  0.63933  1.0000
  O   O9        1.0  0.37827  0.26855  0.77998  1.0000
  O   O10       1.0  0.62165  0.73143  0.22005  1.0000
  O   O11       1.0  0.28304  0.50482  0.78594  1.0000
  O   O12       1.0  0.71701  0.49519  0.21404  1.0000
  O   O13       1.0  0.82182  0.08643  0.37555  1.0000
  O   O14       1.0  0.17820  0.91356  0.62444  1.0000
  O   O15       1.0  0.43257  0.04196  0.16047  1.0000
  O   O16       1.0  0.56743  0.95803  0.83952  1.0000
  O   O17       1.0  0.05410  0.31243  0.10990  1.0000
  O   O18       1.0  0.94589  0.68755  0.89010  1.0000
  O   O19       1.0  0.22784  0.01154  0.01248  1.0000
  O   O20       1.0  0.77219  0.98846  0.98755  1.0000
  O   O21       1.0  0.14743  0.95489  0.85779  1.0000
  O   O22       1.0  0.85258  0.04513  0.14223  1.0000
