data_image0
_chemical_formula_structural       Cd2H28C16S4N12O2
_chemical_formula_sum              "Cd2 H28 C16 S4 N12 O2"
_cell_length_a       6.02946
_cell_length_b       9.84957
_cell_length_c       12.4559
_cell_angle_alpha    104.904
_cell_angle_beta     100.977
_cell_angle_gamma    108.405

_space_group_name_H-M_alt    "P 1"
_space_group_IT_number       1

loop_
  _space_group_symop_operation_xyz
  'x, y, z'

loop_
  _atom_site_type_symbol
  _atom_site_label
  _atom_site_symmetry_multiplicity
  _atom_site_fract_x
  _atom_site_fract_y
  _atom_site_fract_z
  _atom_site_occupancy
  Cd  Cd1       1.0  0.42645  0.31003  0.20103  1.0000
  Cd  Cd2       1.0  0.57356  0.68996  0.79897  1.0000
  H   H1        1.0  0.35142  0.05672  0.00033  1.0000
  H   H2        1.0  0.64841  0.94331  0.99964  1.0000
  H   H3        1.0  0.19039  0.95981  0.05955  1.0000
  H   H4        1.0  0.80955  0.04017  0.94043  1.0000
  H   H5        1.0  0.77898  0.61096  0.16708  1.0000
  H   H6        1.0  0.22101  0.38903  0.83292  1.0000
  H   H7        1.0  0.47324  0.58826  0.10147  1.0000
  H   H8        1.0  0.52675  0.41173  0.89853  1.0000
  H   H9        1.0  0.18785  0.57534  0.21494  1.0000
  H   H10       1.0  0.81215  0.42467  0.78506  1.0000
  H   H11       1.0  0.28173  0.58524  0.36305  1.0000
  H   H12       1.0  0.71828  0.41476  0.63695  1.0000
  H   H13       1.0  0.69479  0.61613  0.45048  1.0000
  H   H14       1.0  0.30523  0.38388  0.54951  1.0000
  H   H15       1.0  0.90657  0.62512  0.36748  1.0000
  H   H16       1.0  0.09341  0.37488  0.63253  1.0000
  H   H17       1.0  0.34168  0.79366  0.16200  1.0000
  H   H18       1.0  0.65832  0.20634  0.83799  1.0000
  H   H19       1.0  0.55182  0.97075  0.26958  1.0000
  H   H20       1.0  0.44820  0.02925  0.73042  1.0000
  H   H21       1.0  0.68506  0.98726  0.46654  1.0000
  H   H22       1.0  0.31496  0.01274  0.53345  1.0000
  H   H23       1.0  0.56876  0.82484  0.50929  1.0000
  H   H24       1.0  0.43125  0.17517  0.49071  1.0000
  H   H25       1.0  0.06173  0.84678  0.31273  1.0000
  H   H26       1.0  0.93828  0.15321  0.68727  1.0000
  H   H27       1.0  0.96242  0.00049  0.35664  1.0000
  H   H28       1.0  0.03758  0.99950  0.64336  1.0000
  C   C1        1.0  0.62619  0.64277  0.18234  1.0000
  C   C2        1.0  0.37384  0.35724  0.81767  1.0000
  C   C3        1.0  0.34075  0.62809  0.29571  1.0000
  C   C4        1.0  0.65927  0.37192  0.70431  1.0000
  C   C5        1.0  0.75434  0.65780  0.38272  1.0000
  C   C6        1.0  0.24568  0.34220  0.61729  1.0000
  C   C7        1.0  0.49626  0.84672  0.24189  1.0000
  C   C8        1.0  0.50376  0.15328  0.75812  1.0000
  C   C9        1.0  0.62555  0.86300  0.43974  1.0000
  C   C10       1.0  0.37447  0.13700  0.56026  1.0000
  C   C11       1.0  0.90611  0.87639  0.32738  1.0000
  C   C12       1.0  0.09391  0.12360  0.67262  1.0000
  C   C13       1.0  0.96127  0.27148  0.32223  1.0000
  C   C14       1.0  0.03874  0.72852  0.67777  1.0000
  C   C15       1.0  0.86589  0.31865  0.06146  1.0000
  C   C16       1.0  0.13411  0.68136  0.93855  1.0000
  S   S1        1.0  0.74184  0.28953  0.37636  1.0000
  S   S2        1.0  0.25816  0.71047  0.62364  1.0000
  S   S3        1.0  0.07493  0.28615  0.00445  1.0000
  S   S4        1.0  0.92509  0.71387  0.99557  1.0000
  N   N1        1.0  0.54456  0.58063  0.27258  1.0000
  N   N2        1.0  0.45543  0.41937  0.72742  1.0000
  N   N3        1.0  0.70251  0.80761  0.21818  1.0000
  N   N4        1.0  0.29749  0.19239  0.78182  1.0000
  N   N5        1.0  0.41513  0.79297  0.33351  1.0000
  N   N6        1.0  0.58487  0.20703  0.66650  1.0000
  N   N7        1.0  0.83325  0.82264  0.42060  1.0000
  N   N8        1.0  0.16675  0.17737  0.57940  1.0000
  N   N9        1.0  0.12347  0.25569  0.28675  1.0000
  N   N10       1.0  0.87656  0.74432  0.71326  1.0000
  N   N11       1.0  0.70895  0.34139  0.09790  1.0000
  N   N12       1.0  0.29103  0.65862  0.90210  1.0000
  O   O1        1.0  0.33969  0.05079  0.07628  1.0000
  O   O2        1.0  0.66031  0.94917  0.92368  1.0000
