data_image0
_chemical_formula_structural       Ag2H10C14N6O6F6
_chemical_formula_sum              "Ag2 H10 C14 N6 O6 F6"
_cell_length_a       7.0634
_cell_length_b       7.15134
_cell_length_c       10.6624
_cell_angle_alpha    92.4074
_cell_angle_beta     95.8777
_cell_angle_gamma    114.496

_space_group_name_H-M_alt    "P 1"
_space_group_IT_number       1

loop_
  _space_group_symop_operation_xyz
  'x, y, z'

loop_
  _atom_site_type_symbol
  _atom_site_label
  _atom_site_symmetry_multiplicity
  _atom_site_fract_x
  _atom_site_fract_y
  _atom_site_fract_z
  _atom_site_occupancy
  Ag  Ag1       1.0  0.68043  0.44376  0.47241  1.0000
  Ag  Ag2       1.0  0.31957  0.55624  0.52759  1.0000
  H   H1        1.0  0.19417  0.35213  0.79501  1.0000
  H   H2        1.0  0.80584  0.64788  0.20499  1.0000
  H   H3        1.0  0.96819  0.19847  0.86556  1.0000
  H   H4        1.0  0.03181  0.80153  0.13444  1.0000
  H   H5        1.0  0.23857  0.10716  0.53046  1.0000
  H   H6        1.0  0.76142  0.89283  0.46955  1.0000
  H   H7        1.0  0.36006  0.85436  0.87501  1.0000
  H   H8        1.0  0.63995  0.14564  0.12499  1.0000
  H   H9        1.0  0.09355  0.86769  0.69971  1.0000
  H   H10       1.0  0.90645  0.13230  0.30029  1.0000
  C   C1        1.0  0.64583  0.63791  0.75208  1.0000
  C   C2        1.0  0.35415  0.36208  0.24792  1.0000
  C   C3        1.0  0.75065  0.66820  0.89180  1.0000
  C   C4        1.0  0.24934  0.33181  0.10820  1.0000
  C   C5        1.0  0.67641  0.16162  0.69602  1.0000
  C   C6        1.0  0.32360  0.83838  0.30398  1.0000
  C   C7        1.0  0.34078  0.08448  0.60637  1.0000
  C   C8        1.0  0.65921  0.91552  0.39363  1.0000
  C   C9        1.0  0.40861  0.94638  0.79539  1.0000
  C   C10       1.0  0.59140  0.05362  0.20462  1.0000
  C   C11       1.0  0.26214  0.95557  0.70054  1.0000
  C   C12       1.0  0.73787  0.04442  0.29946  1.0000
  C   C13       1.0  0.90968  0.26896  0.68806  1.0000
  C   C14       1.0  0.09032  0.73104  0.31195  1.0000
  N   N1        1.0  0.54828  0.18864  0.60376  1.0000
  N   N2        1.0  0.45171  0.81136  0.39624  1.0000
  N   N3        1.0  0.61605  0.04829  0.79313  1.0000
  N   N4        1.0  0.38395  0.95171  0.20687  1.0000
  N   N5        1.0  0.03480  0.27263  0.79144  1.0000
  N   N6        1.0  0.96520  0.72737  0.20856  1.0000
  O   O1        1.0  0.76559  0.70740  0.66996  1.0000
  O   O2        1.0  0.23440  0.29259  0.33003  1.0000
  O   O3        1.0  0.44803  0.53859  0.73766  1.0000
  O   O4        1.0  0.55196  0.46141  0.26234  1.0000
  O   O5        1.0  0.97166  0.34558  0.58842  1.0000
  O   O6        1.0  0.02833  0.65442  0.41158  1.0000
  F   F1        1.0  0.75806  0.48848  0.92561  1.0000
  F   F2        1.0  0.24196  0.51154  0.07439  1.0000
  F   F3        1.0  0.95284  0.81592  0.91091  1.0000
  F   F4        1.0  0.04716  0.18410  0.08908  1.0000
  F   F5        1.0  0.64507  0.72213  0.97575  1.0000
  F   F6        1.0  0.35493  0.27787  0.02425  1.0000
