data_image0
_chemical_formula_structural       Cu4H24C28N16O20
_chemical_formula_sum              "Cu4 H24 C28 N16 O20"
_cell_length_a       7.25393
_cell_length_b       8.21241
_cell_length_c       15.9056
_cell_angle_alpha    90.0002
_cell_angle_beta     90
_cell_angle_gamma    105.364

_space_group_name_H-M_alt    "P 1"
_space_group_IT_number       1

loop_
  _space_group_symop_operation_xyz
  'x, y, z'

loop_
  _atom_site_type_symbol
  _atom_site_label
  _atom_site_symmetry_multiplicity
  _atom_site_fract_x
  _atom_site_fract_y
  _atom_site_fract_z
  _atom_site_occupancy
  Cu  Cu1       1.0  0.29765  0.19998  0.92187  1.0000
  Cu  Cu2       1.0  0.79767  0.19998  0.57813  1.0000
  Cu  Cu3       1.0  0.70231  0.80000  0.07813  1.0000
  Cu  Cu4       1.0  0.20233  0.80002  0.42187  1.0000
  H   H1        1.0  0.32629  0.88327  0.85256  1.0000
  H   H2        1.0  0.82629  0.88327  0.64743  1.0000
  H   H3        1.0  0.67372  0.11672  0.14744  1.0000
  H   H4        1.0  0.17372  0.11673  0.35257  1.0000
  H   H5        1.0  0.51433  0.93683  0.90930  1.0000
  H   H6        1.0  0.01433  0.93683  0.59070  1.0000
  H   H7        1.0  0.48567  0.06317  0.09070  1.0000
  H   H8        1.0  0.98567  0.06317  0.40930  1.0000
  H   H9        1.0  0.73841  0.81895  0.81102  1.0000
  H   H10       1.0  0.23842  0.81895  0.68898  1.0000
  H   H11       1.0  0.26159  0.18105  0.18899  1.0000
  H   H12       1.0  0.76159  0.18105  0.31102  1.0000
  H   H13       1.0  0.53048  0.61215  0.57879  1.0000
  H   H14       1.0  0.03049  0.61216  0.92121  1.0000
  H   H15       1.0  0.46952  0.38785  0.42121  1.0000
  H   H16       1.0  0.96952  0.38785  0.07879  1.0000
  H   H17       1.0  0.22596  0.28737  0.60969  1.0000
  H   H18       1.0  0.72596  0.28738  0.89031  1.0000
  H   H19       1.0  0.77405  0.71263  0.39031  1.0000
  H   H20       1.0  0.27404  0.71263  0.10969  1.0000
  H   H21       1.0  0.13461  0.10050  0.73788  1.0000
  H   H22       1.0  0.63462  0.10051  0.76212  1.0000
  H   H23       1.0  0.86538  0.89950  0.26212  1.0000
  H   H24       1.0  0.36539  0.89950  0.23788  1.0000
  C   C1        1.0  0.41125  0.53507  0.00504  1.0000
  C   C2        1.0  0.91129  0.53507  0.49495  1.0000
  C   C3        1.0  0.58868  0.46492  0.99495  1.0000
  C   C4        1.0  0.08872  0.46492  0.50505  1.0000
  C   C5        1.0  0.06047  0.00204  0.03960  1.0000
  C   C6        1.0  0.56046  0.00203  0.46040  1.0000
  C   C7        1.0  0.93956  0.99797  0.96039  1.0000
  C   C8        1.0  0.43956  0.99796  0.53961  1.0000
  C   C9        1.0  0.64607  0.71262  0.77719  1.0000
  C   C10       1.0  0.14607  0.71262  0.72281  1.0000
  C   C11       1.0  0.35393  0.28738  0.22281  1.0000
  C   C12       1.0  0.85394  0.28738  0.27719  1.0000
  C   C13       1.0  0.44069  0.45521  0.77866  1.0000
  C   C14       1.0  0.94070  0.45522  0.72135  1.0000
  C   C15       1.0  0.55931  0.54478  0.22135  1.0000
  C   C16       1.0  0.05930  0.54478  0.27865  1.0000
  C   C17       1.0  0.42403  0.46061  0.68991  1.0000
  C   C18       1.0  0.92403  0.46062  0.81009  1.0000
  C   C19       1.0  0.57598  0.53939  0.31009  1.0000
  C   C20       1.0  0.07597  0.53939  0.18991  1.0000
  C   C21       1.0  0.53222  0.60103  0.64705  1.0000
  C   C22       1.0  0.03222  0.60104  0.85295  1.0000
  C   C23       1.0  0.46778  0.39897  0.35295  1.0000
  C   C24       1.0  0.96778  0.39897  0.14705  1.0000
  C   C25       1.0  0.24072  0.22192  0.73864  1.0000
  C   C26       1.0  0.74073  0.22192  0.76136  1.0000
  C   C27       1.0  0.75927  0.77808  0.26136  1.0000
  C   C28       1.0  0.25927  0.77808  0.23865  1.0000
  N   N1        1.0  0.64419  0.72674  0.69246  1.0000
  N   N2        1.0  0.14420  0.72675  0.80754  1.0000
  N   N3        1.0  0.35581  0.27326  0.30754  1.0000
  N   N4        1.0  0.85581  0.27326  0.19246  1.0000
  N   N5        1.0  0.55012  0.58200  0.82361  1.0000
  N   N6        1.0  0.05013  0.58201  0.67639  1.0000
  N   N7        1.0  0.44988  0.41800  0.17639  1.0000
  N   N8        1.0  0.94988  0.41800  0.32361  1.0000
  N   N9        1.0  0.29556  0.31141  0.66743  1.0000
  N   N10       1.0  0.79556  0.31141  0.83257  1.0000
  N   N11       1.0  0.70444  0.68859  0.33257  1.0000
  N   N12       1.0  0.20444  0.68859  0.16743  1.0000
  N   N13       1.0  0.32622  0.30242  0.80722  1.0000
  N   N14       1.0  0.82623  0.30243  0.69278  1.0000
  N   N15       1.0  0.67378  0.69757  0.19278  1.0000
  N   N16       1.0  0.17378  0.69758  0.30722  1.0000
  O   O1        1.0  0.24997  0.44682  0.98409  1.0000
  O   O2        1.0  0.75001  0.44682  0.51592  1.0000
  O   O3        1.0  0.74997  0.55317  0.01592  1.0000
  O   O4        1.0  0.25000  0.55318  0.48409  1.0000
  O   O5        1.0  0.44160  0.68619  0.03497  1.0000
  O   O6        1.0  0.94165  0.68619  0.46502  1.0000
  O   O7        1.0  0.55831  0.31381  0.96501  1.0000
  O   O8        1.0  0.05835  0.31380  0.53498  1.0000
  O   O9        1.0  0.23511  0.08283  0.03531  1.0000
  O   O10       1.0  0.73511  0.08282  0.46469  1.0000
  O   O11       1.0  0.76490  0.91718  0.96468  1.0000
  O   O12       1.0  0.26490  0.91718  0.53532  1.0000
  O   O13       1.0  0.97800  0.92498  0.10375  1.0000
  O   O14       1.0  0.47799  0.92498  0.39625  1.0000
  O   O15       1.0  0.02204  0.07502  0.89625  1.0000
  O   O16       1.0  0.52203  0.07501  0.60375  1.0000
  O   O17       1.0  0.43327  0.98159  0.87147  1.0000
  O   O18       1.0  0.93327  0.98159  0.62853  1.0000
  O   O19       1.0  0.56674  0.01840  0.12853  1.0000
  O   O20       1.0  0.06674  0.01841  0.37147  1.0000
