data_image0
_chemical_formula_structural       Zn4H24C28N16O20
_chemical_formula_sum              "Zn4 H24 C28 N16 O20"
_cell_length_a       7.0328
_cell_length_b       8.28602
_cell_length_c       15.9963
_cell_angle_alpha    90
_cell_angle_beta     89.9999
_cell_angle_gamma    105.782

_space_group_name_H-M_alt    "P 1"
_space_group_IT_number       1

loop_
  _space_group_symop_operation_xyz
  'x, y, z'

loop_
  _atom_site_type_symbol
  _atom_site_label
  _atom_site_symmetry_multiplicity
  _atom_site_fract_x
  _atom_site_fract_y
  _atom_site_fract_z
  _atom_site_occupancy
  Zn  Zn1       1.0  0.32928  0.20174  0.91915  1.0000
  Zn  Zn2       1.0  0.17072  0.79825  0.41915  1.0000
  Zn  Zn3       1.0  0.67072  0.79825  0.08085  1.0000
  Zn  Zn4       1.0  0.82928  0.20175  0.58085  1.0000
  H   H1        1.0  0.35587  0.91448  0.84989  1.0000
  H   H2        1.0  0.14413  0.08552  0.34989  1.0000
  H   H3        1.0  0.64413  0.08552  0.15011  1.0000
  H   H4        1.0  0.85587  0.91448  0.65011  1.0000
  H   H5        1.0  0.55296  0.97860  0.90884  1.0000
  H   H6        1.0  0.94704  0.02141  0.40884  1.0000
  H   H7        1.0  0.44704  0.02141  0.09116  1.0000
  H   H8        1.0  0.05296  0.97859  0.59116  1.0000
  H   H9        1.0  0.77585  0.84306  0.81608  1.0000
  H   H10       1.0  0.72415  0.15694  0.31608  1.0000
  H   H11       1.0  0.22415  0.15694  0.18392  1.0000
  H   H12       1.0  0.27585  0.84306  0.68392  1.0000
  H   H13       1.0  0.58731  0.65026  0.58006  1.0000
  H   H14       1.0  0.91269  0.34974  0.08007  1.0000
  H   H15       1.0  0.41269  0.34974  0.41993  1.0000
  H   H16       1.0  0.08731  0.65027  0.91993  1.0000
  H   H17       1.0  0.27835  0.31965  0.60239  1.0000
  H   H18       1.0  0.22165  0.68035  0.10239  1.0000
  H   H19       1.0  0.72165  0.68036  0.39761  1.0000
  H   H20       1.0  0.77835  0.31965  0.89761  1.0000
  H   H21       1.0  0.17645  0.12497  0.72695  1.0000
  H   H22       1.0  0.32355  0.87502  0.22695  1.0000
  H   H23       1.0  0.82355  0.87503  0.27305  1.0000
  H   H24       1.0  0.67645  0.12498  0.77305  1.0000
  C   C1        1.0  0.39833  0.52030  0.00082  1.0000
  C   C2        1.0  0.10166  0.47970  0.50082  1.0000
  C   C3        1.0  0.60166  0.47969  0.99918  1.0000
  C   C4        1.0  0.89834  0.52031  0.49918  1.0000
  C   C5        1.0  0.06163  0.99670  0.04018  1.0000
  C   C6        1.0  0.43835  0.00330  0.54018  1.0000
  C   C7        1.0  0.93836  0.00330  0.95982  1.0000
  C   C8        1.0  0.56163  0.99670  0.45982  1.0000
  C   C9        1.0  0.68590  0.73792  0.78009  1.0000
  C   C10       1.0  0.81410  0.26208  0.28009  1.0000
  C   C11       1.0  0.31410  0.26208  0.21991  1.0000
  C   C12       1.0  0.18590  0.73793  0.71991  1.0000
  C   C13       1.0  0.47917  0.47913  0.77552  1.0000
  C   C14       1.0  0.02083  0.52087  0.27552  1.0000
  C   C15       1.0  0.52083  0.52088  0.22448  1.0000
  C   C16       1.0  0.97918  0.47913  0.72448  1.0000
  C   C17       1.0  0.46957  0.49007  0.68713  1.0000
  C   C18       1.0  0.03043  0.50993  0.18713  1.0000
  C   C19       1.0  0.53044  0.50994  0.31287  1.0000
  C   C20       1.0  0.96957  0.49006  0.81287  1.0000
  C   C21       1.0  0.58154  0.63374  0.64773  1.0000
  C   C22       1.0  0.91846  0.36626  0.14773  1.0000
  C   C23       1.0  0.41846  0.36626  0.35227  1.0000
  C   C24       1.0  0.08155  0.63374  0.85227  1.0000
  C   C25       1.0  0.28264  0.24742  0.73044  1.0000
  C   C26       1.0  0.21736  0.75258  0.23044  1.0000
  C   C27       1.0  0.71736  0.75258  0.26956  1.0000
  C   C28       1.0  0.78264  0.24742  0.76956  1.0000
  N   N1        1.0  0.69061  0.75705  0.69603  1.0000
  N   N2        1.0  0.80939  0.24295  0.19603  1.0000
  N   N3        1.0  0.30939  0.24295  0.30397  1.0000
  N   N4        1.0  0.19061  0.75705  0.80397  1.0000
  N   N5        1.0  0.58551  0.60361  0.82330  1.0000
  N   N6        1.0  0.91449  0.39640  0.32330  1.0000
  N   N7        1.0  0.41449  0.39639  0.17670  1.0000
  N   N8        1.0  0.08551  0.60361  0.67670  1.0000
  N   N9        1.0  0.34275  0.34156  0.66134  1.0000
  N   N10       1.0  0.15725  0.65844  0.16134  1.0000
  N   N11       1.0  0.65725  0.65844  0.33866  1.0000
  N   N12       1.0  0.84276  0.34156  0.83866  1.0000
  N   N13       1.0  0.36230  0.32391  0.80079  1.0000
  N   N14       1.0  0.13770  0.67610  0.30079  1.0000
  N   N15       1.0  0.63770  0.67610  0.19921  1.0000
  N   N16       1.0  0.86231  0.32391  0.69921  1.0000
  O   O1        1.0  0.24882  0.41088  0.97483  1.0000
  O   O2        1.0  0.25117  0.58911  0.47482  1.0000
  O   O3        1.0  0.75117  0.58911  0.02517  1.0000
  O   O4        1.0  0.74882  0.41088  0.52517  1.0000
  O   O5        1.0  0.39740  0.66513  0.02834  1.0000
  O   O6        1.0  0.10260  0.33486  0.52834  1.0000
  O   O7        1.0  0.60260  0.33485  0.97166  1.0000
  O   O8        1.0  0.89740  0.66513  0.47167  1.0000
  O   O9        1.0  0.24690  0.06169  0.03489  1.0000
  O   O10       1.0  0.25311  0.93832  0.53489  1.0000
  O   O11       1.0  0.75311  0.93831  0.96511  1.0000
  O   O12       1.0  0.74690  0.06169  0.46511  1.0000
  O   O13       1.0  0.96987  0.92854  0.10458  1.0000
  O   O14       1.0  0.53013  0.07147  0.60459  1.0000
  O   O15       1.0  0.03013  0.07146  0.89541  1.0000
  O   O16       1.0  0.46987  0.92855  0.39541  1.0000
  O   O17       1.0  0.45704  0.01659  0.87372  1.0000
  O   O18       1.0  0.04296  0.98341  0.37372  1.0000
  O   O19       1.0  0.54296  0.98341  0.12628  1.0000
  O   O20       1.0  0.95704  0.01659  0.62628  1.0000
