data_image0
_chemical_formula_structural       Sn4H50C16S4N2O10
_chemical_formula_sum              "Sn4 H50 C16 S4 N2 O10"
_cell_length_a       8.17189
_cell_length_b       8.56399
_cell_length_c       13.228
_cell_angle_alpha    81.2779
_cell_angle_beta     73.4362
_cell_angle_gamma    77.8472

_space_group_name_H-M_alt    "P 1"
_space_group_IT_number       1

loop_
  _space_group_symop_operation_xyz
  'x, y, z'

loop_
  _atom_site_type_symbol
  _atom_site_label
  _atom_site_symmetry_multiplicity
  _atom_site_fract_x
  _atom_site_fract_y
  _atom_site_fract_z
  _atom_site_occupancy
  Sn  Sn1       1.0  0.55448  0.85969  0.23082  1.0000
  Sn  Sn2       1.0  0.44549  0.14030  0.76919  1.0000
  Sn  Sn3       1.0  0.21320  0.57073  0.27673  1.0000
  Sn  Sn4       1.0  0.78679  0.42927  0.72327  1.0000
  H   H1        1.0  0.20744  0.88350  0.27285  1.0000
  H   H2        1.0  0.79252  0.11650  0.72715  1.0000
  H   H3        1.0  0.83749  0.32110  0.47999  1.0000
  H   H4        1.0  0.16253  0.67890  0.52001  1.0000
  H   H5        1.0  0.73246  0.26074  0.39270  1.0000
  H   H6        1.0  0.26756  0.73925  0.60729  1.0000
  H   H7        1.0  0.81198  0.11521  0.49016  1.0000
  H   H8        1.0  0.18804  0.88479  0.50983  1.0000
  H   H9        1.0  0.97472  0.19016  0.01320  1.0000
  H   H10       1.0  0.02528  0.80985  0.98680  1.0000
  H   H11       1.0  0.06822  0.28282  0.09272  1.0000
  H   H12       1.0  0.93178  0.71719  0.90727  1.0000
  H   H13       1.0  0.16792  0.08717  0.04889  1.0000
  H   H14       1.0  0.83208  0.91283  0.95110  1.0000
  H   H15       1.0  0.70555  0.54293  0.22645  1.0000
  H   H16       1.0  0.29444  0.45708  0.77356  1.0000
  H   H17       1.0  0.63688  0.60963  0.10839  1.0000
  H   H18       1.0  0.36310  0.39037  0.89162  1.0000
  H   H19       1.0  0.83032  0.66051  0.12218  1.0000
  H   H20       1.0  0.16966  0.33952  0.87784  1.0000
  H   H21       1.0  0.41890  0.16537  0.17674  1.0000
  H   H22       1.0  0.58107  0.83463  0.82326  1.0000
  H   H23       1.0  0.61527  0.10911  0.07808  1.0000
  H   H24       1.0  0.38472  0.89086  0.92193  1.0000
  H   H25       1.0  0.42053  0.04361  0.07753  1.0000
  H   H26       1.0  0.57946  0.95637  0.92247  1.0000
  H   H27       1.0  0.45089  0.99272  0.41387  1.0000
  H   H28       1.0  0.54912  0.00728  0.58614  1.0000
  H   H29       1.0  0.54017  0.78510  0.43937  1.0000
  H   H30       1.0  0.45984  0.21492  0.56064  1.0000
  H   H31       1.0  0.68144  0.92746  0.38459  1.0000
  H   H32       1.0  0.31857  0.07254  0.61539  1.0000
  H   H33       1.0  0.86841  0.67450  0.32215  1.0000
  H   H34       1.0  0.13158  0.32549  0.67784  1.0000
  H   H35       1.0  0.92089  0.55513  0.43504  1.0000
  H   H36       1.0  0.07910  0.44488  0.56495  1.0000
  H   H37       1.0  0.95274  0.75956  0.40731  1.0000
  H   H38       1.0  0.04725  0.24045  0.59268  1.0000
  H   H39       1.0  0.50462  0.36226  0.30213  1.0000
  H   H40       1.0  0.49539  0.63774  0.69788  1.0000
  H   H41       1.0  0.42914  0.49522  0.40494  1.0000
  H   H42       1.0  0.57087  0.50478  0.59506  1.0000
  H   H43       1.0  0.32399  0.32814  0.41113  1.0000
  H   H44       1.0  0.67600  0.67187  0.58887  1.0000
  H   H45       1.0  0.13909  0.60037  0.08700  1.0000
  H   H46       1.0  0.86094  0.39963  0.91299  1.0000
  H   H47       1.0  0.35248  0.64251  0.06597  1.0000
  H   H48       1.0  0.64756  0.35747  0.93403  1.0000
  H   H49       1.0  0.31691  0.43876  0.08966  1.0000
  H   H50       1.0  0.68310  0.56122  0.91035  1.0000
  C   C1        1.0  0.83187  0.22419  0.43639  1.0000
  C   C2        1.0  0.16815  0.77581  0.56360  1.0000
  C   C3        1.0  0.04575  0.17010  0.07412  1.0000
  C   C4        1.0  0.95425  0.82991  0.92587  1.0000
  C   C5        1.0  0.69860  0.64187  0.16392  1.0000
  C   C6        1.0  0.30138  0.35813  0.83609  1.0000
  C   C7        1.0  0.49573  0.07017  0.12723  1.0000
  C   C8        1.0  0.50424  0.92983  0.87277  1.0000
  C   C9        1.0  0.55795  0.89536  0.38659  1.0000
  C   C10       1.0  0.44205  0.10464  0.61340  1.0000
  C   C11       1.0  0.95799  0.65013  0.37242  1.0000
  C   C12       1.0  0.04201  0.34987  0.62757  1.0000
  C   C13       1.0  0.39014  0.42041  0.35854  1.0000
  C   C14       1.0  0.60986  0.57959  0.64146  1.0000
  C   C15       1.0  0.26192  0.56213  0.10907  1.0000
  C   C16       1.0  0.73811  0.43786  0.89093  1.0000
  S   S1        1.0  0.03661  0.18064  0.34392  1.0000
  S   S2        1.0  0.96340  0.81936  0.65608  1.0000
  S   S3        1.0  0.91443  0.08226  0.19095  1.0000
  S   S4        1.0  0.08555  0.91775  0.80904  1.0000
  N   N1        1.0  0.02514  0.04179  0.27798  1.0000
  N   N2        1.0  0.97487  0.95822  0.72202  1.0000
  O   O1        1.0  0.06848  0.32874  0.27460  1.0000
  O   O2        1.0  0.93155  0.67126  0.72540  1.0000
  O   O3        1.0  0.16412  0.11170  0.40292  1.0000
  O   O4        1.0  0.83590  0.88829  0.59707  1.0000
  O   O5        1.0  0.75557  0.19802  0.22221  1.0000
  O   O6        1.0  0.24444  0.80200  0.77779  1.0000
  O   O7        1.0  0.89420  0.92711  0.16667  1.0000
  O   O8        1.0  0.10578  0.07290  0.83332  1.0000
  O   O9        1.0  0.30594  0.79061  0.26829  1.0000
  O   O10       1.0  0.69402  0.20939  0.73172  1.0000
