data_image0
_chemical_formula_structural       Sn4H50C16S4N2O10
_chemical_formula_sum              "Sn4 H50 C16 S4 N2 O10"
_cell_length_a       8.13076
_cell_length_b       8.64375
_cell_length_c       12.9664
_cell_angle_alpha    80.8255
_cell_angle_beta     74.9751
_cell_angle_gamma    78.305

_space_group_name_H-M_alt    "P 1"
_space_group_IT_number       1

loop_
  _space_group_symop_operation_xyz
  'x, y, z'

loop_
  _atom_site_type_symbol
  _atom_site_label
  _atom_site_symmetry_multiplicity
  _atom_site_fract_x
  _atom_site_fract_y
  _atom_site_fract_z
  _atom_site_occupancy
  Sn  Sn1       1.0  0.54828  0.86652  0.22794  1.0000
  Sn  Sn2       1.0  0.45172  0.13348  0.77206  1.0000
  Sn  Sn3       1.0  0.21280  0.57357  0.27307  1.0000
  Sn  Sn4       1.0  0.78720  0.42643  0.72693  1.0000
  H   H1        1.0  0.20211  0.88608  0.26992  1.0000
  H   H2        1.0  0.79789  0.11392  0.73008  1.0000
  H   H3        1.0  0.85981  0.32376  0.48062  1.0000
  H   H4        1.0  0.14019  0.67625  0.51937  1.0000
  H   H5        1.0  0.74515  0.27317  0.39176  1.0000
  H   H6        1.0  0.25485  0.72684  0.60824  1.0000
  H   H7        1.0  0.82095  0.12324  0.49162  1.0000
  H   H8        1.0  0.17905  0.87676  0.50837  1.0000
  H   H9        1.0  0.95565  0.20690  0.01249  1.0000
  H   H10       1.0  0.04435  0.79311  0.98752  1.0000
  H   H11       1.0  0.07048  0.28182  0.09100  1.0000
  H   H12       1.0  0.92951  0.71819  0.90900  1.0000
  H   H13       1.0  0.14878  0.08918  0.04302  1.0000
  H   H14       1.0  0.85122  0.91083  0.95698  1.0000
  H   H15       1.0  0.66496  0.54980  0.20809  1.0000
  H   H16       1.0  0.33505  0.45020  0.79191  1.0000
  H   H17       1.0  0.64510  0.65407  0.08028  1.0000
  H   H18       1.0  0.35489  0.34593  0.91972  1.0000
  H   H19       1.0  0.82546  0.66340  0.13264  1.0000
  H   H20       1.0  0.17454  0.33660  0.86736  1.0000
  H   H21       1.0  0.41988  0.17430  0.17508  1.0000
  H   H22       1.0  0.58012  0.82570  0.82491  1.0000
  H   H23       1.0  0.60436  0.11318  0.07166  1.0000
  H   H24       1.0  0.39564  0.88682  0.92834  1.0000
  H   H25       1.0  0.40096  0.05776  0.07747  1.0000
  H   H26       1.0  0.59904  0.94223  0.92254  1.0000
  H   H27       1.0  0.45164  0.98537  0.41674  1.0000
  H   H28       1.0  0.54836  0.01463  0.58326  1.0000
  H   H29       1.0  0.53778  0.77825  0.43979  1.0000
  H   H30       1.0  0.46222  0.22175  0.56021  1.0000
  H   H31       1.0  0.68098  0.91892  0.38813  1.0000
  H   H32       1.0  0.31902  0.08108  0.61187  1.0000
  H   H33       1.0  0.94107  0.76898  0.38272  1.0000
  H   H34       1.0  0.05893  0.23103  0.61728  1.0000
  H   H35       1.0  0.86402  0.63742  0.31942  1.0000
  H   H36       1.0  0.13598  0.36259  0.68058  1.0000
  H   H37       1.0  0.93380  0.56713  0.44027  1.0000
  H   H38       1.0  0.06620  0.43288  0.55973  1.0000
  H   H39       1.0  0.43514  0.50528  0.40417  1.0000
  H   H40       1.0  0.56487  0.49472  0.59583  1.0000
  H   H41       1.0  0.32087  0.34249  0.41971  1.0000
  H   H42       1.0  0.67914  0.65751  0.58029  1.0000
  H   H43       1.0  0.49837  0.36389  0.30747  1.0000
  H   H44       1.0  0.50163  0.63611  0.69253  1.0000
  H   H45       1.0  0.31755  0.66516  0.05891  1.0000
  H   H46       1.0  0.68245  0.33484  0.94109  1.0000
  H   H47       1.0  0.36354  0.45300  0.08427  1.0000
  H   H48       1.0  0.63645  0.54700  0.91573  1.0000
  H   H49       1.0  0.14868  0.54996  0.08094  1.0000
  H   H50       1.0  0.85132  0.45004  0.91906  1.0000
  C   C1        1.0  0.84534  0.23089  0.43689  1.0000
  C   C2        1.0  0.15466  0.76912  0.56311  1.0000
  C   C3        1.0  0.03443  0.17611  0.07201  1.0000
  C   C4        1.0  0.96557  0.82389  0.92799  1.0000
  C   C5        1.0  0.68734  0.65792  0.15341  1.0000
  C   C6        1.0  0.31266  0.34208  0.84659  1.0000
  C   C7        1.0  0.48580  0.07917  0.12487  1.0000
  C   C8        1.0  0.51420  0.92082  0.87513  1.0000
  C   C9        1.0  0.55636  0.88970  0.38810  1.0000
  C   C10       1.0  0.44364  0.11030  0.61190  1.0000
  C   C11       1.0  0.95667  0.64658  0.36513  1.0000
  C   C12       1.0  0.04333  0.35342  0.63486  1.0000
  C   C13       1.0  0.38899  0.42872  0.36179  1.0000
  C   C14       1.0  0.61101  0.57128  0.63821  1.0000
  C   C15       1.0  0.26691  0.55928  0.10342  1.0000
  C   C16       1.0  0.73309  0.44072  0.89658  1.0000
  S   S1        1.0  0.04526  0.18186  0.34411  1.0000
  S   S2        1.0  0.95474  0.81814  0.65589  1.0000
  S   S3        1.0  0.90647  0.08994  0.19163  1.0000
  S   S4        1.0  0.09353  0.91006  0.80836  1.0000
  N   N1        1.0  0.02326  0.04602  0.27918  1.0000
  N   N2        1.0  0.97673  0.95399  0.72082  1.0000
  O   O1        1.0  0.08088  0.32686  0.27159  1.0000
  O   O2        1.0  0.91912  0.67315  0.72841  1.0000
  O   O3        1.0  0.17415  0.11025  0.40468  1.0000
  O   O4        1.0  0.82584  0.88975  0.59532  1.0000
  O   O5        1.0  0.75175  0.20644  0.22343  1.0000
  O   O6        1.0  0.24825  0.79356  0.77656  1.0000
  O   O7        1.0  0.87954  0.93764  0.16832  1.0000
  O   O8        1.0  0.12046  0.06236  0.83168  1.0000
  O   O9        1.0  0.30062  0.79477  0.26291  1.0000
  O   O10       1.0  0.69938  0.20522  0.73709  1.0000
