data_image0
_chemical_formula_structural       CoH8C12N2O4
_chemical_formula_sum              "Co1 H8 C12 N2 O4"
_cell_length_a       6.9347
_cell_length_b       7.78955
_cell_length_c       7.55329
_cell_angle_alpha    79.3557
_cell_angle_beta     73.8412
_cell_angle_gamma    76.2608

_space_group_name_H-M_alt    "P 1"
_space_group_IT_number       1

loop_
  _space_group_symop_operation_xyz
  'x, y, z'

loop_
  _atom_site_type_symbol
  _atom_site_label
  _atom_site_symmetry_multiplicity
  _atom_site_fract_x
  _atom_site_fract_y
  _atom_site_fract_z
  _atom_site_occupancy
  Co  Co1       1.0  0.99346  0.92799  0.06339  1.0000
  H   H1        1.0  0.08371  0.90723  0.42577  1.0000
  H   H2        1.0  0.92520  0.55486  0.09813  1.0000
  H   H3        1.0  0.48451  0.95797  0.80894  1.0000
  H   H4        1.0  0.51730  0.20417  0.03598  1.0000
  H   H5        1.0  0.33761  0.97102  0.53963  1.0000
  H   H6        1.0  0.66485  0.46508  0.03703  1.0000
  H   H7        1.0  0.57319  0.94771  0.22317  1.0000
  H   H8        1.0  0.43055  0.76532  0.06931  1.0000
  C   C1        1.0  0.88614  0.91716  0.79601  1.0000
  C   C2        1.0  0.10373  0.21311  0.06756  1.0000
  C   C3        1.0  0.79634  0.92710  0.63817  1.0000
  C   C4        1.0  0.20783  0.35922  0.07033  1.0000
  C   C5        1.0  0.91848  0.91966  0.45690  1.0000
  C   C6        1.0  0.08940  0.53081  0.08599  1.0000
  C   C7        1.0  0.58363  0.94675  0.66995  1.0000
  C   C8        1.0  0.41861  0.33470  0.05220  1.0000
  C   C9        1.0  0.50224  0.95480  0.51923  1.0000
  C   C10       1.0  0.50102  0.48157  0.05192  1.0000
  C   C11       1.0  0.63205  0.94325  0.34349  1.0000
  C   C12       1.0  0.37202  0.64729  0.06929  1.0000
  N   N1        1.0  0.83811  0.92745  0.31128  1.0000
  N   N2        1.0  0.16860  0.67263  0.08466  1.0000
  O   O1        1.0  0.78132  0.87940  0.96371  1.0000
  O   O2        1.0  0.19771  0.04900  0.09873  1.0000
  O   O3        1.0  0.06325  0.94948  0.78015  1.0000
  O   O4        1.0  0.92914  0.24912  0.03520  1.0000
