data_image0
_chemical_formula_structural       Y2H36C36N8O16
_chemical_formula_sum              "Y2 H36 C36 N8 O16"
_cell_length_a       9.88632
_cell_length_b       10.2767
_cell_length_c       11.002
_cell_angle_alpha    77.4693
_cell_angle_beta     76.4681
_cell_angle_gamma    65.5733

_space_group_name_H-M_alt    "P 1"
_space_group_IT_number       1

loop_
  _space_group_symop_operation_xyz
  'x, y, z'

loop_
  _atom_site_type_symbol
  _atom_site_label
  _atom_site_symmetry_multiplicity
  _atom_site_fract_x
  _atom_site_fract_y
  _atom_site_fract_z
  _atom_site_occupancy
  Y   Y1        1.0  0.05605  0.77242  0.17483  1.0000
  Y   Y2        1.0  0.94396  0.22758  0.82517  1.0000
  H   H1        1.0  0.33688  0.15065  0.83944  1.0000
  H   H2        1.0  0.66312  0.84935  0.16056  1.0000
  H   H3        1.0  0.39341  0.87239  0.19212  1.0000
  H   H4        1.0  0.60659  0.12761  0.80789  1.0000
  H   H5        1.0  0.56760  0.58723  0.27404  1.0000
  H   H6        1.0  0.43240  0.41278  0.72596  1.0000
  H   H7        1.0  0.24340  0.49760  0.58100  1.0000
  H   H8        1.0  0.75659  0.50240  0.41900  1.0000
  H   H9        1.0  0.70502  0.08215  0.49734  1.0000
  H   H10       1.0  0.29498  0.91785  0.50265  1.0000
  H   H11       1.0  0.55306  0.79796  0.38350  1.0000
  H   H12       1.0  0.44694  0.20204  0.61650  1.0000
  H   H13       1.0  0.53393  0.86080  0.73074  1.0000
  H   H14       1.0  0.46607  0.13920  0.26926  1.0000
  H   H15       1.0  0.58061  0.69230  0.68017  1.0000
  H   H16       1.0  0.41939  0.30770  0.31983  1.0000
  H   H17       1.0  0.67321  0.56870  0.87073  1.0000
  H   H18       1.0  0.32679  0.43130  0.12928  1.0000
  H   H19       1.0  0.63610  0.73761  0.91670  1.0000
  H   H20       1.0  0.36390  0.26239  0.08329  1.0000
  H   H21       1.0  0.98132  0.25483  0.45054  1.0000
  H   H22       1.0  0.01868  0.74517  0.54946  1.0000
  H   H23       1.0  0.15817  0.18334  0.34975  1.0000
  H   H24       1.0  0.84183  0.81666  0.65025  1.0000
  H   H25       1.0  0.00382  0.14859  0.22813  1.0000
  H   H26       1.0  0.99617  0.85141  0.77187  1.0000
  H   H27       1.0  0.84049  0.29529  0.28384  1.0000
  H   H28       1.0  0.15951  0.70471  0.71616  1.0000
  H   H29       1.0  0.44772  0.63447  0.06400  1.0000
  H   H30       1.0  0.55228  0.36553  0.93601  1.0000
  H   H31       1.0  0.28273  0.85362  0.74626  1.0000
  H   H32       1.0  0.71727  0.14638  0.25374  1.0000
  H   H33       1.0  0.07886  0.46256  0.36396  1.0000
  H   H34       1.0  0.92114  0.53744  0.63604  1.0000
  H   H35       1.0  0.96684  0.38071  0.06223  1.0000
  H   H36       1.0  0.03316  0.61929  0.93777  1.0000
  C   C1        1.0  0.35091  0.01299  0.01786  1.0000
  C   C2        1.0  0.64909  0.98702  0.98215  1.0000
  C   C3        1.0  0.40983  0.08470  0.90865  1.0000
  C   C4        1.0  0.59017  0.91530  0.09135  1.0000
  C   C5        1.0  0.44142  0.92847  0.10912  1.0000
  C   C6        1.0  0.55858  0.07153  0.89088  1.0000
  C   C7        1.0  0.19289  0.02243  0.03396  1.0000
  C   C8        1.0  0.80711  0.97757  0.96604  1.0000
  C   C9        1.0  0.39352  0.54935  0.41894  1.0000
  C   C10       1.0  0.60648  0.45066  0.58106  1.0000
  C   C11       1.0  0.53899  0.54835  0.37312  1.0000
  C   C12       1.0  0.46101  0.45165  0.62688  1.0000
  C   C13       1.0  0.35518  0.50005  0.54643  1.0000
  C   C14       1.0  0.64482  0.49995  0.45358  1.0000
  C   C15       1.0  0.27917  0.60653  0.33280  1.0000
  C   C16       1.0  0.72083  0.39347  0.66720  1.0000
  C   C17       1.0  0.64435  0.93278  0.43300  1.0000
  C   C18       1.0  0.35565  0.06722  0.56699  1.0000
  C   C19       1.0  0.61470  0.04649  0.49927  1.0000
  C   C20       1.0  0.38530  0.95351  0.50073  1.0000
  C   C21       1.0  0.52867  0.88668  0.43466  1.0000
  C   C22       1.0  0.47133  0.11332  0.56533  1.0000
  C   C23       1.0  0.79497  0.86721  0.35395  1.0000
  C   C24       1.0  0.20503  0.13279  0.64605  1.0000
  C   C25       1.0  0.32885  0.72796  0.91628  1.0000
  C   C26       1.0  0.67115  0.27204  0.08372  1.0000
  C   C27       1.0  0.52304  0.75592  0.75876  1.0000
  C   C28       1.0  0.47696  0.24408  0.24124  1.0000
  C   C29       1.0  0.58703  0.67664  0.88255  1.0000
  C   C30       1.0  0.41297  0.32337  0.11745  1.0000
  C   C31       1.0  0.04235  0.26567  0.35453  1.0000
  C   C32       1.0  0.95765  0.73433  0.64547  1.0000
  C   C33       1.0  0.96330  0.25715  0.25321  1.0000
  C   C34       1.0  0.03670  0.74285  0.74679  1.0000
  C   C35       1.0  0.03170  0.45430  0.19228  1.0000
  C   C36       1.0  0.96830  0.54570  0.80772  1.0000
  N   N1        1.0  0.45475  0.66739  0.96923  1.0000
  N   N2        1.0  0.54525  0.33262  0.03077  1.0000
  N   N3        1.0  0.36480  0.77313  0.79111  1.0000
  N   N4        1.0  0.63520  0.22687  0.20889  1.0000
  N   N5        1.0  0.04434  0.41043  0.31599  1.0000
  N   N6        1.0  0.95566  0.58957  0.68401  1.0000
  N   N7        1.0  0.00071  0.35830  0.14801  1.0000
  N   N8        1.0  0.99929  0.64169  0.85199  1.0000
  O   O1        1.0  0.14405  0.95265  0.13225  1.0000
  O   O2        1.0  0.85595  0.04734  0.86775  1.0000
  O   O3        1.0  0.11741  0.09848  0.94738  1.0000
  O   O4        1.0  0.88259  0.90152  0.05262  1.0000
  O   O5        1.0  0.14216  0.62168  0.37556  1.0000
  O   O6        1.0  0.85783  0.37832  0.62444  1.0000
  O   O7        1.0  0.31793  0.64493  0.21572  1.0000
  O   O8        1.0  0.68207  0.35507  0.78428  1.0000
  O   O9        1.0  0.83088  0.74782  0.31446  1.0000
  O   O10       1.0  0.16912  0.25218  0.68554  1.0000
  O   O11       1.0  0.88248  0.93729  0.32244  1.0000
  O   O12       1.0  0.11753  0.06271  0.67756  1.0000
  O   O13       1.0  0.19811  0.73946  0.97147  1.0000
  O   O14       1.0  0.80189  0.26054  0.02853  1.0000
  O   O15       1.0  0.04958  0.56601  0.12695  1.0000
  O   O16       1.0  0.95042  0.43399  0.87305  1.0000
