data_image0
_chemical_formula_structural       Cu4H8C16N8O8
_chemical_formula_sum              "Cu4 H8 C16 N8 O8"
_cell_length_a       4.82969
_cell_length_b       8.18987
_cell_length_c       12.9843
_cell_angle_alpha    101.894
_cell_angle_beta     90.0706
_cell_angle_gamma    107.16

_space_group_name_H-M_alt    "P 1"
_space_group_IT_number       1

loop_
  _space_group_symop_operation_xyz
  'x, y, z'

loop_
  _atom_site_type_symbol
  _atom_site_label
  _atom_site_symmetry_multiplicity
  _atom_site_fract_x
  _atom_site_fract_y
  _atom_site_fract_z
  _atom_site_occupancy
  Cu  Cu1       1.0  0.57289  0.47839  0.85351  1.0000
  Cu  Cu2       1.0  0.09337  0.52035  0.64649  1.0000
  Cu  Cu3       1.0  0.42712  0.52161  0.14649  1.0000
  Cu  Cu4       1.0  0.90663  0.47965  0.35351  1.0000
  H   H1        1.0  0.39754  0.94025  0.07695  1.0000
  H   H2        1.0  0.45974  0.06125  0.42267  1.0000
  H   H3        1.0  0.60243  0.05977  0.92305  1.0000
  H   H4        1.0  0.54029  0.93875  0.57732  1.0000
  H   H5        1.0  0.01001  0.82603  0.21931  1.0000
  H   H6        1.0  0.18465  0.17526  0.28037  1.0000
  H   H7        1.0  0.98996  0.17396  0.78068  1.0000
  H   H8        1.0  0.81536  0.82473  0.71962  1.0000
  C   C1        1.0  0.14578  0.70831  0.85576  1.0000
  C   C2        1.0  0.43807  0.29142  0.64402  1.0000
  C   C3        1.0  0.85422  0.29171  0.14424  1.0000
  C   C4        1.0  0.56194  0.70857  0.35598  1.0000
  C   C5        1.0  0.05791  0.73190  0.96420  1.0000
  C   C6        1.0  0.32566  0.26776  0.53561  1.0000
  C   C7        1.0  0.94210  0.26812  0.03580  1.0000
  C   C8        1.0  0.67435  0.73224  0.46439  1.0000
  C   C9        1.0  0.19149  0.83756  0.06095  1.0000
  C   C10       1.0  0.35476  0.16310  0.43876  1.0000
  C   C11       1.0  0.80848  0.16246  0.93907  1.0000
  C   C12       1.0  0.64527  0.83690  0.56125  1.0000
  C   C13       1.0  0.99398  0.78347  0.13435  1.0000
  C   C14       1.0  0.21078  0.21721  0.36537  1.0000
  C   C15       1.0  0.00598  0.21653  0.86565  1.0000
  C   C16       1.0  0.78924  0.78277  0.63463  1.0000
  N   N1        1.0  0.75839  0.65344  0.08367  1.0000
  N   N2        1.0  0.10336  0.34615  0.41619  1.0000
  N   N3        1.0  0.24159  0.34656  0.91633  1.0000
  N   N4        1.0  0.89665  0.65383  0.58382  1.0000
  N   N5        1.0  0.79761  0.62288  0.98075  1.0000
  N   N6        1.0  0.17283  0.37608  0.51915  1.0000
  N   N7        1.0  0.20240  0.37713  0.01925  1.0000
  N   N8        1.0  0.82717  0.62391  0.48086  1.0000
  O   O1        1.0  0.38458  0.78586  0.82771  1.0000
  O   O2        1.0  0.60163  0.21499  0.67184  1.0000
  O   O3        1.0  0.61542  0.21417  0.17230  1.0000
  O   O4        1.0  0.39835  0.78499  0.32817  1.0000
  O   O5        1.0  0.94285  0.58705  0.78762  1.0000
  O   O6        1.0  0.35460  0.41141  0.71237  1.0000
  O   O7        1.0  0.05720  0.41295  0.21237  1.0000
  O   O8        1.0  0.64539  0.58860  0.28762  1.0000
