data_image0
_chemical_formula_structural       Y2H46C40N6O16
_chemical_formula_sum              "Y2 H46 C40 N6 O16"
_cell_length_a       10.1377
_cell_length_b       10.3435
_cell_length_c       12.7169
_cell_angle_alpha    108.691
_cell_angle_beta     95.529
_cell_angle_gamma    118.895

_space_group_name_H-M_alt    "P 1"
_space_group_IT_number       1

loop_
  _space_group_symop_operation_xyz
  'x, y, z'

loop_
  _atom_site_type_symbol
  _atom_site_label
  _atom_site_symmetry_multiplicity
  _atom_site_fract_x
  _atom_site_fract_y
  _atom_site_fract_z
  _atom_site_occupancy
  Y   Y1        1.0  0.47299  0.02289  0.30378  1.0000
  Y   Y2        1.0  0.52701  0.97711  0.69622  1.0000
  H   H1        1.0  0.31604  0.26256  0.39136  1.0000
  H   H2        1.0  0.68396  0.73744  0.60864  1.0000
  H   H3        1.0  0.57730  0.35872  0.69776  1.0000
  H   H4        1.0  0.42270  0.64128  0.30224  1.0000
  H   H5        1.0  0.07831  0.14638  0.21512  1.0000
  H   H6        1.0  0.92169  0.85362  0.78488  1.0000
  H   H7        1.0  0.13887  0.87012  0.91246  1.0000
  H   H8        1.0  0.86113  0.12988  0.08754  1.0000
  H   H9        1.0  0.29022  0.44502  0.09771  1.0000
  H   H10       1.0  0.70978  0.55498  0.90229  1.0000
  H   H11       1.0  0.69406  0.78464  0.03174  1.0000
  H   H12       1.0  0.30594  0.21536  0.96826  1.0000
  H   H13       1.0  0.06468  0.93772  0.31409  1.0000
  H   H14       1.0  0.93532  0.06228  0.68591  1.0000
  H   H15       1.0  0.15686  0.01750  0.67326  1.0000
  H   H16       1.0  0.84314  0.98250  0.32674  1.0000
  H   H17       1.0  0.62885  0.20814  0.10039  1.0000
  H   H18       1.0  0.37116  0.79185  0.89961  1.0000
  H   H19       1.0  0.02987  0.62281  0.34559  1.0000
  H   H20       1.0  0.97013  0.37719  0.65441  1.0000
  H   H21       1.0  0.89275  0.48167  0.39206  1.0000
  H   H22       1.0  0.10726  0.51834  0.60794  1.0000
  H   H23       1.0  0.16388  0.52086  0.43065  1.0000
  H   H24       1.0  0.83612  0.47914  0.56935  1.0000
  H   H25       1.0  0.13280  0.43694  0.27961  1.0000
  H   H26       1.0  0.86720  0.56306  0.72038  1.0000
  H   H27       1.0  0.00605  0.31350  0.34272  1.0000
  H   H28       1.0  0.99395  0.68650  0.65728  1.0000
  H   H29       1.0  0.80840  0.34984  0.03692  1.0000
  H   H30       1.0  0.19160  0.65015  0.96308  1.0000
  H   H31       1.0  0.00625  0.43655  0.11484  1.0000
  H   H32       1.0  0.99375  0.56345  0.88516  1.0000
  H   H33       1.0  0.97173  0.63649  0.06227  1.0000
  H   H34       1.0  0.02827  0.36351  0.93773  1.0000
  H   H35       1.0  0.04763  0.70770  0.21395  1.0000
  H   H36       1.0  0.95237  0.29230  0.78605  1.0000
  H   H37       1.0  0.84370  0.62654  0.14966  1.0000
  H   H38       1.0  0.15630  0.37346  0.85033  1.0000
  H   H39       1.0  0.48397  0.57398  0.73702  1.0000
  H   H40       1.0  0.51603  0.42602  0.26298  1.0000
  H   H41       1.0  0.35212  0.37781  0.73131  1.0000
  H   H42       1.0  0.64788  0.62220  0.26869  1.0000
  H   H43       1.0  0.18405  0.30855  0.55252  1.0000
  H   H44       1.0  0.81595  0.69145  0.44748  1.0000
  H   H45       1.0  0.32065  0.50397  0.55833  1.0000
  H   H46       1.0  0.67935  0.49603  0.44166  1.0000
  C   C1        1.0  0.12030  0.00787  0.07136  1.0000
  C   C2        1.0  0.87970  0.99213  0.92864  1.0000
  C   C3        1.0  0.04344  0.08286  0.12073  1.0000
  C   C4        1.0  0.95656  0.91714  0.87927  1.0000
  C   C5        1.0  0.07618  0.92488  0.95000  1.0000
  C   C6        1.0  0.92382  0.07512  0.05000  1.0000
  C   C7        1.0  0.24850  0.01713  0.14843  1.0000
  C   C8        1.0  0.75150  0.98287  0.85157  1.0000
  C   C9        1.0  0.49129  0.62843  0.07227  1.0000
  C   C10       1.0  0.50871  0.37157  0.92773  1.0000
  C   C11       1.0  0.38189  0.46806  0.05467  1.0000
  C   C12       1.0  0.61811  0.53194  0.94533  1.0000
  C   C13       1.0  0.60942  0.65951  0.01692  1.0000
  C   C14       1.0  0.39058  0.34049  0.98308  1.0000
  C   C15       1.0  0.48517  0.76667  0.15164  1.0000
  C   C16       1.0  0.51483  0.23333  0.84836  1.0000
  C   C17       1.0  0.12218  0.97258  0.49225  1.0000
  C   C18       1.0  0.87782  0.02742  0.50775  1.0000
  C   C19       1.0  0.03426  0.96326  0.39473  1.0000
  C   C20       1.0  0.96574  0.03674  0.60527  1.0000
  C   C21       1.0  0.08719  0.00988  0.59790  1.0000
  C   C22       1.0  0.91281  0.99012  0.40210  1.0000
  C   C23       1.0  0.25681  0.94888  0.48561  1.0000
  C   C24       1.0  0.74319  0.05112  0.51438  1.0000
  C   C25       1.0  0.70342  0.27590  0.19214  1.0000
  C   C26       1.0  0.29658  0.72410  0.80786  1.0000
  C   C27       1.0  0.96159  0.49448  0.33054  1.0000
  C   C28       1.0  0.03841  0.50552  0.66946  1.0000
  C   C29       1.0  0.07171  0.43679  0.34634  1.0000
  C   C30       1.0  0.92830  0.56321  0.65366  1.0000
  C   C31       1.0  0.90195  0.44394  0.11917  1.0000
  C   C32       1.0  0.09805  0.55606  0.88083  1.0000
  C   C33       1.0  0.94337  0.61378  0.13810  1.0000
  C   C34       1.0  0.05663  0.38622  0.86190  1.0000
  C   C35       1.0  0.48448  0.31404  0.52967  1.0000
  C   C36       1.0  0.51552  0.68596  0.47033  1.0000
  C   C37       1.0  0.41894  0.44255  0.68226  1.0000
  C   C38       1.0  0.58106  0.55745  0.31775  1.0000
  C   C39       1.0  0.30894  0.39569  0.56450  1.0000
  C   C40       1.0  0.69106  0.60431  0.43550  1.0000
  N   N1        1.0  0.84873  0.40090  0.21298  1.0000
  N   N2        1.0  0.15127  0.59910  0.78702  1.0000
  N   N3        1.0  0.36635  0.32172  0.47961  1.0000
  N   N4        1.0  0.63365  0.67828  0.52039  1.0000
  N   N5        1.0  0.52723  0.39357  0.64769  1.0000
  N   N6        1.0  0.47277  0.60643  0.35231  1.0000
  O   O1        1.0  0.30582  0.11773  0.25611  1.0000
  O   O2        1.0  0.69418  0.88227  0.74389  1.0000
  O   O3        1.0  0.29870  0.92549  0.10871  1.0000
  O   O4        1.0  0.70130  0.07451  0.89129  1.0000
  O   O5        1.0  0.38517  0.73789  0.21010  1.0000
  O   O6        1.0  0.61483  0.26211  0.78990  1.0000
  O   O7        1.0  0.57926  0.91007  0.16174  1.0000
  O   O8        1.0  0.42074  0.08993  0.83826  1.0000
  O   O9        1.0  0.28260  0.91106  0.38753  1.0000
  O   O10       1.0  0.71740  0.08893  0.61247  1.0000
  O   O11       1.0  0.33730  0.96991  0.57918  1.0000
  O   O12       1.0  0.66270  0.03009  0.42082  1.0000
  O   O13       1.0  0.65360  0.23711  0.27093  1.0000
  O   O14       1.0  0.34640  0.76289  0.72907  1.0000
  O   O15       1.0  0.54951  0.24712  0.47657  1.0000
  O   O16       1.0  0.45049  0.75287  0.52343  1.0000
