data_image0
_chemical_formula_structural       Y2H48C42N8O16
_chemical_formula_sum              "Y2 H48 C42 N8 O16"
_cell_length_a       9.91074
_cell_length_b       10.5398
_cell_length_c       12.5767
_cell_angle_alpha    70.0974
_cell_angle_beta     73.7932
_cell_angle_gamma    62.4448

_space_group_name_H-M_alt    "P 1"
_space_group_IT_number       1

loop_
  _space_group_symop_operation_xyz
  'x, y, z'

loop_
  _atom_site_type_symbol
  _atom_site_label
  _atom_site_symmetry_multiplicity
  _atom_site_fract_x
  _atom_site_fract_y
  _atom_site_fract_z
  _atom_site_occupancy
  Y   Y1        1.0  0.95039  0.22306  0.31137  1.0000
  Y   Y2        1.0  0.04961  0.77694  0.68863  1.0000
  H   H1        1.0  0.77543  0.35582  0.93706  1.0000
  H   H2        1.0  0.22458  0.64418  0.06294  1.0000
  H   H3        1.0  0.41585  0.52599  0.19996  1.0000
  H   H4        1.0  0.58415  0.47402  0.80005  1.0000
  H   H5        1.0  0.62125  0.12078  0.31823  1.0000
  H   H6        1.0  0.37875  0.87922  0.68177  1.0000
  H   H7        1.0  0.64853  0.85612  0.66380  1.0000
  H   H8        1.0  0.35147  0.14388  0.33620  1.0000
  H   H9        1.0  0.32705  0.86776  0.07315  1.0000
  H   H10       1.0  0.67294  0.13224  0.92685  1.0000
  H   H11       1.0  0.44199  0.21401  0.07356  1.0000
  H   H12       1.0  0.55800  0.78600  0.92644  1.0000
  H   H13       1.0  0.41284  0.32397  0.74963  1.0000
  H   H14       1.0  0.58716  0.67603  0.25037  1.0000
  H   H15       1.0  0.48199  0.14632  0.72371  1.0000
  H   H16       1.0  0.51801  0.85367  0.27629  1.0000
  H   H17       1.0  0.36150  0.26670  0.55695  1.0000
  H   H18       1.0  0.63850  0.73330  0.44305  1.0000
  H   H19       1.0  0.31945  0.44346  0.57383  1.0000
  H   H20       1.0  0.68055  0.55654  0.42617  1.0000
  H   H21       1.0  0.79241  0.88804  0.09352  1.0000
  H   H22       1.0  0.20758  0.11196  0.90648  1.0000
  H   H23       1.0  0.99358  0.82028  0.05005  1.0000
  H   H24       1.0  0.00642  0.17972  0.94995  1.0000
  H   H25       1.0  0.93174  0.96177  0.19129  1.0000
  H   H26       1.0  0.06826  0.03824  0.80871  1.0000
  H   H27       1.0  0.81260  0.87356  0.28461  1.0000
  H   H28       1.0  0.18740  0.12644  0.71539  1.0000
  H   H29       1.0  0.16313  0.72960  0.22187  1.0000
  H   H30       1.0  0.83687  0.27040  0.77813  1.0000
  H   H31       1.0  0.05976  0.76072  0.35653  1.0000
  H   H32       1.0  0.94024  0.23928  0.64347  1.0000
  H   H33       1.0  0.10953  0.38350  0.42569  1.0000
  H   H34       1.0  0.89047  0.61650  0.57431  1.0000
  H   H35       1.0  0.13355  0.51874  0.46618  1.0000
  H   H36       1.0  0.86645  0.48126  0.53382  1.0000
  H   H37       1.0  0.26267  0.43899  0.35276  1.0000
  H   H38       1.0  0.73733  0.56101  0.64724  1.0000
  H   H39       1.0  0.90065  0.50257  0.10545  1.0000
  H   H40       1.0  0.09934  0.49743  0.89455  1.0000
  H   H41       1.0  0.90016  0.66404  0.99859  1.0000
  H   H42       1.0  0.09984  0.33596  0.00141  1.0000
  H   H43       1.0  0.73015  0.66968  0.09658  1.0000
  H   H44       1.0  0.26985  0.33032  0.90341  1.0000
  H   H45       1.0  0.54728  0.37440  0.40199  1.0000
  H   H46       1.0  0.45271  0.62560  0.59801  1.0000
  H   H47       1.0  0.72059  0.16946  0.69801  1.0000
  H   H48       1.0  0.27941  0.83053  0.30200  1.0000
  C   C1        1.0  0.60759  0.43152  0.07739  1.0000
  C   C2        1.0  0.39241  0.56848  0.92261  1.0000
  C   C3        1.0  0.65430  0.41865  0.96402  1.0000
  C   C4        1.0  0.34570  0.58135  0.03598  1.0000
  C   C5        1.0  0.45187  0.51422  0.11238  1.0000
  C   C6        1.0  0.54813  0.48578  0.88763  1.0000
  C   C7        1.0  0.72259  0.35907  0.15959  1.0000
  C   C8        1.0  0.27741  0.64093  0.84042  1.0000
  C   C9        1.0  0.64950  0.98630  0.48955  1.0000
  C   C10       1.0  0.35050  0.01370  0.51045  1.0000
  C   C11       1.0  0.56700  0.06762  0.39690  1.0000
  C   C12       1.0  0.43301  0.93238  0.60310  1.0000
  C   C13       1.0  0.58216  0.91863  0.59285  1.0000
  C   C14       1.0  0.41785  0.08137  0.40714  1.0000
  C   C15       1.0  0.80856  0.97442  0.47981  1.0000
  C   C16       1.0  0.19144  0.02558  0.52018  1.0000
  C   C17       1.0  0.37132  0.04499  0.08288  1.0000
  C   C18       1.0  0.62867  0.95501  0.91712  1.0000
  C   C19       1.0  0.40386  0.92470  0.04103  1.0000
  C   C20       1.0  0.59614  0.07530  0.95898  1.0000
  C   C21       1.0  0.46866  0.11998  0.04125  1.0000
  C   C22       1.0  0.53134  0.88002  0.95875  1.0000
  C   C23       1.0  0.22925  0.09848  0.16663  1.0000
  C   C24       1.0  0.77075  0.90152  0.83338  1.0000
  C   C25       1.0  0.66943  0.29039  0.53643  1.0000
  C   C26       1.0  0.33057  0.70961  0.46357  1.0000
  C   C27       1.0  0.47887  0.25824  0.68660  1.0000
  C   C28       1.0  0.52113  0.74176  0.31340  1.0000
  C   C29       1.0  0.40987  0.33238  0.57318  1.0000
  C   C30       1.0  0.59013  0.66762  0.42682  1.0000
  C   C31       1.0  0.96903  0.56310  0.25626  1.0000
  C   C32       1.0  0.03097  0.43690  0.74374  1.0000
  C   C33       1.0  0.90353  0.81349  0.12410  1.0000
  C   C34       1.0  0.09647  0.18651  0.87590  1.0000
  C   C35       1.0  0.91797  0.85724  0.22187  1.0000
  C   C36       1.0  0.08203  0.14276  0.77813  1.0000
  C   C37       1.0  0.05430  0.73705  0.27963  1.0000
  C   C38       1.0  0.94570  0.26295  0.72037  1.0000
  C   C39       1.0  0.14192  0.47737  0.39456  1.0000
  C   C40       1.0  0.85808  0.52263  0.60544  1.0000
  C   C41       1.0  0.85640  0.62243  0.08730  1.0000
  C   C42       1.0  0.14360  0.37757  0.91270  1.0000
  N   N1        1.0  0.54285  0.33800  0.48865  1.0000
  N   N2        1.0  0.45715  0.66200  0.51135  1.0000
  N   N3        1.0  0.63478  0.25351  0.65296  1.0000
  N   N4        1.0  0.36522  0.74649  0.34704  1.0000
  N   N5        1.0  0.90913  0.66383  0.16185  1.0000
  N   N6        1.0  0.09087  0.33617  0.83815  1.0000
  N   N7        1.0  0.04141  0.59537  0.31465  1.0000
  N   N8        1.0  0.95859  0.40463  0.68535  1.0000
  O   O1        1.0  0.86258  0.27790  0.12839  1.0000
  O   O2        1.0  0.13742  0.72209  0.87161  1.0000
  O   O3        1.0  0.67996  0.38088  0.26001  1.0000
  O   O4        1.0  0.32004  0.61911  0.74000  1.0000
  O   O5        1.0  0.86222  0.04463  0.38736  1.0000
  O   O6        1.0  0.13779  0.95537  0.61264  1.0000
  O   O7        1.0  0.87923  0.89511  0.56479  1.0000
  O   O8        1.0  0.12078  0.10488  0.43521  1.0000
  O   O9        1.0  0.18272  0.22679  0.18159  1.0000
  O   O10       1.0  0.81727  0.77321  0.81841  1.0000
  O   O11       1.0  0.15480  0.01731  0.21982  1.0000
  O   O12       1.0  0.84520  0.98270  0.78018  1.0000
  O   O13       1.0  0.80025  0.28335  0.48328  1.0000
  O   O14       1.0  0.19974  0.71665  0.51672  1.0000
  O   O15       1.0  0.95635  0.44048  0.29078  1.0000
  O   O16       1.0  0.04365  0.55952  0.70922  1.0000
