data_image0
_chemical_formula_structural       Y2H26C32N2O14
_chemical_formula_sum              "Y2 H26 C32 N2 O14"
_cell_length_a       9.29761
_cell_length_b       10.5606
_cell_length_c       11.0176
_cell_angle_alpha    99.0257
_cell_angle_beta     113.295
_cell_angle_gamma    112.864

_space_group_name_H-M_alt    "P 1"
_space_group_IT_number       1

loop_
  _space_group_symop_operation_xyz
  'x, y, z'

loop_
  _atom_site_type_symbol
  _atom_site_label
  _atom_site_symmetry_multiplicity
  _atom_site_fract_x
  _atom_site_fract_y
  _atom_site_fract_z
  _atom_site_occupancy
  Y   Y1        1.0  0.69537  0.00957  0.97311  1.0000
  Y   Y2        1.0  0.30463  0.99043  0.02689  1.0000
  H   H1        1.0  0.20336  0.64890  0.98581  1.0000
  H   H2        1.0  0.79664  0.35109  0.01419  1.0000
  H   H3        1.0  0.02671  0.39556  0.97748  1.0000
  H   H4        1.0  0.97329  0.60444  0.02252  1.0000
  H   H5        1.0  0.51778  0.39083  0.21191  1.0000
  H   H6        1.0  0.48221  0.60916  0.78808  1.0000
  H   H7        1.0  0.69606  0.64399  0.21860  1.0000
  H   H8        1.0  0.30394  0.35601  0.78140  1.0000
  H   H9        1.0  0.09916  0.38554  0.35723  1.0000
  H   H10       1.0  0.90085  0.61446  0.64277  1.0000
  H   H11       1.0  0.67554  0.37621  0.43024  1.0000
  H   H12       1.0  0.32447  0.62380  0.56976  1.0000
  H   H13       1.0  0.67204  0.99545  0.39907  1.0000
  H   H14       1.0  0.32796  0.00455  0.60093  1.0000
  H   H15       1.0  0.89645  0.14052  0.47623  1.0000
  H   H16       1.0  0.10355  0.85948  0.52377  1.0000
  H   H17       1.0  0.64282  0.16545  0.54592  1.0000
  H   H18       1.0  0.35718  0.83455  0.45409  1.0000
  H   H19       1.0  0.87672  0.26774  0.66839  1.0000
  H   H20       1.0  0.12328  0.73226  0.33161  1.0000
  H   H21       1.0  0.01338  0.02973  0.63865  1.0000
  H   H22       1.0  0.98662  0.97027  0.36135  1.0000
  H   H23       1.0  0.81128  0.86469  0.50624  1.0000
  H   H24       1.0  0.18872  0.13531  0.49376  1.0000
  H   H25       1.0  0.80814  0.91231  0.74370  1.0000
  H   H26       1.0  0.19186  0.08769  0.25630  1.0000
  C   C1        1.0  0.46085  0.66328  0.10569  1.0000
  C   C2        1.0  0.53915  0.33672  0.89431  1.0000
  C   C3        1.0  0.27197  0.59331  0.03757  1.0000
  C   C4        1.0  0.72803  0.40669  0.96242  1.0000
  C   C5        1.0  0.17345  0.45259  0.03269  1.0000
  C   C6        1.0  0.82654  0.54740  0.96731  1.0000
  C   C7        1.0  0.26177  0.37976  0.09630  1.0000
  C   C8        1.0  0.73822  0.62024  0.90370  1.0000
  C   C9        1.0  0.45073  0.44971  0.16524  1.0000
  C   C10       1.0  0.54927  0.55029  0.83476  1.0000
  C   C11       1.0  0.54964  0.59058  0.16954  1.0000
  C   C12       1.0  0.45035  0.40941  0.83046  1.0000
  C   C13       1.0  0.56178  0.80723  0.09619  1.0000
  C   C14       1.0  0.43821  0.19277  0.90381  1.0000
  C   C15       1.0  0.15144  0.22713  0.08717  1.0000
  C   C16       1.0  0.84856  0.77287  0.91283  1.0000
  C   C17       1.0  0.87564  0.36828  0.38273  1.0000
  C   C18       1.0  0.12436  0.63172  0.61727  1.0000
  C   C19       1.0  0.05822  0.43682  0.42127  1.0000
  C   C20       1.0  0.94178  0.56318  0.57873  1.0000
  C   C21       1.0  0.81798  0.43204  0.46182  1.0000
  C   C22       1.0  0.18202  0.56796  0.53818  1.0000
  C   C23       1.0  0.74244  0.22736  0.25651  1.0000
  C   C24       1.0  0.25755  0.77264  0.74348  1.0000
  C   C25       1.0  0.74317  0.06866  0.69581  1.0000
  C   C26       1.0  0.25683  0.93134  0.30418  1.0000
  C   C27       1.0  0.79811  0.06858  0.50019  1.0000
  C   C28       1.0  0.20189  0.93142  0.49981  1.0000
  C   C29       1.0  0.76267  0.15492  0.60041  1.0000
  C   C30       1.0  0.23733  0.84508  0.39959  1.0000
  C   C31       1.0  0.86525  0.97654  0.57850  1.0000
  C   C32       1.0  0.13476  0.02346  0.42150  1.0000
  N   N1        1.0  0.79669  0.97029  0.67687  1.0000
  N   N2        1.0  0.20330  0.02971  0.32313  1.0000
  O   O1        1.0  0.47920  0.87921  0.05436  1.0000
  O   O2        1.0  0.52080  0.12079  0.94564  1.0000
  O   O3        1.0  0.72053  0.85304  0.11701  1.0000
  O   O4        1.0  0.27948  0.14696  0.88299  1.0000
  O   O5        1.0  0.98735  0.18198  0.04967  1.0000
  O   O6        1.0  0.01265  0.81803  0.95033  1.0000
  O   O7        1.0  0.22843  0.15061  0.12113  1.0000
  O   O8        1.0  0.77156  0.84939  0.87887  1.0000
  O   O9        1.0  0.80511  0.16894  0.19627  1.0000
  O   O10       1.0  0.19489  0.83106  0.80373  1.0000
  O   O11       1.0  0.57673  0.17749  0.21894  1.0000
  O   O12       1.0  0.42327  0.82252  0.78106  1.0000
  O   O13       1.0  0.68879  0.08816  0.78134  1.0000
  O   O14       1.0  0.31121  0.91184  0.21866  1.0000
