data_image0
_chemical_formula_structural       Nd4H48C60N8O28
_chemical_formula_sum              "Nd4 H48 C60 N8 O28"
_cell_length_a       10.751
_cell_length_b       11.7976
_cell_length_c       16.4738
_cell_angle_alpha    109.259
_cell_angle_beta     89.9949
_cell_angle_gamma    117.089

_space_group_name_H-M_alt    "P 1"
_space_group_IT_number       1

loop_
  _space_group_symop_operation_xyz
  'x, y, z'

loop_
  _atom_site_type_symbol
  _atom_site_label
  _atom_site_symmetry_multiplicity
  _atom_site_fract_x
  _atom_site_fract_y
  _atom_site_fract_z
  _atom_site_occupancy
  Nd  Nd1       1.0  0.97444  0.99600  0.12774  1.0000
  Nd  Nd2       1.0  0.97848  0.00395  0.37221  1.0000
  Nd  Nd3       1.0  0.02556  0.00400  0.87226  1.0000
  Nd  Nd4       1.0  0.02152  0.99605  0.62779  1.0000
  H   H1        1.0  0.69830  0.54363  0.01399  1.0000
  H   H2        1.0  0.15504  0.45640  0.48599  1.0000
  H   H3        1.0  0.30170  0.45637  0.98601  1.0000
  H   H4        1.0  0.84496  0.54360  0.51401  1.0000
  H   H5        1.0  0.47530  0.31741  0.95402  1.0000
  H   H6        1.0  0.15848  0.68281  0.54599  1.0000
  H   H7        1.0  0.52470  0.68259  0.04598  1.0000
  H   H8        1.0  0.84152  0.31719  0.45401  1.0000
  H   H9        1.0  0.46357  0.35479  0.70419  1.0000
  H   H10       1.0  0.10859  0.64518  0.79572  1.0000
  H   H11       1.0  0.53643  0.64521  0.29581  1.0000
  H   H12       1.0  0.89141  0.35482  0.20428  1.0000
  H   H13       1.0  0.68971  0.58103  0.76350  1.0000
  H   H14       1.0  0.10832  0.41879  0.73639  1.0000
  H   H15       1.0  0.31029  0.41897  0.23650  1.0000
  H   H16       1.0  0.89168  0.58121  0.26361  1.0000
  H   H17       1.0  0.35415  0.02758  0.89777  1.0000
  H   H18       1.0  0.32678  0.97266  0.60239  1.0000
  H   H19       1.0  0.64585  0.97242  0.10223  1.0000
  H   H20       1.0  0.67322  0.02734  0.39761  1.0000
  H   H21       1.0  0.58761  0.04075  0.86724  1.0000
  H   H22       1.0  0.54681  0.95880  0.63258  1.0000
  H   H23       1.0  0.41239  0.95925  0.13277  1.0000
  H   H24       1.0  0.45319  0.04120  0.36742  1.0000
  H   H25       1.0  0.17235  0.65889  0.05682  1.0000
  H   H26       1.0  0.51317  0.34074  0.44317  1.0000
  H   H27       1.0  0.82765  0.34110  0.94318  1.0000
  H   H28       1.0  0.48683  0.65926  0.55683  1.0000
  H   H29       1.0  0.05592  0.50966  0.07836  1.0000
  H   H30       1.0  0.54603  0.48999  0.42161  1.0000
  H   H31       1.0  0.94408  0.49034  0.92164  1.0000
  H   H32       1.0  0.45397  0.51001  0.57839  1.0000
  H   H33       1.0  0.15919  0.61412  0.22989  1.0000
  H   H34       1.0  0.54486  0.38548  0.27009  1.0000
  H   H35       1.0  0.84081  0.38588  0.77011  1.0000
  H   H36       1.0  0.45514  0.61452  0.72991  1.0000
  H   H37       1.0  0.30881  0.72252  0.19467  1.0000
  H   H38       1.0  0.58598  0.27695  0.30527  1.0000
  H   H39       1.0  0.69119  0.27748  0.80533  1.0000
  H   H40       1.0  0.41403  0.72305  0.69473  1.0000
  H   H41       1.0  0.94681  0.67234  0.06721  1.0000
  H   H42       1.0  0.27430  0.32749  0.43281  1.0000
  H   H43       1.0  0.05319  0.32766  0.93279  1.0000
  H   H44       1.0  0.72570  0.67251  0.56719  1.0000
  H   H45       1.0  0.20999  0.87467  0.29851  1.0000
  H   H46       1.0  0.33509  0.12506  0.20147  1.0000
  H   H47       1.0  0.79001  0.12533  0.70149  1.0000
  H   H48       1.0  0.66491  0.87494  0.79853  1.0000
  C   C1        1.0  0.70688  0.57617  0.89239  1.0000
  C   C2        1.0  0.13075  0.42381  0.60757  1.0000
  C   C3        1.0  0.29311  0.42383  0.10762  1.0000
  C   C4        1.0  0.86925  0.57619  0.39243  1.0000
  C   C5        1.0  0.64869  0.50043  0.94558  1.0000
  C   C6        1.0  0.14857  0.49965  0.55441  1.0000
  C   C7        1.0  0.35131  0.49957  0.05442  1.0000
  C   C8        1.0  0.85144  0.50035  0.44559  1.0000
  C   C9        1.0  0.52423  0.37505  0.91253  1.0000
  C   C10       1.0  0.14959  0.62513  0.58748  1.0000
  C   C11       1.0  0.47577  0.62495  0.08748  1.0000
  C   C12       1.0  0.85041  0.37488  0.41252  1.0000
  C   C13       1.0  0.45623  0.32407  0.82592  1.0000
  C   C14       1.0  0.13241  0.67605  0.67407  1.0000
  C   C15       1.0  0.54377  0.67593  0.17408  1.0000
  C   C16       1.0  0.86759  0.32395  0.32593  1.0000
  C   C17       1.0  0.51764  0.39711  0.77157  1.0000
  C   C18       1.0  0.12056  0.60291  0.72839  1.0000
  C   C19       1.0  0.48236  0.60289  0.22843  1.0000
  C   C20       1.0  0.87945  0.39709  0.27161  1.0000
  C   C21       1.0  0.64210  0.52200  0.80446  1.0000
  C   C22       1.0  0.12001  0.47794  0.69548  1.0000
  C   C23       1.0  0.35790  0.47800  0.19554  1.0000
  C   C24       1.0  0.87999  0.52206  0.30452  1.0000
  C   C25       1.0  0.83019  0.71903  0.92971  1.0000
  C   C26       1.0  0.11099  0.28085  0.57022  1.0000
  C   C27       1.0  0.16981  0.28097  0.07030  1.0000
  C   C28       1.0  0.88901  0.71915  0.42978  1.0000
  C   C29       1.0  0.31385  0.19707  0.79264  1.0000
  C   C30       1.0  0.11707  0.80310  0.70739  1.0000
  C   C31       1.0  0.68615  0.80293  0.20736  1.0000
  C   C32       1.0  0.88293  0.19690  0.29261  1.0000
  C   C33       1.0  0.37001  0.99308  0.01727  1.0000
  C   C34       1.0  0.37709  0.00722  0.48288  1.0000
  C   C35       1.0  0.62999  0.00693  0.98273  1.0000
  C   C36       1.0  0.62291  0.99278  0.51711  1.0000
  C   C37       1.0  0.41826  0.01516  0.94190  1.0000
  C   C38       1.0  0.40320  0.98496  0.55818  1.0000
  C   C39       1.0  0.58174  0.98484  0.05810  1.0000
  C   C40       1.0  0.59679  0.01504  0.44182  1.0000
  C   C41       1.0  0.54787  0.02231  0.92507  1.0000
  C   C42       1.0  0.52550  0.97745  0.57484  1.0000
  C   C43       1.0  0.45213  0.97769  0.07493  1.0000
  C   C44       1.0  0.47450  0.02255  0.42516  1.0000
  C   C45       1.0  0.23303  0.98883  0.03765  1.0000
  C   C46       1.0  0.24432  0.01142  0.46253  1.0000
  C   C47       1.0  0.76697  0.01117  0.96235  1.0000
  C   C48       1.0  0.75568  0.98858  0.53747  1.0000
  C   C49       1.0  0.05110  0.78349  0.19265  1.0000
  C   C50       1.0  0.26745  0.21638  0.30734  1.0000
  C   C51       1.0  0.94890  0.21651  0.80735  1.0000
  C   C52       1.0  0.73255  0.78362  0.69266  1.0000
  C   C53       1.0  0.10631  0.62186  0.10322  1.0000
  C   C54       1.0  0.48422  0.37781  0.39677  1.0000
  C   C55       1.0  0.89369  0.37814  0.89678  1.0000
  C   C56       1.0  0.51578  0.62220  0.60323  1.0000
  C   C57       1.0  0.19544  0.68682  0.19590  1.0000
  C   C58       1.0  0.50839  0.31279  0.30409  1.0000
  C   C59       1.0  0.80456  0.31318  0.80410  1.0000
  C   C60       1.0  0.49161  0.68721  0.69591  1.0000
  N   N1        1.0  0.00095  0.66983  0.11748  1.0000
  N   N2        1.0  0.33095  0.32998  0.38253  1.0000
  N   N3        1.0  0.99905  0.33017  0.88252  1.0000
  N   N4        1.0  0.66905  0.67002  0.61747  1.0000
  N   N5        1.0  0.16633  0.79981  0.23735  1.0000
  N   N6        1.0  0.36632  0.19990  0.26264  1.0000
  N   N7        1.0  0.83367  0.20019  0.76265  1.0000
  N   N8        1.0  0.63369  0.80010  0.73736  1.0000
  O   O1        1.0  0.86303  0.78644  0.87996  1.0000
  O   O2        1.0  0.07618  0.21337  0.61993  1.0000
  O   O3        1.0  0.13697  0.21355  0.12004  1.0000
  O   O4        1.0  0.92382  0.78663  0.38007  1.0000
  O   O5        1.0  0.89086  0.76504  0.00920  1.0000
  O   O6        1.0  0.12571  0.23482  0.49073  1.0000
  O   O7        1.0  0.10914  0.23496  0.99080  1.0000
  O   O8        1.0  0.87430  0.76518  0.50927  1.0000
  O   O9        1.0  0.25789  0.14037  0.84657  1.0000
  O   O10       1.0  0.11774  0.85982  0.65350  1.0000
  O   O11       1.0  0.74211  0.85963  0.15343  1.0000
  O   O12       1.0  0.88226  0.14018  0.34650  1.0000
  O   O13       1.0  0.25787  0.15696  0.71382  1.0000
  O   O14       1.0  0.10124  0.84324  0.78623  1.0000
  O   O15       1.0  0.74213  0.84304  0.28618  1.0000
  O   O16       1.0  0.89876  0.15676  0.21377  1.0000
  O   O17       1.0  0.15482  0.99584  0.98389  1.0000
  O   O18       1.0  0.15909  0.00427  0.51629  1.0000
  O   O19       1.0  0.84518  0.00416  0.01611  1.0000
  O   O20       1.0  0.84090  0.99573  0.48371  1.0000
  O   O21       1.0  0.19931  0.98078  0.11079  1.0000
  O   O22       1.0  0.21858  0.01934  0.38935  1.0000
  O   O23       1.0  0.80069  0.01922  0.88921  1.0000
  O   O24       1.0  0.78142  0.98066  0.61065  1.0000
  O   O25       1.0  0.99498  0.86078  0.21609  1.0000
  O   O26       1.0  0.13407  0.13923  0.28390  1.0000
  O   O27       1.0  0.00502  0.13922  0.78391  1.0000
  O   O28       1.0  0.86593  0.86077  0.71610  1.0000
