data_image0
_chemical_formula_structural       Pr4H48C60N8O28
_chemical_formula_sum              "Pr4 H48 C60 N8 O28"
_cell_length_a       10.7473
_cell_length_b       11.8133
_cell_length_c       16.513
_cell_angle_alpha    109.049
_cell_angle_beta     89.999
_cell_angle_gamma    117.058

_space_group_name_H-M_alt    "P 1"
_space_group_IT_number       1

loop_
  _space_group_symop_operation_xyz
  'x, y, z'

loop_
  _atom_site_type_symbol
  _atom_site_label
  _atom_site_symmetry_multiplicity
  _atom_site_fract_x
  _atom_site_fract_y
  _atom_site_fract_z
  _atom_site_occupancy
  Pr  Pr1       1.0  0.97469  0.99568  0.12680  1.0000
  Pr  Pr2       1.0  0.97900  0.00419  0.37310  1.0000
  Pr  Pr3       1.0  0.02531  0.00432  0.87320  1.0000
  Pr  Pr4       1.0  0.02101  0.99581  0.62690  1.0000
  H   H1        1.0  0.69435  0.53957  0.01333  1.0000
  H   H2        1.0  0.15490  0.46042  0.48673  1.0000
  H   H3        1.0  0.30565  0.46043  0.98667  1.0000
  H   H4        1.0  0.84511  0.53958  0.51327  1.0000
  H   H5        1.0  0.47261  0.31374  0.95191  1.0000
  H   H6        1.0  0.15901  0.68624  0.54806  1.0000
  H   H7        1.0  0.52739  0.68627  0.04809  1.0000
  H   H8        1.0  0.84099  0.31376  0.45194  1.0000
  H   H9        1.0  0.46681  0.35540  0.70375  1.0000
  H   H10       1.0  0.11123  0.64467  0.79625  1.0000
  H   H11       1.0  0.53319  0.64460  0.29625  1.0000
  H   H12       1.0  0.88877  0.35533  0.20375  1.0000
  H   H13       1.0  0.69168  0.58118  0.76449  1.0000
  H   H14       1.0  0.11032  0.41888  0.73556  1.0000
  H   H15       1.0  0.30832  0.41882  0.23551  1.0000
  H   H16       1.0  0.88968  0.58112  0.26444  1.0000
  H   H17       1.0  0.35297  0.02941  0.89989  1.0000
  H   H18       1.0  0.32359  0.97049  0.60012  1.0000
  H   H19       1.0  0.64703  0.97059  0.10011  1.0000
  H   H20       1.0  0.67641  0.02951  0.39988  1.0000
  H   H21       1.0  0.58635  0.04451  0.86820  1.0000
  H   H22       1.0  0.54183  0.95523  0.63169  1.0000
  H   H23       1.0  0.41365  0.95549  0.13180  1.0000
  H   H24       1.0  0.45817  0.04477  0.36831  1.0000
  H   H25       1.0  0.17017  0.65848  0.05819  1.0000
  H   H26       1.0  0.51152  0.34141  0.44178  1.0000
  H   H27       1.0  0.82983  0.34152  0.94181  1.0000
  H   H28       1.0  0.48849  0.65859  0.55822  1.0000
  H   H29       1.0  0.05467  0.50838  0.07901  1.0000
  H   H30       1.0  0.54612  0.49150  0.42096  1.0000
  H   H31       1.0  0.94533  0.49161  0.92099  1.0000
  H   H32       1.0  0.45388  0.50850  0.57904  1.0000
  H   H33       1.0  0.15611  0.61144  0.23036  1.0000
  H   H34       1.0  0.54457  0.38852  0.26965  1.0000
  H   H35       1.0  0.84389  0.38856  0.76964  1.0000
  H   H36       1.0  0.45543  0.61148  0.73035  1.0000
  H   H37       1.0  0.30649  0.71860  0.19494  1.0000
  H   H38       1.0  0.58777  0.28135  0.30504  1.0000
  H   H39       1.0  0.69351  0.28140  0.80506  1.0000
  H   H40       1.0  0.41223  0.71865  0.69496  1.0000
  H   H41       1.0  0.94364  0.66950  0.06905  1.0000
  H   H42       1.0  0.27397  0.33037  0.43087  1.0000
  H   H43       1.0  0.05635  0.33050  0.93095  1.0000
  H   H44       1.0  0.72603  0.66963  0.56913  1.0000
  H   H45       1.0  0.21149  0.87363  0.29741  1.0000
  H   H46       1.0  0.33784  0.12628  0.20254  1.0000
  H   H47       1.0  0.78851  0.12637  0.70259  1.0000
  H   H48       1.0  0.66216  0.87372  0.79746  1.0000
  C   C1        1.0  0.70596  0.57413  0.89258  1.0000
  C   C2        1.0  0.13170  0.42584  0.60747  1.0000
  C   C3        1.0  0.29404  0.42587  0.10742  1.0000
  C   C4        1.0  0.86830  0.57416  0.39253  1.0000
  C   C5        1.0  0.64631  0.49745  0.94500  1.0000
  C   C6        1.0  0.14894  0.50255  0.55505  1.0000
  C   C7        1.0  0.35369  0.50254  0.05500  1.0000
  C   C8        1.0  0.85106  0.49745  0.44495  1.0000
  C   C9        1.0  0.52254  0.37228  0.91113  1.0000
  C   C10       1.0  0.15037  0.62775  0.58888  1.0000
  C   C11       1.0  0.47746  0.62772  0.08887  1.0000
  C   C12       1.0  0.84963  0.37225  0.41112  1.0000
  C   C13       1.0  0.45666  0.32250  0.82454  1.0000
  C   C14       1.0  0.13405  0.67751  0.67543  1.0000
  C   C15       1.0  0.54334  0.67750  0.17546  1.0000
  C   C16       1.0  0.86595  0.32249  0.32457  1.0000
  C   C17       1.0  0.51937  0.39669  0.77106  1.0000
  C   C18       1.0  0.12247  0.60334  0.72893  1.0000
  C   C19       1.0  0.48063  0.60331  0.22894  1.0000
  C   C20       1.0  0.87753  0.39666  0.27107  1.0000
  C   C21       1.0  0.64313  0.52135  0.80477  1.0000
  C   C22       1.0  0.12157  0.47867  0.69526  1.0000
  C   C23       1.0  0.35687  0.47865  0.19523  1.0000
  C   C24       1.0  0.87843  0.52133  0.30474  1.0000
  C   C25       1.0  0.82871  0.71659  0.93047  1.0000
  C   C26       1.0  0.11193  0.28335  0.56956  1.0000
  C   C27       1.0  0.17129  0.28341  0.06953  1.0000
  C   C28       1.0  0.88807  0.71664  0.43044  1.0000
  C   C29       1.0  0.31472  0.19577  0.79026  1.0000
  C   C30       1.0  0.11871  0.80420  0.70966  1.0000
  C   C31       1.0  0.68528  0.80423  0.20974  1.0000
  C   C32       1.0  0.88129  0.19580  0.29034  1.0000
  C   C33       1.0  0.36991  0.99209  0.01804  1.0000
  C   C34       1.0  0.37790  0.00806  0.48206  1.0000
  C   C35       1.0  0.63009  0.00791  0.98196  1.0000
  C   C36       1.0  0.62210  0.99194  0.51794  1.0000
  C   C37       1.0  0.41746  0.01625  0.94321  1.0000
  C   C38       1.0  0.40123  0.98365  0.55679  1.0000
  C   C39       1.0  0.58254  0.98375  0.05679  1.0000
  C   C40       1.0  0.59877  0.01635  0.44321  1.0000
  C   C41       1.0  0.54715  0.02439  0.92562  1.0000
  C   C42       1.0  0.52272  0.97538  0.57429  1.0000
  C   C43       1.0  0.45285  0.97561  0.07438  1.0000
  C   C44       1.0  0.47728  0.02462  0.42571  1.0000
  C   C45       1.0  0.23315  0.98728  0.03968  1.0000
  C   C46       1.0  0.24589  0.01280  0.46044  1.0000
  C   C47       1.0  0.76685  0.01272  0.96033  1.0000
  C   C48       1.0  0.75411  0.98720  0.53956  1.0000
  C   C49       1.0  0.04984  0.78158  0.19344  1.0000
  C   C50       1.0  0.26814  0.21833  0.30645  1.0000
  C   C51       1.0  0.95016  0.21842  0.80656  1.0000
  C   C52       1.0  0.73186  0.78167  0.69355  1.0000
  C   C53       1.0  0.10433  0.62018  0.10425  1.0000
  C   C54       1.0  0.48397  0.37971  0.39572  1.0000
  C   C55       1.0  0.89567  0.37982  0.89575  1.0000
  C   C56       1.0  0.51603  0.62029  0.60428  1.0000
  C   C57       1.0  0.19330  0.68402  0.19629  1.0000
  C   C58       1.0  0.50915  0.31590  0.30368  1.0000
  C   C59       1.0  0.80670  0.31598  0.80371  1.0000
  C   C60       1.0  0.49086  0.68410  0.69632  1.0000
  N   N1        1.0  0.99852  0.66750  0.11909  1.0000
  N   N2        1.0  0.33085  0.33237  0.38084  1.0000
  N   N3        1.0  0.00148  0.33250  0.88091  1.0000
  N   N4        1.0  0.66916  0.66763  0.61916  1.0000
  N   N5        1.0  0.16532  0.79744  0.23746  1.0000
  N   N6        1.0  0.36778  0.20250  0.26248  1.0000
  N   N7        1.0  0.83468  0.20255  0.76254  1.0000
  N   N8        1.0  0.63222  0.79750  0.73752  1.0000
  O   O1        1.0  0.86213  0.78501  0.88136  1.0000
  O   O2        1.0  0.07682  0.21494  0.61868  1.0000
  O   O3        1.0  0.13787  0.21499  0.11864  1.0000
  O   O4        1.0  0.92318  0.78506  0.38132  1.0000
  O   O5        1.0  0.88821  0.76142  0.00983  1.0000
  O   O6        1.0  0.12667  0.23853  0.49022  1.0000
  O   O7        1.0  0.11179  0.23858  0.99017  1.0000
  O   O8        1.0  0.87333  0.76147  0.50977  1.0000
  O   O9        1.0  0.25749  0.13722  0.84311  1.0000
  O   O10       1.0  0.11999  0.86266  0.65677  1.0000
  O   O11       1.0  0.74251  0.86278  0.15689  1.0000
  O   O12       1.0  0.88002  0.13734  0.34323  1.0000
  O   O13       1.0  0.26019  0.15794  0.71174  1.0000
  O   O14       1.0  0.10201  0.84204  0.78817  1.0000
  O   O15       1.0  0.73981  0.84206  0.28826  1.0000
  O   O16       1.0  0.89799  0.15796  0.21183  1.0000
  O   O17       1.0  0.15326  0.99467  0.98712  1.0000
  O   O18       1.0  0.15861  0.00534  0.51299  1.0000
  O   O19       1.0  0.84674  0.00534  0.01288  1.0000
  O   O20       1.0  0.84139  0.99466  0.48701  1.0000
  O   O21       1.0  0.20124  0.97873  0.11282  1.0000
  O   O22       1.0  0.22249  0.02129  0.38728  1.0000
  O   O23       1.0  0.79875  0.02127  0.88719  1.0000
  O   O24       1.0  0.77751  0.97871  0.61272  1.0000
  O   O25       1.0  0.99452  0.85940  0.21675  1.0000
  O   O26       1.0  0.13500  0.14048  0.28310  1.0000
  O   O27       1.0  0.00548  0.14060  0.78325  1.0000
  O   O28       1.0  0.86500  0.85952  0.71690  1.0000
