data_image0
_chemical_formula_structural       La4H48C60N8O28
_chemical_formula_sum              "La4 H48 C60 N8 O28"
_cell_length_a       10.7826
_cell_length_b       11.8564
_cell_length_c       16.6392
_cell_angle_alpha    108.86
_cell_angle_beta     89.9945
_cell_angle_gamma    117.053

_space_group_name_H-M_alt    "P 1"
_space_group_IT_number       1

loop_
  _space_group_symop_operation_xyz
  'x, y, z'

loop_
  _atom_site_type_symbol
  _atom_site_label
  _atom_site_symmetry_multiplicity
  _atom_site_fract_x
  _atom_site_fract_y
  _atom_site_fract_z
  _atom_site_occupancy
  La  La1       1.0  0.97324  0.99651  0.12664  1.0000
  La  La2       1.0  0.97658  0.00332  0.37329  1.0000
  La  La3       1.0  0.02676  0.00349  0.87336  1.0000
  La  La4       1.0  0.02342  0.99668  0.62671  1.0000
  H   H1        1.0  0.69284  0.53848  0.01262  1.0000
  H   H2        1.0  0.15455  0.46174  0.48747  1.0000
  H   H3        1.0  0.30715  0.46152  0.98739  1.0000
  H   H4        1.0  0.84544  0.53826  0.51253  1.0000
  H   H5        1.0  0.47195  0.31346  0.95123  1.0000
  H   H6        1.0  0.15883  0.68683  0.54893  1.0000
  H   H7        1.0  0.52805  0.68654  0.04877  1.0000
  H   H8        1.0  0.84116  0.31317  0.45107  1.0000
  H   H9        1.0  0.46915  0.35715  0.70539  1.0000
  H   H10       1.0  0.11145  0.64269  0.79463  1.0000
  H   H11       1.0  0.53085  0.64285  0.29461  1.0000
  H   H12       1.0  0.88855  0.35731  0.20537  1.0000
  H   H13       1.0  0.69270  0.58245  0.76628  1.0000
  H   H14       1.0  0.10973  0.41745  0.73371  1.0000
  H   H15       1.0  0.30730  0.41755  0.23372  1.0000
  H   H16       1.0  0.89027  0.58255  0.26629  1.0000
  H   H17       1.0  0.35270  0.02991  0.90148  1.0000
  H   H18       1.0  0.32259  0.96982  0.59841  1.0000
  H   H19       1.0  0.64730  0.97009  0.09852  1.0000
  H   H20       1.0  0.67741  0.03018  0.40159  1.0000
  H   H21       1.0  0.58451  0.04364  0.86860  1.0000
  H   H22       1.0  0.54051  0.95588  0.63124  1.0000
  H   H23       1.0  0.41549  0.95637  0.13140  1.0000
  H   H24       1.0  0.45949  0.04412  0.36876  1.0000
  H   H25       1.0  0.16823  0.65869  0.05847  1.0000
  H   H26       1.0  0.50929  0.34138  0.44145  1.0000
  H   H27       1.0  0.83177  0.34131  0.94153  1.0000
  H   H28       1.0  0.49071  0.65862  0.55855  1.0000
  H   H29       1.0  0.05319  0.50934  0.07950  1.0000
  H   H30       1.0  0.54341  0.49069  0.42043  1.0000
  H   H31       1.0  0.94681  0.49066  0.92050  1.0000
  H   H32       1.0  0.45659  0.50931  0.57957  1.0000
  H   H33       1.0  0.15543  0.61139  0.22924  1.0000
  H   H34       1.0  0.54390  0.38877  0.27070  1.0000
  H   H35       1.0  0.84457  0.38861  0.77076  1.0000
  H   H36       1.0  0.45610  0.61123  0.72930  1.0000
  H   H37       1.0  0.30463  0.71844  0.19373  1.0000
  H   H38       1.0  0.58624  0.28188  0.30627  1.0000
  H   H39       1.0  0.69537  0.28156  0.80627  1.0000
  H   H40       1.0  0.41377  0.71812  0.69373  1.0000
  H   H41       1.0  0.94236  0.66989  0.06994  1.0000
  H   H42       1.0  0.27207  0.32986  0.42986  1.0000
  H   H43       1.0  0.05764  0.33011  0.93005  1.0000
  H   H44       1.0  0.72793  0.67014  0.57014  1.0000
  H   H45       1.0  0.20962  0.87189  0.29601  1.0000
  H   H46       1.0  0.33782  0.12809  0.20391  1.0000
  H   H47       1.0  0.79038  0.12811  0.70399  1.0000
  H   H48       1.0  0.66218  0.87191  0.79609  1.0000
  C   C1        1.0  0.70529  0.57410  0.89314  1.0000
  C   C2        1.0  0.13106  0.42595  0.60691  1.0000
  C   C3        1.0  0.29470  0.42590  0.10686  1.0000
  C   C4        1.0  0.86894  0.57405  0.39309  1.0000
  C   C5        1.0  0.64542  0.49698  0.94485  1.0000
  C   C6        1.0  0.14845  0.50314  0.55522  1.0000
  C   C7        1.0  0.35458  0.50303  0.05515  1.0000
  C   C8        1.0  0.85154  0.49686  0.44478  1.0000
  C   C9        1.0  0.52236  0.37230  0.91099  1.0000
  C   C10       1.0  0.15007  0.62781  0.58909  1.0000
  C   C11       1.0  0.47764  0.62770  0.08901  1.0000
  C   C12       1.0  0.84993  0.37219  0.41091  1.0000
  C   C13       1.0  0.45763  0.32340  0.82502  1.0000
  C   C14       1.0  0.13405  0.67661  0.67504  1.0000
  C   C15       1.0  0.54237  0.67660  0.17498  1.0000
  C   C16       1.0  0.86595  0.32339  0.32496  1.0000
  C   C17       1.0  0.52076  0.39795  0.77225  1.0000
  C   C18       1.0  0.12242  0.60197  0.72779  1.0000
  C   C19       1.0  0.47924  0.60205  0.22775  1.0000
  C   C20       1.0  0.87758  0.39803  0.27221  1.0000
  C   C21       1.0  0.64370  0.52222  0.80598  1.0000
  C   C22       1.0  0.12111  0.47772  0.69404  1.0000
  C   C23       1.0  0.35630  0.47778  0.19403  1.0000
  C   C24       1.0  0.87889  0.52228  0.30596  1.0000
  C   C25       1.0  0.82794  0.71543  0.93097  1.0000
  C   C26       1.0  0.11250  0.28465  0.56903  1.0000
  C   C27       1.0  0.17206  0.28457  0.06903  1.0000
  C   C28       1.0  0.88750  0.71535  0.43097  1.0000
  C   C29       1.0  0.31713  0.19647  0.79054  1.0000
  C   C30       1.0  0.12044  0.80350  0.70948  1.0000
  C   C31       1.0  0.68287  0.80353  0.20946  1.0000
  C   C32       1.0  0.87956  0.19650  0.29052  1.0000
  C   C33       1.0  0.37086  0.99277  0.01868  1.0000
  C   C34       1.0  0.37812  0.00725  0.48130  1.0000
  C   C35       1.0  0.62914  0.00723  0.98132  1.0000
  C   C36       1.0  0.62188  0.99275  0.51870  1.0000
  C   C37       1.0  0.41728  0.01652  0.94411  1.0000
  C   C38       1.0  0.40066  0.98332  0.55582  1.0000
  C   C39       1.0  0.58272  0.98348  0.05589  1.0000
  C   C40       1.0  0.59934  0.01668  0.44418  1.0000
  C   C41       1.0  0.54606  0.02395  0.92586  1.0000
  C   C42       1.0  0.52196  0.97585  0.57408  1.0000
  C   C43       1.0  0.45394  0.97605  0.07414  1.0000
  C   C44       1.0  0.47804  0.02415  0.42592  1.0000
  C   C45       1.0  0.23488  0.98812  0.04086  1.0000
  C   C46       1.0  0.24675  0.01183  0.45911  1.0000
  C   C47       1.0  0.76512  0.01188  0.95914  1.0000
  C   C48       1.0  0.75325  0.98817  0.54089  1.0000
  C   C49       1.0  0.04843  0.78083  0.19309  1.0000
  C   C50       1.0  0.26746  0.21896  0.30677  1.0000
  C   C51       1.0  0.95157  0.21917  0.80691  1.0000
  C   C52       1.0  0.73254  0.78104  0.69323  1.0000
  C   C53       1.0  0.10281  0.62059  0.10436  1.0000
  C   C54       1.0  0.48193  0.37944  0.39555  1.0000
  C   C55       1.0  0.89719  0.37941  0.89564  1.0000
  C   C56       1.0  0.51807  0.62056  0.60445  1.0000
  C   C57       1.0  0.19188  0.68386  0.19544  1.0000
  C   C58       1.0  0.50794  0.31629  0.30449  1.0000
  C   C59       1.0  0.80812  0.31614  0.80456  1.0000
  C   C60       1.0  0.49207  0.68371  0.69551  1.0000
  N   N1        1.0  0.99737  0.66773  0.11938  1.0000
  N   N2        1.0  0.32932  0.33208  0.38047  1.0000
  N   N3        1.0  0.00263  0.33227  0.88062  1.0000
  N   N4        1.0  0.67068  0.66792  0.61953  1.0000
  N   N5        1.0  0.16376  0.79654  0.23647  1.0000
  N   N6        1.0  0.36721  0.20345  0.26342  1.0000
  N   N7        1.0  0.83624  0.20346  0.76353  1.0000
  N   N8        1.0  0.63279  0.79655  0.73658  1.0000
  O   O1        1.0  0.86318  0.78412  0.88232  1.0000
  O   O2        1.0  0.07927  0.21599  0.61770  1.0000
  O   O3        1.0  0.13683  0.21588  0.11768  1.0000
  O   O4        1.0  0.92072  0.78401  0.38230  1.0000
  O   O5        1.0  0.88625  0.75953  0.00967  1.0000
  O   O6        1.0  0.12655  0.24053  0.49030  1.0000
  O   O7        1.0  0.11375  0.24047  0.99033  1.0000
  O   O8        1.0  0.87345  0.75947  0.50969  1.0000
  O   O9        1.0  0.25967  0.13725  0.84266  1.0000
  O   O10       1.0  0.12223  0.86270  0.65733  1.0000
  O   O11       1.0  0.74033  0.86275  0.15733  1.0000
  O   O12       1.0  0.87777  0.13730  0.34267  1.0000
  O   O13       1.0  0.26344  0.15838  0.71249  1.0000
  O   O14       1.0  0.10474  0.84155  0.78750  1.0000
  O   O15       1.0  0.73656  0.84162  0.28751  1.0000
  O   O16       1.0  0.89525  0.15845  0.21250  1.0000
  O   O17       1.0  0.15434  0.99428  0.98837  1.0000
  O   O18       1.0  0.16008  0.00572  0.51164  1.0000
  O   O19       1.0  0.84566  0.00572  0.01163  1.0000
  O   O20       1.0  0.83992  0.99428  0.48836  1.0000
  O   O21       1.0  0.20402  0.98058  0.11370  1.0000
  O   O22       1.0  0.22335  0.01925  0.38624  1.0000
  O   O23       1.0  0.79598  0.01942  0.88630  1.0000
  O   O24       1.0  0.77665  0.98075  0.61376  1.0000
  O   O25       1.0  0.99304  0.85798  0.21640  1.0000
  O   O26       1.0  0.13496  0.14157  0.28345  1.0000
  O   O27       1.0  0.00695  0.14202  0.78360  1.0000
  O   O28       1.0  0.86504  0.85842  0.71655  1.0000
