data_image0
_chemical_formula_structural       Ho2H28C30N4O16
_chemical_formula_sum              "Ho2 H28 C30 N4 O16"
_cell_length_a       8.58282
_cell_length_b       10.2194
_cell_length_c       10.8476
_cell_angle_alpha    65.8869
_cell_angle_beta     68.7527
_cell_angle_gamma    78.4345

_space_group_name_H-M_alt    "P 1"
_space_group_IT_number       1

loop_
  _space_group_symop_operation_xyz
  'x, y, z'

loop_
  _atom_site_type_symbol
  _atom_site_label
  _atom_site_symmetry_multiplicity
  _atom_site_fract_x
  _atom_site_fract_y
  _atom_site_fract_z
  _atom_site_occupancy
  Ho  Ho1       1.0  0.65875  0.43892  0.14631  1.0000
  Ho  Ho2       1.0  0.34125  0.56108  0.85368  1.0000
  H   H1        1.0  0.92224  0.58740  0.87518  1.0000
  H   H2        1.0  0.07776  0.41259  0.12483  1.0000
  H   H3        1.0  0.75992  0.57255  0.84238  1.0000
  H   H4        1.0  0.24008  0.42745  0.15762  1.0000
  H   H5        1.0  0.22278  0.64030  0.47607  1.0000
  H   H6        1.0  0.77723  0.35971  0.52393  1.0000
  H   H7        1.0  0.07551  0.32067  0.38474  1.0000
  H   H8        1.0  0.92450  0.67933  0.61526  1.0000
  H   H9        1.0  0.71985  0.80359  0.97947  1.0000
  H   H10       1.0  0.28015  0.19640  0.02054  1.0000
  H   H11       1.0  0.21367  0.97682  0.00747  1.0000
  H   H12       1.0  0.78633  0.02317  0.99253  1.0000
  H   H13       1.0  0.16434  0.13568  0.25096  1.0000
  H   H14       1.0  0.83567  0.86432  0.74904  1.0000
  H   H15       1.0  0.69286  0.05592  0.58505  1.0000
  H   H16       1.0  0.30714  0.94409  0.41495  1.0000
  H   H17       1.0  0.68872  0.82052  0.44287  1.0000
  H   H18       1.0  0.31129  0.17948  0.55713  1.0000
  H   H19       1.0  0.62966  0.93209  0.28884  1.0000
  H   H20       1.0  0.37034  0.06791  0.71116  1.0000
  H   H21       1.0  0.91627  0.97526  0.17251  1.0000
  H   H22       1.0  0.08372  0.02474  0.82749  1.0000
  H   H23       1.0  0.97974  0.82515  0.30681  1.0000
  H   H24       1.0  0.02026  0.17485  0.69319  1.0000
  H   H25       1.0  0.56896  0.66487  0.35730  1.0000
  H   H26       1.0  0.43104  0.33513  0.64270  1.0000
  H   H27       1.0  0.04347  0.74784  0.09508  1.0000
  H   H28       1.0  0.95653  0.25216  0.90492  1.0000
  C   C1        1.0  0.34101  0.45768  0.33477  1.0000
  C   C2        1.0  0.65898  0.54233  0.66523  1.0000
  C   C3        1.0  0.16535  0.47958  0.42071  1.0000
  C   C4        1.0  0.83465  0.52043  0.57930  1.0000
  C   C5        1.0  0.12437  0.58001  0.48664  1.0000
  C   C6        1.0  0.87563  0.42000  0.51337  1.0000
  C   C7        1.0  0.04066  0.39983  0.43467  1.0000
  C   C8        1.0  0.95933  0.60017  0.56532  1.0000
  C   C9        1.0  0.42611  0.74685  0.98115  1.0000
  C   C10       1.0  0.57389  0.25315  0.01885  1.0000
  C   C11       1.0  0.46270  0.87699  0.99290  1.0000
  C   C12       1.0  0.53730  0.12301  0.00710  1.0000
  C   C13       1.0  0.62412  0.88996  0.98872  1.0000
  C   C14       1.0  0.37587  0.11003  0.01128  1.0000
  C   C15       1.0  0.33878  0.98745  0.00439  1.0000
  C   C16       1.0  0.66122  0.01255  0.99561  1.0000
  C   C17       1.0  0.83397  0.22417  0.31280  1.0000
  C   C18       1.0  0.16603  0.77583  0.68720  1.0000
  C   C19       1.0  0.92001  0.10721  0.40835  1.0000
  C   C20       1.0  0.07999  0.89279  0.59164  1.0000
  C   C21       1.0  0.09311  0.07572  0.36006  1.0000
  C   C22       1.0  0.90689  0.92429  0.63993  1.0000
  C   C23       1.0  0.82727  0.03053  0.54900  1.0000
  C   C24       1.0  0.17273  0.96947  0.45099  1.0000
  C   C25       1.0  0.80420  0.68112  0.20967  1.0000
  C   C26       1.0  0.19580  0.31887  0.79034  1.0000
  C   C27       1.0  0.71066  0.83871  0.33112  1.0000
  C   C28       1.0  0.28934  0.16129  0.66888  1.0000
  C   C29       1.0  0.89733  0.86162  0.24001  1.0000
  C   C30       1.0  0.10267  0.13838  0.75999  1.0000
  N   N1        1.0  0.67985  0.71213  0.31503  1.0000
  N   N2        1.0  0.32015  0.28787  0.68498  1.0000
  N   N3        1.0  0.92831  0.77251  0.15561  1.0000
  N   N4        1.0  0.07169  0.22748  0.84439  1.0000
  O   O1        1.0  0.37211  0.37688  0.26206  1.0000
  O   O2        1.0  0.62789  0.62312  0.73794  1.0000
  O   O3        1.0  0.82739  0.52647  0.90879  1.0000
  O   O4        1.0  0.17261  0.47353  0.09121  1.0000
  O   O5        1.0  0.45852  0.51958  0.33039  1.0000
  O   O6        1.0  0.54148  0.48041  0.66962  1.0000
  O   O7        1.0  0.50956  0.62962  0.02532  1.0000
  O   O8        1.0  0.49044  0.37038  0.97468  1.0000
  O   O9        1.0  0.31541  0.75868  0.92354  1.0000
  O   O10       1.0  0.68459  0.24132  0.07647  1.0000
  O   O11       1.0  0.67653  0.25046  0.36071  1.0000
  O   O12       1.0  0.32347  0.74953  0.63929  1.0000
  O   O13       1.0  0.91807  0.29742  0.18476  1.0000
  O   O14       1.0  0.08193  0.70258  0.81525  1.0000
  O   O15       1.0  0.80684  0.58443  0.16474  1.0000
  O   O16       1.0  0.19316  0.41557  0.83526  1.0000
