data_image0
_chemical_formula_structural       Sm2H28C30N4O16
_chemical_formula_sum              "Sm2 H28 C30 N4 O16"
_cell_length_a       8.64977
_cell_length_b       10.1159
_cell_length_c       11.0291
_cell_angle_alpha    65.8037
_cell_angle_beta     68.8857
_cell_angle_gamma    77.8265

_space_group_name_H-M_alt    "P 1"
_space_group_IT_number       1

loop_
  _space_group_symop_operation_xyz
  'x, y, z'

loop_
  _atom_site_type_symbol
  _atom_site_label
  _atom_site_symmetry_multiplicity
  _atom_site_fract_x
  _atom_site_fract_y
  _atom_site_fract_z
  _atom_site_occupancy
  Sm  Sm1       1.0  0.65539  0.43634  0.13475  1.0000
  Sm  Sm2       1.0  0.34461  0.56366  0.86526  1.0000
  H   H1        1.0  0.92251  0.60379  0.86638  1.0000
  H   H2        1.0  0.07749  0.39620  0.13362  1.0000
  H   H3        1.0  0.76314  0.58919  0.82933  1.0000
  H   H4        1.0  0.23687  0.41081  0.17067  1.0000
  H   H5        1.0  0.22103  0.64383  0.47035  1.0000
  H   H6        1.0  0.77897  0.35617  0.52965  1.0000
  H   H7        1.0  0.07257  0.31603  0.38995  1.0000
  H   H8        1.0  0.92743  0.68397  0.61005  1.0000
  H   H9        1.0  0.70218  0.79263  0.96897  1.0000
  H   H10       1.0  0.29782  0.20738  0.03102  1.0000
  H   H11       1.0  0.20377  0.99394  0.02601  1.0000
  H   H12       1.0  0.79623  0.00607  0.97398  1.0000
  H   H13       1.0  0.16093  0.13086  0.25389  1.0000
  H   H14       1.0  0.83907  0.86914  0.74611  1.0000
  H   H15       1.0  0.69389  0.05448  0.58055  1.0000
  H   H16       1.0  0.30611  0.94552  0.41945  1.0000
  H   H17       1.0  0.68321  0.81899  0.43980  1.0000
  H   H18       1.0  0.31679  0.18102  0.56020  1.0000
  H   H19       1.0  0.62182  0.93285  0.28926  1.0000
  H   H20       1.0  0.37819  0.06715  0.71074  1.0000
  H   H21       1.0  0.90387  0.97941  0.17556  1.0000
  H   H22       1.0  0.09613  0.02059  0.82444  1.0000
  H   H23       1.0  0.97144  0.82576  0.30555  1.0000
  H   H24       1.0  0.02857  0.17423  0.69445  1.0000
  H   H25       1.0  0.56701  0.66557  0.34896  1.0000
  H   H26       1.0  0.43299  0.33444  0.65104  1.0000
  H   H27       1.0  0.03438  0.75969  0.08814  1.0000
  H   H28       1.0  0.96562  0.24031  0.91186  1.0000
  C   C1        1.0  0.33654  0.45685  0.33297  1.0000
  C   C2        1.0  0.66347  0.54316  0.66702  1.0000
  C   C3        1.0  0.16342  0.47873  0.42033  1.0000
  C   C4        1.0  0.83658  0.52127  0.57967  1.0000
  C   C5        1.0  0.12359  0.58168  0.48353  1.0000
  C   C6        1.0  0.87641  0.41832  0.51647  1.0000
  C   C7        1.0  0.03926  0.39727  0.43764  1.0000
  C   C8        1.0  0.96074  0.60273  0.56237  1.0000
  C   C9        1.0  0.39352  0.75698  0.98567  1.0000
  C   C10       1.0  0.60648  0.24303  0.01433  1.0000
  C   C11       1.0  0.44727  0.88026  0.99752  1.0000
  C   C12       1.0  0.55272  0.11975  0.00248  1.0000
  C   C13       1.0  0.61436  0.88384  0.98242  1.0000
  C   C14       1.0  0.38564  0.11617  0.01758  1.0000
  C   C15       1.0  0.33315  0.99673  0.01534  1.0000
  C   C16       1.0  0.66685  0.00328  0.98466  1.0000
  C   C17       1.0  0.83173  0.21763  0.31099  1.0000
  C   C18       1.0  0.16826  0.78237  0.68902  1.0000
  C   C19       1.0  0.91879  0.10384  0.40770  1.0000
  C   C20       1.0  0.08121  0.89616  0.59230  1.0000
  C   C21       1.0  0.09124  0.07299  0.36178  1.0000
  C   C22       1.0  0.90877  0.92700  0.63822  1.0000
  C   C23       1.0  0.82787  0.02989  0.54661  1.0000
  C   C24       1.0  0.17213  0.97012  0.45339  1.0000
  C   C25       1.0  0.80005  0.68420  0.20469  1.0000
  C   C26       1.0  0.19995  0.31580  0.79531  1.0000
  C   C27       1.0  0.70444  0.83856  0.32974  1.0000
  C   C28       1.0  0.29557  0.16144  0.67026  1.0000
  C   C29       1.0  0.88863  0.86385  0.24008  1.0000
  C   C30       1.0  0.11138  0.13615  0.75992  1.0000
  N   N1        1.0  0.67734  0.71079  0.31198  1.0000
  N   N2        1.0  0.32267  0.28921  0.68802  1.0000
  N   N3        1.0  0.92105  0.77618  0.15475  1.0000
  N   N4        1.0  0.07896  0.22382  0.84525  1.0000
  O   O1        1.0  0.36574  0.36970  0.26721  1.0000
  O   O2        1.0  0.63426  0.63031  0.73278  1.0000
  O   O3        1.0  0.82452  0.54700  0.89957  1.0000
  O   O4        1.0  0.17548  0.45299  0.10043  1.0000
  O   O5        1.0  0.45243  0.52527  0.32034  1.0000
  O   O6        1.0  0.54757  0.47473  0.67966  1.0000
  O   O7        1.0  0.47666  0.63326  0.01207  1.0000
  O   O8        1.0  0.52334  0.36675  0.98793  1.0000
  O   O9        1.0  0.26943  0.77832  0.94166  1.0000
  O   O10       1.0  0.73057  0.22168  0.05834  1.0000
  O   O11       1.0  0.67376  0.23719  0.35276  1.0000
  O   O12       1.0  0.32623  0.76280  0.64724  1.0000
  O   O13       1.0  0.91672  0.29461  0.18768  1.0000
  O   O14       1.0  0.08328  0.70540  0.81232  1.0000
  O   O15       1.0  0.80245  0.59028  0.15611  1.0000
  O   O16       1.0  0.19755  0.40971  0.84389  1.0000
