data_image0
_chemical_formula_structural       Sm2H36C36N8O16
_chemical_formula_sum              "Sm2 H36 C36 N8 O16"
_cell_length_a       9.96599
_cell_length_b       10.391
_cell_length_c       11.0085
_cell_angle_alpha    78.1187
_cell_angle_beta     76.862
_cell_angle_gamma    66.1341

_space_group_name_H-M_alt    "P 1"
_space_group_IT_number       1

loop_
  _space_group_symop_operation_xyz
  'x, y, z'

loop_
  _atom_site_type_symbol
  _atom_site_label
  _atom_site_symmetry_multiplicity
  _atom_site_fract_x
  _atom_site_fract_y
  _atom_site_fract_z
  _atom_site_occupancy
  Sm  Sm1       1.0  0.05619  0.77395  0.17666  1.0000
  Sm  Sm2       1.0  0.94381  0.22605  0.82334  1.0000
  H   H1        1.0  0.33698  0.15057  0.84252  1.0000
  H   H2        1.0  0.66302  0.84943  0.15748  1.0000
  H   H3        1.0  0.39557  0.87301  0.19031  1.0000
  H   H4        1.0  0.60443  0.12699  0.80969  1.0000
  H   H5        1.0  0.56564  0.59179  0.27687  1.0000
  H   H6        1.0  0.43436  0.40820  0.72313  1.0000
  H   H7        1.0  0.24728  0.49329  0.57794  1.0000
  H   H8        1.0  0.75272  0.50671  0.42206  1.0000
  H   H9        1.0  0.70167  0.08451  0.49700  1.0000
  H   H10       1.0  0.29833  0.91549  0.50300  1.0000
  H   H11       1.0  0.55335  0.79867  0.38437  1.0000
  H   H12       1.0  0.44665  0.20133  0.61563  1.0000
  H   H13       1.0  0.53782  0.85877  0.73371  1.0000
  H   H14       1.0  0.46218  0.14123  0.26629  1.0000
  H   H15       1.0  0.57859  0.69458  0.68063  1.0000
  H   H16       1.0  0.42141  0.30543  0.31937  1.0000
  H   H17       1.0  0.67175  0.57060  0.86897  1.0000
  H   H18       1.0  0.32825  0.42940  0.13103  1.0000
  H   H19       1.0  0.63436  0.73518  0.92022  1.0000
  H   H20       1.0  0.36564  0.26483  0.07978  1.0000
  H   H21       1.0  0.98080  0.26132  0.44984  1.0000
  H   H22       1.0  0.01920  0.73868  0.55016  1.0000
  H   H23       1.0  0.15563  0.19083  0.34988  1.0000
  H   H24       1.0  0.84437  0.80917  0.65012  1.0000
  H   H25       1.0  0.00398  0.15270  0.22822  1.0000
  H   H26       1.0  0.99602  0.84730  0.77178  1.0000
  H   H27       1.0  0.84196  0.29598  0.28399  1.0000
  H   H28       1.0  0.15803  0.70403  0.71601  1.0000
  H   H29       1.0  0.44797  0.63201  0.06170  1.0000
  H   H30       1.0  0.55203  0.36799  0.93830  1.0000
  H   H31       1.0  0.28600  0.85577  0.74692  1.0000
  H   H32       1.0  0.71400  0.14423  0.25308  1.0000
  H   H33       1.0  0.08044  0.46475  0.36209  1.0000
  H   H34       1.0  0.91956  0.53525  0.63791  1.0000
  H   H35       1.0  0.96539  0.38072  0.06306  1.0000
  H   H36       1.0  0.03461  0.61928  0.93694  1.0000
  C   C1        1.0  0.35215  0.01335  0.01859  1.0000
  C   C2        1.0  0.64785  0.98665  0.98141  1.0000
  C   C3        1.0  0.40984  0.08472  0.91043  1.0000
  C   C4        1.0  0.59016  0.91528  0.08957  1.0000
  C   C5        1.0  0.44267  0.92873  0.10807  1.0000
  C   C6        1.0  0.55733  0.07127  0.89193  1.0000
  C   C7        1.0  0.19479  0.02445  0.03619  1.0000
  C   C8        1.0  0.80521  0.97555  0.96381  1.0000
  C   C9        1.0  0.39502  0.54908  0.41899  1.0000
  C   C10       1.0  0.60499  0.45091  0.58102  1.0000
  C   C11       1.0  0.53803  0.55094  0.37474  1.0000
  C   C12       1.0  0.46197  0.44905  0.62527  1.0000
  C   C13       1.0  0.35742  0.49732  0.54479  1.0000
  C   C14       1.0  0.64258  0.50268  0.45522  1.0000
  C   C15       1.0  0.28219  0.60569  0.33284  1.0000
  C   C16       1.0  0.71781  0.39430  0.66716  1.0000
  C   C17       1.0  0.64244  0.93464  0.43344  1.0000
  C   C18       1.0  0.35756  0.06536  0.56656  1.0000
  C   C19       1.0  0.61276  0.04791  0.49918  1.0000
  C   C20       1.0  0.38724  0.95209  0.50082  1.0000
  C   C21       1.0  0.52884  0.88706  0.43513  1.0000
  C   C22       1.0  0.47116  0.11294  0.56487  1.0000
  C   C23       1.0  0.79183  0.87017  0.35581  1.0000
  C   C24       1.0  0.20817  0.12983  0.64419  1.0000
  C   C25       1.0  0.33050  0.72866  0.91486  1.0000
  C   C26       1.0  0.66950  0.27134  0.08514  1.0000
  C   C27       1.0  0.52383  0.75661  0.75993  1.0000
  C   C28       1.0  0.47617  0.24339  0.24007  1.0000
  C   C29       1.0  0.58635  0.67598  0.88289  1.0000
  C   C30       1.0  0.41365  0.32402  0.11711  1.0000
  C   C31       1.0  0.04126  0.27112  0.35424  1.0000
  C   C32       1.0  0.95874  0.72888  0.64576  1.0000
  C   C33       1.0  0.96317  0.26000  0.25330  1.0000
  C   C34       1.0  0.03683  0.74000  0.74670  1.0000
  C   C35       1.0  0.03088  0.45493  0.19188  1.0000
  C   C36       1.0  0.96912  0.54507  0.80812  1.0000
  N   N1        1.0  0.45532  0.66447  0.96740  1.0000
  N   N2        1.0  0.54468  0.33553  0.03260  1.0000
  N   N3        1.0  0.36647  0.77661  0.79163  1.0000
  N   N4        1.0  0.63353  0.22339  0.20837  1.0000
  N   N5        1.0  0.04318  0.41378  0.31540  1.0000
  N   N6        1.0  0.95682  0.58622  0.68459  1.0000
  N   N7        1.0  0.99924  0.35942  0.14842  1.0000
  N   N8        1.0  0.00076  0.64058  0.85158  1.0000
  O   O1        1.0  0.14621  0.95704  0.13468  1.0000
  O   O2        1.0  0.85379  0.04296  0.86532  1.0000
  O   O3        1.0  0.11902  0.09977  0.95106  1.0000
  O   O4        1.0  0.88098  0.90023  0.04894  1.0000
  O   O5        1.0  0.14716  0.61847  0.37551  1.0000
  O   O6        1.0  0.85284  0.38152  0.62449  1.0000
  O   O7        1.0  0.32053  0.64550  0.21688  1.0000
  O   O8        1.0  0.67947  0.35450  0.78312  1.0000
  O   O9        1.0  0.82876  0.75054  0.31850  1.0000
  O   O10       1.0  0.17124  0.24946  0.68150  1.0000
  O   O11       1.0  0.87710  0.94121  0.32432  1.0000
  O   O12       1.0  0.12290  0.05879  0.67568  1.0000
  O   O13       1.0  0.20086  0.74063  0.96912  1.0000
  O   O14       1.0  0.79914  0.25937  0.03088  1.0000
  O   O15       1.0  0.04915  0.56429  0.12629  1.0000
  O   O16       1.0  0.95085  0.43571  0.87371  1.0000
