data_image0
_chemical_formula_structural       Gd2H36C36N8O16
_chemical_formula_sum              "Gd2 H36 C36 N8 O16"
_cell_length_a       9.91555
_cell_length_b       10.3182
_cell_length_c       11.004
_cell_angle_alpha    77.7443
_cell_angle_beta     76.6564
_cell_angle_gamma    65.8773

_space_group_name_H-M_alt    "P 1"
_space_group_IT_number       1

loop_
  _space_group_symop_operation_xyz
  'x, y, z'

loop_
  _atom_site_type_symbol
  _atom_site_label
  _atom_site_symmetry_multiplicity
  _atom_site_fract_x
  _atom_site_fract_y
  _atom_site_fract_z
  _atom_site_occupancy
  Gd  Gd1       1.0  0.05595  0.77298  0.17628  1.0000
  Gd  Gd2       1.0  0.94404  0.22702  0.82372  1.0000
  H   H1        1.0  0.33724  0.15079  0.84056  1.0000
  H   H2        1.0  0.66276  0.84921  0.15944  1.0000
  H   H3        1.0  0.39371  0.87283  0.19113  1.0000
  H   H4        1.0  0.60629  0.12717  0.80887  1.0000
  H   H5        1.0  0.56580  0.58981  0.27521  1.0000
  H   H6        1.0  0.43419  0.41019  0.72479  1.0000
  H   H7        1.0  0.24513  0.49559  0.58027  1.0000
  H   H8        1.0  0.75487  0.50441  0.41973  1.0000
  H   H9        1.0  0.70389  0.08332  0.49641  1.0000
  H   H10       1.0  0.29611  0.91668  0.50359  1.0000
  H   H11       1.0  0.55258  0.79798  0.38423  1.0000
  H   H12       1.0  0.44741  0.20202  0.61577  1.0000
  H   H13       1.0  0.53500  0.86049  0.73381  1.0000
  H   H14       1.0  0.46500  0.13951  0.26619  1.0000
  H   H15       1.0  0.58039  0.69415  0.68075  1.0000
  H   H16       1.0  0.41961  0.30585  0.31925  1.0000
  H   H17       1.0  0.67182  0.56847  0.87067  1.0000
  H   H18       1.0  0.32818  0.43153  0.12933  1.0000
  H   H19       1.0  0.63683  0.73503  0.91878  1.0000
  H   H20       1.0  0.36317  0.26497  0.08122  1.0000
  H   H21       1.0  0.98132  0.25680  0.45010  1.0000
  H   H22       1.0  0.01868  0.74321  0.54991  1.0000
  H   H23       1.0  0.15732  0.18656  0.34960  1.0000
  H   H24       1.0  0.84268  0.81344  0.65040  1.0000
  H   H25       1.0  0.00469  0.14951  0.22772  1.0000
  H   H26       1.0  0.99532  0.85049  0.77229  1.0000
  H   H27       1.0  0.84145  0.29425  0.28357  1.0000
  H   H28       1.0  0.15856  0.70574  0.71643  1.0000
  H   H29       1.0  0.44765  0.63338  0.06388  1.0000
  H   H30       1.0  0.55235  0.36662  0.93612  1.0000
  H   H31       1.0  0.28455  0.85422  0.74727  1.0000
  H   H32       1.0  0.71545  0.14578  0.25273  1.0000
  H   H33       1.0  0.07915  0.46346  0.36331  1.0000
  H   H34       1.0  0.92085  0.53655  0.63669  1.0000
  H   H35       1.0  0.96649  0.38019  0.06227  1.0000
  H   H36       1.0  0.03351  0.61981  0.93773  1.0000
  C   C1        1.0  0.35132  0.01346  0.01810  1.0000
  C   C2        1.0  0.64867  0.98655  0.98190  1.0000
  C   C3        1.0  0.40997  0.08483  0.90930  1.0000
  C   C4        1.0  0.59003  0.91517  0.09069  1.0000
  C   C5        1.0  0.44168  0.92877  0.10868  1.0000
  C   C6        1.0  0.55832  0.07123  0.89132  1.0000
  C   C7        1.0  0.19366  0.02359  0.03474  1.0000
  C   C8        1.0  0.80634  0.97641  0.96526  1.0000
  C   C9        1.0  0.39381  0.54936  0.41930  1.0000
  C   C10       1.0  0.60619  0.45064  0.58070  1.0000
  C   C11       1.0  0.53814  0.54977  0.37377  1.0000
  C   C12       1.0  0.46186  0.45023  0.62622  1.0000
  C   C13       1.0  0.35617  0.49872  0.54610  1.0000
  C   C14       1.0  0.64383  0.50128  0.45390  1.0000
  C   C15       1.0  0.27985  0.60654  0.33340  1.0000
  C   C16       1.0  0.72015  0.39346  0.66660  1.0000
  C   C17       1.0  0.64328  0.93363  0.43305  1.0000
  C   C18       1.0  0.35672  0.06637  0.56695  1.0000
  C   C19       1.0  0.61395  0.04730  0.49888  1.0000
  C   C20       1.0  0.38605  0.95270  0.50112  1.0000
  C   C21       1.0  0.52844  0.88671  0.43500  1.0000
  C   C22       1.0  0.47156  0.11330  0.56500  1.0000
  C   C23       1.0  0.79336  0.86838  0.35471  1.0000
  C   C24       1.0  0.20664  0.13162  0.64529  1.0000
  C   C25       1.0  0.32965  0.72801  0.91631  1.0000
  C   C26       1.0  0.67035  0.27199  0.08369  1.0000
  C   C27       1.0  0.52355  0.75629  0.76010  1.0000
  C   C28       1.0  0.47645  0.24371  0.23990  1.0000
  C   C29       1.0  0.58696  0.67571  0.88339  1.0000
  C   C30       1.0  0.41304  0.32429  0.11661  1.0000
  C   C31       1.0  0.04194  0.26758  0.35428  1.0000
  C   C32       1.0  0.95806  0.73242  0.64572  1.0000
  C   C33       1.0  0.96356  0.25754  0.25300  1.0000
  C   C34       1.0  0.03644  0.74246  0.74700  1.0000
  C   C35       1.0  0.03109  0.45437  0.19214  1.0000
  C   C36       1.0  0.96891  0.54563  0.80786  1.0000
  N   N1        1.0  0.45491  0.66650  0.96934  1.0000
  N   N2        1.0  0.54509  0.33350  0.03066  1.0000
  N   N3        1.0  0.36587  0.77366  0.79167  1.0000
  N   N4        1.0  0.63413  0.22634  0.20833  1.0000
  N   N5        1.0  0.04330  0.41181  0.31589  1.0000
  N   N6        1.0  0.95670  0.58819  0.68412  1.0000
  N   N7        1.0  0.00015  0.35837  0.14804  1.0000
  N   N8        1.0  0.99985  0.64163  0.85196  1.0000
  O   O1        1.0  0.14464  0.95511  0.13320  1.0000
  O   O2        1.0  0.85536  0.04489  0.86680  1.0000
  O   O3        1.0  0.11823  0.09889  0.94858  1.0000
  O   O4        1.0  0.88176  0.90111  0.05142  1.0000
  O   O5        1.0  0.14382  0.62011  0.37612  1.0000
  O   O6        1.0  0.85618  0.37990  0.62388  1.0000
  O   O7        1.0  0.31817  0.64623  0.21687  1.0000
  O   O8        1.0  0.68182  0.35377  0.78313  1.0000
  O   O9        1.0  0.82984  0.74858  0.31656  1.0000
  O   O10       1.0  0.17017  0.25142  0.68344  1.0000
  O   O11       1.0  0.87988  0.93907  0.32303  1.0000
  O   O12       1.0  0.12012  0.06093  0.67697  1.0000
  O   O13       1.0  0.19935  0.73977  0.97103  1.0000
  O   O14       1.0  0.80066  0.26023  0.02897  1.0000
  O   O15       1.0  0.04909  0.56526  0.12679  1.0000
  O   O16       1.0  0.95090  0.43474  0.87321  1.0000
