data_image0
_chemical_formula_structural       Cu4H36C28S4N8Cl4
_chemical_formula_sum              "Cu4 H36 C28 S4 N8 Cl4"
_cell_length_a       7.62243
_cell_length_b       7.87153
_cell_length_c       15.537
_cell_angle_alpha    90.0001
_cell_angle_beta     90
_cell_angle_gamma    109.162

_space_group_name_H-M_alt    "P 1"
_space_group_IT_number       1

loop_
  _space_group_symop_operation_xyz
  'x, y, z'

loop_
  _atom_site_type_symbol
  _atom_site_label
  _atom_site_symmetry_multiplicity
  _atom_site_fract_x
  _atom_site_fract_y
  _atom_site_fract_z
  _atom_site_occupancy
  Cu  Cu1       1.0  0.13377  0.51784  0.75496  1.0000
  Cu  Cu2       1.0  0.36623  0.48216  0.25496  1.0000
  Cu  Cu3       1.0  0.86623  0.48216  0.24504  1.0000
  Cu  Cu4       1.0  0.63377  0.51784  0.74504  1.0000
  H   H1        1.0  0.61100  1.00000  0.87302  1.0000
  H   H2        1.0  0.88900  0.00000  0.37302  1.0000
  H   H3        1.0  0.38900  0.00000  0.12698  1.0000
  H   H4        1.0  0.11100  0.00000  0.62698  1.0000
  H   H5        1.0  0.48690  0.14033  0.83591  1.0000
  H   H6        1.0  0.01310  0.85967  0.33591  1.0000
  H   H7        1.0  0.51310  0.85967  0.16410  1.0000
  H   H8        1.0  0.98690  0.14033  0.66409  1.0000
  H   H9        1.0  0.55336  0.14512  0.94712  1.0000
  H   H10       1.0  0.94664  0.85488  0.44712  1.0000
  H   H11       1.0  0.44664  0.85487  0.05289  1.0000
  H   H12       1.0  0.05337  0.14512  0.55288  1.0000
  H   H13       1.0  0.07935  0.55513  0.56519  1.0000
  H   H14       1.0  0.42065  0.44487  0.06519  1.0000
  H   H15       1.0  0.92066  0.44488  0.43481  1.0000
  H   H16       1.0  0.57935  0.55512  0.93481  1.0000
  H   H17       1.0  0.24986  0.75030  0.44808  1.0000
  H   H18       1.0  0.25014  0.24971  0.94808  1.0000
  H   H19       1.0  0.75015  0.24971  0.55192  1.0000
  H   H20       1.0  0.74985  0.75029  0.05192  1.0000
  H   H21       1.0  0.61048  0.08058  0.64366  1.0000
  H   H22       1.0  0.88951  0.91942  0.14366  1.0000
  H   H23       1.0  0.38951  0.91942  0.35634  1.0000
  H   H24       1.0  0.11048  0.08057  0.85634  1.0000
  H   H25       1.0  0.42875  0.86380  0.75093  1.0000
  H   H26       1.0  0.07125  0.13620  0.25093  1.0000
  H   H27       1.0  0.57125  0.13621  0.24906  1.0000
  H   H28       1.0  0.92875  0.86379  0.74907  1.0000
  H   H29       1.0  0.84442  0.31889  0.98793  1.0000
  H   H30       1.0  0.65558  0.68111  0.48793  1.0000
  H   H31       1.0  0.15558  0.68111  0.01207  1.0000
  H   H32       1.0  0.34443  0.31889  0.51207  1.0000
  H   H33       1.0  0.01372  0.44594  0.91279  1.0000
  H   H34       1.0  0.48627  0.55406  0.41280  1.0000
  H   H35       1.0  0.98628  0.55405  0.08721  1.0000
  H   H36       1.0  0.51373  0.44594  0.58720  1.0000
  C   C1        1.0  0.77647  0.27543  0.86042  1.0000
  C   C2        1.0  0.72353  0.72457  0.36043  1.0000
  C   C3        1.0  0.22353  0.72457  0.13958  1.0000
  C   C4        1.0  0.27647  0.27543  0.63957  1.0000
  C   C5        1.0  0.59589  0.13348  0.88044  1.0000
  C   C6        1.0  0.90411  0.86652  0.38045  1.0000
  C   C7        1.0  0.40411  0.86652  0.11956  1.0000
  C   C8        1.0  0.09589  0.13348  0.61955  1.0000
  C   C9        1.0  0.19959  0.67227  0.57948  1.0000
  C   C10       1.0  0.30041  0.32773  0.07948  1.0000
  C   C11       1.0  0.80042  0.32774  0.42052  1.0000
  C   C12       1.0  0.69958  0.67226  0.92052  1.0000
  C   C13       1.0  0.29503  0.78514  0.51411  1.0000
  C   C14       1.0  0.20497  0.21486  0.01412  1.0000
  C   C15       1.0  0.70498  0.21487  0.48588  1.0000
  C   C16       1.0  0.79503  0.78513  0.98588  1.0000
  C   C17       1.0  0.44741  0.93839  0.53380  1.0000
  C   C18       1.0  0.05259  0.06162  0.03380  1.0000
  C   C19       1.0  0.55261  0.06162  0.46620  1.0000
  C   C20       1.0  0.94740  0.93838  0.96620  1.0000
  C   C21       1.0  0.49467  0.96644  0.62135  1.0000
  C   C22       1.0  0.00532  0.03356  0.12135  1.0000
  C   C23       1.0  0.50533  0.03357  0.37865  1.0000
  C   C24       1.0  0.99467  0.96643  0.87865  1.0000
  C   C25       1.0  0.39328  0.84643  0.68282  1.0000
  C   C26       1.0  0.10671  0.15356  0.18282  1.0000
  C   C27       1.0  0.60672  0.15357  0.31718  1.0000
  C   C28       1.0  0.89328  0.84643  0.81718  1.0000
  S   S1        1.0  0.83718  0.34093  0.75660  1.0000
  S   S2        1.0  0.66282  0.65907  0.25660  1.0000
  S   S3        1.0  0.16282  0.65907  0.24340  1.0000
  S   S4        1.0  0.33718  0.34093  0.74340  1.0000
  N   N1        1.0  0.88763  0.34740  0.92496  1.0000
  N   N2        1.0  0.61236  0.65260  0.42496  1.0000
  N   N3        1.0  0.11237  0.65260  0.07505  1.0000
  N   N4        1.0  0.38764  0.34740  0.57504  1.0000
  N   N5        1.0  0.24621  0.70046  0.66340  1.0000
  N   N6        1.0  0.25379  0.29954  0.16340  1.0000
  N   N7        1.0  0.75380  0.29955  0.33659  1.0000
  N   N8        1.0  0.74620  0.70045  0.83660  1.0000
  Cl  Cl1       1.0  0.26222  0.66501  0.88449  1.0000
  Cl  Cl2       1.0  0.23778  0.33498  0.38449  1.0000
  Cl  Cl3       1.0  0.73778  0.33499  0.11551  1.0000
  Cl  Cl4       1.0  0.76222  0.66502  0.61551  1.0000
