data_image0
_chemical_formula_structural       Er2H28C30N4O16
_chemical_formula_sum              "Er2 H28 C30 N4 O16"
_cell_length_a       8.57633
_cell_length_b       10.2273
_cell_length_c       10.824
_cell_angle_alpha    66.0022
_cell_angle_beta     68.7872
_cell_angle_gamma    78.6121

_space_group_name_H-M_alt    "P 1"
_space_group_IT_number       1

loop_
  _space_group_symop_operation_xyz
  'x, y, z'

loop_
  _atom_site_type_symbol
  _atom_site_label
  _atom_site_symmetry_multiplicity
  _atom_site_fract_x
  _atom_site_fract_y
  _atom_site_fract_z
  _atom_site_occupancy
  Er  Er1       1.0  0.65910  0.43884  0.14895  1.0000
  Er  Er2       1.0  0.34090  0.56116  0.85105  1.0000
  H   H1        1.0  0.92206  0.58517  0.87703  1.0000
  H   H2        1.0  0.07795  0.41482  0.12297  1.0000
  H   H3        1.0  0.75934  0.56975  0.84529  1.0000
  H   H4        1.0  0.24066  0.43025  0.15471  1.0000
  H   H5        1.0  0.22304  0.63910  0.47829  1.0000
  H   H6        1.0  0.77696  0.36090  0.52170  1.0000
  H   H7        1.0  0.07559  0.32277  0.38229  1.0000
  H   H8        1.0  0.92441  0.67723  0.61770  1.0000
  H   H9        1.0  0.72271  0.80589  0.98151  1.0000
  H   H10       1.0  0.27728  0.19411  0.01850  1.0000
  H   H11       1.0  0.21648  0.97385  0.00297  1.0000
  H   H12       1.0  0.78350  0.02616  0.99703  1.0000
  H   H13       1.0  0.16457  0.13581  0.25070  1.0000
  H   H14       1.0  0.83544  0.86419  0.74930  1.0000
  H   H15       1.0  0.69294  0.05549  0.58596  1.0000
  H   H16       1.0  0.30707  0.94451  0.41403  1.0000
  H   H17       1.0  0.68780  0.82045  0.44497  1.0000
  H   H18       1.0  0.31220  0.17955  0.55503  1.0000
  H   H19       1.0  0.63050  0.93181  0.28988  1.0000
  H   H20       1.0  0.36951  0.06819  0.71012  1.0000
  H   H21       1.0  0.91846  0.97395  0.17501  1.0000
  H   H22       1.0  0.08155  0.02605  0.82499  1.0000
  H   H23       1.0  0.97979  0.82393  0.31019  1.0000
  H   H24       1.0  0.02021  0.17606  0.68981  1.0000
  H   H25       1.0  0.56866  0.66453  0.35936  1.0000
  H   H26       1.0  0.43134  0.33548  0.64063  1.0000
  H   H27       1.0  0.04471  0.74549  0.09909  1.0000
  H   H28       1.0  0.95530  0.25451  0.90091  1.0000
  C   C1        1.0  0.34147  0.45817  0.33495  1.0000
  C   C2        1.0  0.65852  0.54183  0.66504  1.0000
  C   C3        1.0  0.16553  0.48014  0.42041  1.0000
  C   C4        1.0  0.83447  0.51987  0.57958  1.0000
  C   C5        1.0  0.12454  0.57941  0.48772  1.0000
  C   C6        1.0  0.87546  0.42060  0.51228  1.0000
  C   C7        1.0  0.04064  0.40106  0.43331  1.0000
  C   C8        1.0  0.95936  0.59895  0.56669  1.0000
  C   C9        1.0  0.43234  0.74484  0.98052  1.0000
  C   C10       1.0  0.56765  0.25516  0.01948  1.0000
  C   C11       1.0  0.46581  0.87633  0.99192  1.0000
  C   C12       1.0  0.53418  0.12367  0.00809  1.0000
  C   C13       1.0  0.62566  0.89126  0.98996  1.0000
  C   C14       1.0  0.37433  0.10874  0.01005  1.0000
  C   C15       1.0  0.34033  0.98564  0.00202  1.0000
  C   C16       1.0  0.65966  0.01436  0.99799  1.0000
  C   C17       1.0  0.83376  0.22425  0.31352  1.0000
  C   C18       1.0  0.16624  0.77574  0.68648  1.0000
  C   C19       1.0  0.91997  0.10717  0.40864  1.0000
  C   C20       1.0  0.08004  0.89282  0.59135  1.0000
  C   C21       1.0  0.09307  0.07591  0.35992  1.0000
  C   C22       1.0  0.90694  0.92409  0.64008  1.0000
  C   C23       1.0  0.82732  0.03036  0.54946  1.0000
  C   C24       1.0  0.17269  0.96963  0.45053  1.0000
  C   C25       1.0  0.80451  0.68032  0.21207  1.0000
  C   C26       1.0  0.19550  0.31968  0.78793  1.0000
  C   C27       1.0  0.71080  0.83851  0.33286  1.0000
  C   C28       1.0  0.28921  0.16149  0.66714  1.0000
  C   C29       1.0  0.89812  0.86063  0.24260  1.0000
  C   C30       1.0  0.10189  0.13937  0.75740  1.0000
  N   N1        1.0  0.67955  0.71214  0.31666  1.0000
  N   N2        1.0  0.32046  0.28786  0.68333  1.0000
  N   N3        1.0  0.92915  0.77163  0.15794  1.0000
  N   N4        1.0  0.07086  0.22836  0.84206  1.0000
  O   O1        1.0  0.37274  0.37885  0.26069  1.0000
  O   O2        1.0  0.62725  0.62116  0.73931  1.0000
  O   O3        1.0  0.82744  0.52380  0.91115  1.0000
  O   O4        1.0  0.17256  0.47619  0.08885  1.0000
  O   O5        1.0  0.45924  0.51845  0.33273  1.0000
  O   O6        1.0  0.54076  0.48155  0.66727  1.0000
  O   O7        1.0  0.51552  0.62903  0.02770  1.0000
  O   O8        1.0  0.48449  0.37098  0.97229  1.0000
  O   O9        1.0  0.32399  0.75445  0.92122  1.0000
  O   O10       1.0  0.67600  0.24554  0.07880  1.0000
  O   O11       1.0  0.67653  0.25115  0.36222  1.0000
  O   O12       1.0  0.32348  0.74885  0.63779  1.0000
  O   O13       1.0  0.91749  0.29727  0.18508  1.0000
  O   O14       1.0  0.08250  0.70273  0.81492  1.0000
  O   O15       1.0  0.80755  0.58314  0.16760  1.0000
  O   O16       1.0  0.19245  0.41686  0.83240  1.0000
