data_image0
_chemical_formula_structural       Cu4H28C16S4N8Cl4
_chemical_formula_sum              "Cu4 H28 C16 S4 N8 Cl4"
_cell_length_a       7.84737
_cell_length_b       8.78503
_cell_length_c       10.4723
_cell_angle_alpha    89.9999
_cell_angle_beta     90
_cell_angle_gamma    95.6877

_space_group_name_H-M_alt    "P 1"
_space_group_IT_number       1

loop_
  _space_group_symop_operation_xyz
  'x, y, z'

loop_
  _atom_site_type_symbol
  _atom_site_label
  _atom_site_symmetry_multiplicity
  _atom_site_fract_x
  _atom_site_fract_y
  _atom_site_fract_z
  _atom_site_occupancy
  Cu  Cu1       1.0  0.93516  0.61644  0.94892  1.0000
  Cu  Cu2       1.0  0.56484  0.88356  0.44892  1.0000
  Cu  Cu3       1.0  0.06484  0.38356  0.05108  1.0000
  Cu  Cu4       1.0  0.43516  0.11644  0.55108  1.0000
  H   H1        1.0  0.42479  0.17086  0.02615  1.0000
  H   H2        1.0  0.07521  0.32914  0.52615  1.0000
  H   H3        1.0  0.57521  0.82914  0.97385  1.0000
  H   H4        1.0  0.92479  0.67086  0.47385  1.0000
  H   H5        1.0  0.44799  0.29741  0.15957  1.0000
  H   H6        1.0  0.05201  0.20260  0.65957  1.0000
  H   H7        1.0  0.55201  0.70260  0.84043  1.0000
  H   H8        1.0  0.94799  0.79740  0.34043  1.0000
  H   H9        1.0  0.59032  0.15339  0.14040  1.0000
  H   H10       1.0  0.90968  0.34661  0.64040  1.0000
  H   H11       1.0  0.40968  0.84661  0.85960  1.0000
  H   H12       1.0  0.09033  0.65339  0.35960  1.0000
  H   H13       1.0  0.11262  0.82299  0.14820  1.0000
  H   H14       1.0  0.38738  0.67701  0.64820  1.0000
  H   H15       1.0  0.88738  0.17701  0.85181  1.0000
  H   H16       1.0  0.61262  0.32300  0.35180  1.0000
  H   H17       1.0  0.84203  0.89572  0.81505  1.0000
  H   H18       1.0  0.65796  0.60428  0.31505  1.0000
  H   H19       1.0  0.15796  0.10427  0.18495  1.0000
  H   H20       1.0  0.34204  0.39572  0.68495  1.0000
  H   H21       1.0  0.53099  0.26400  0.84484  1.0000
  H   H22       1.0  0.96902  0.23600  0.34485  1.0000
  H   H23       1.0  0.46901  0.73600  0.15515  1.0000
  H   H24       1.0  0.03099  0.76399  0.65516  1.0000
  H   H25       1.0  0.69656  0.41786  0.83233  1.0000
  H   H26       1.0  0.80344  0.08213  0.33233  1.0000
  H   H27       1.0  0.30344  0.58213  0.16767  1.0000
  H   H28       1.0  0.19656  0.91787  0.66768  1.0000
  C   C1        1.0  0.63622  0.34396  0.01307  1.0000
  C   C2        1.0  0.86378  0.15604  0.51307  1.0000
  C   C3        1.0  0.36378  0.65604  0.98693  1.0000
  C   C4        1.0  0.13622  0.84395  0.48693  1.0000
  C   C5        1.0  0.51797  0.23530  0.08876  1.0000
  C   C6        1.0  0.98203  0.26470  0.58876  1.0000
  C   C7        1.0  0.48203  0.76470  0.91124  1.0000
  C   C8        1.0  0.01797  0.73530  0.41124  1.0000
  C   C9        1.0  0.06175  0.90157  0.08127  1.0000
  C   C10       1.0  0.43825  0.59844  0.58127  1.0000
  C   C11       1.0  0.93825  0.09844  0.91873  1.0000
  C   C12       1.0  0.56175  0.40157  0.41872  1.0000
  C   C13       1.0  0.91249  0.94192  0.89843  1.0000
  C   C14       1.0  0.58751  0.55808  0.39843  1.0000
  C   C15       1.0  0.08751  0.05808  0.10157  1.0000
  C   C16       1.0  0.41249  0.44192  0.60157  1.0000
  S   S1        1.0  0.78358  0.46713  0.09087  1.0000
  S   S2        1.0  0.71642  0.03287  0.59087  1.0000
  S   S3        1.0  0.21642  0.53286  0.90913  1.0000
  S   S4        1.0  0.28358  0.96714  0.40912  1.0000
  N   N1        1.0  0.62277  0.33957  0.88777  1.0000
  N   N2        1.0  0.87723  0.16043  0.38777  1.0000
  N   N3        1.0  0.37723  0.66043  0.11223  1.0000
  N   N4        1.0  0.12277  0.83957  0.61223  1.0000
  N   N5        1.0  0.97427  0.84102  0.97925  1.0000
  N   N6        1.0  0.52573  0.65898  0.47925  1.0000
  N   N7        1.0  0.02574  0.15898  0.02075  1.0000
  N   N8        1.0  0.47426  0.34102  0.52075  1.0000
  Cl  Cl1       1.0  0.83357  0.60275  0.73506  1.0000
  Cl  Cl2       1.0  0.66643  0.89725  0.23507  1.0000
  Cl  Cl3       1.0  0.16643  0.39725  0.26494  1.0000
  Cl  Cl4       1.0  0.33357  0.10275  0.76494  1.0000
