data_image0
_chemical_formula_structural       Cd4H40C44N8O20
_chemical_formula_sum              "Cd4 H40 C44 N8 O20"
_cell_length_a       6.62025
_cell_length_b       10.1394
_cell_length_c       17.8586
_cell_angle_alpha    90
_cell_angle_beta     90
_cell_angle_gamma    90

_space_group_name_H-M_alt    "P 1"
_space_group_IT_number       1

loop_
  _space_group_symop_operation_xyz
  'x, y, z'

loop_
  _atom_site_type_symbol
  _atom_site_label
  _atom_site_symmetry_multiplicity
  _atom_site_fract_x
  _atom_site_fract_y
  _atom_site_fract_z
  _atom_site_occupancy
  Cd  Cd1       1.0  0.99955  0.27342  0.97104  1.0000
  Cd  Cd2       1.0  0.50045  0.72658  0.47104  1.0000
  Cd  Cd3       1.0  0.00045  0.77342  0.52896  1.0000
  Cd  Cd4       1.0  0.49956  0.22657  0.02896  1.0000
  H   H1        1.0  0.35592  0.52641  0.99128  1.0000
  H   H2        1.0  0.14408  0.47359  0.49128  1.0000
  H   H3        1.0  0.64408  0.02641  0.50872  1.0000
  H   H4        1.0  0.85592  0.97359  0.00872  1.0000
  H   H5        1.0  0.90767  0.54281  0.89216  1.0000
  H   H6        1.0  0.59234  0.45719  0.39216  1.0000
  H   H7        1.0  0.09234  0.04281  0.60784  1.0000
  H   H8        1.0  0.40766  0.95719  0.10784  1.0000
  H   H9        1.0  0.13645  0.51764  0.74615  1.0000
  H   H10       1.0  0.36355  0.48236  0.24615  1.0000
  H   H11       1.0  0.86355  0.01764  0.75385  1.0000
  H   H12       1.0  0.63645  0.98236  0.25385  1.0000
  H   H13       1.0  0.67636  0.50969  0.61239  1.0000
  H   H14       1.0  0.82363  0.49031  0.11239  1.0000
  H   H15       1.0  0.32363  0.00969  0.88762  1.0000
  H   H16       1.0  0.17637  0.99031  0.38762  1.0000
  H   H17       1.0  0.85493  0.38649  0.71466  1.0000
  H   H18       1.0  0.64507  0.61351  0.21466  1.0000
  H   H19       1.0  0.14507  0.88648  0.78534  1.0000
  H   H20       1.0  0.35493  0.11351  0.28534  1.0000
  H   H21       1.0  0.66726  0.31813  0.82781  1.0000
  H   H22       1.0  0.83274  0.68187  0.32781  1.0000
  H   H23       1.0  0.33274  0.81813  0.67219  1.0000
  H   H24       1.0  0.16726  0.18187  0.17219  1.0000
  H   H25       1.0  0.66024  0.68883  0.82274  1.0000
  H   H26       1.0  0.83977  0.31117  0.32273  1.0000
  H   H27       1.0  0.33976  0.18883  0.67726  1.0000
  H   H28       1.0  0.16023  0.81117  0.17727  1.0000
  H   H29       1.0  0.75757  0.79068  0.89553  1.0000
  H   H30       1.0  0.74243  0.20932  0.39553  1.0000
  H   H31       1.0  0.24243  0.29068  0.60447  1.0000
  H   H32       1.0  0.25757  0.70932  0.10447  1.0000
  H   H33       1.0  0.44754  0.78102  0.96110  1.0000
  H   H34       1.0  0.05247  0.21898  0.46110  1.0000
  H   H35       1.0  0.55246  0.28102  0.53890  1.0000
  H   H36       1.0  0.94753  0.71898  0.03890  1.0000
  H   H37       1.0  0.34219  0.69240  0.88412  1.0000
  H   H38       1.0  0.15781  0.30760  0.38412  1.0000
  H   H39       1.0  0.65781  0.19240  0.61588  1.0000
  H   H40       1.0  0.84219  0.80760  0.11589  1.0000
  C   C1        1.0  0.38929  0.41351  0.79471  1.0000
  C   C2        1.0  0.11071  0.58649  0.29471  1.0000
  C   C3        1.0  0.61071  0.91352  0.70529  1.0000
  C   C4        1.0  0.88929  0.08649  0.20529  1.0000
  C   C5        1.0  0.29312  0.48756  0.73897  1.0000
  C   C6        1.0  0.20689  0.51244  0.23897  1.0000
  C   C7        1.0  0.70688  0.98756  0.76103  1.0000
  C   C8        1.0  0.79312  0.01244  0.26103  1.0000
  C   C9        1.0  0.39458  0.51837  0.67260  1.0000
  C   C10       1.0  0.10542  0.48163  0.17260  1.0000
  C   C11       1.0  0.60542  0.01837  0.82740  1.0000
  C   C12       1.0  0.89458  0.98163  0.32740  1.0000
  C   C13       1.0  0.59801  0.48257  0.66375  1.0000
  C   C14       1.0  0.90199  0.51743  0.16375  1.0000
  C   C15       1.0  0.40199  0.98257  0.83625  1.0000
  C   C16       1.0  0.09801  0.01743  0.33625  1.0000
  C   C17       1.0  0.69640  0.41367  0.72064  1.0000
  C   C18       1.0  0.80360  0.58633  0.22064  1.0000
  C   C19       1.0  0.30360  0.91367  0.77936  1.0000
  C   C20       1.0  0.19640  0.08632  0.27936  1.0000
  C   C21       1.0  0.59183  0.37655  0.78513  1.0000
  C   C22       1.0  0.90817  0.62345  0.28513  1.0000
  C   C23       1.0  0.40817  0.87655  0.71487  1.0000
  C   C24       1.0  0.09183  0.12345  0.21487  1.0000
  C   C25       1.0  0.27255  0.36938  0.86197  1.0000
  C   C26       1.0  0.22745  0.63062  0.36197  1.0000
  C   C27       1.0  0.72745  0.86938  0.63803  1.0000
  C   C28       1.0  0.77255  0.13062  0.13803  1.0000
  C   C29       1.0  0.28346  0.58412  0.61007  1.0000
  C   C30       1.0  0.21654  0.41588  0.11007  1.0000
  C   C31       1.0  0.71654  0.08412  0.88993  1.0000
  C   C32       1.0  0.78346  0.91588  0.38993  1.0000
  C   C33       1.0  0.65617  0.51067  0.95747  1.0000
  C   C34       1.0  0.84383  0.48933  0.45747  1.0000
  C   C35       1.0  0.34383  0.01067  0.54253  1.0000
  C   C36       1.0  0.15617  0.98933  0.04253  1.0000
  C   C37       1.0  0.67613  0.69877  0.88380  1.0000
  C   C38       1.0  0.82387  0.30123  0.38380  1.0000
  C   C39       1.0  0.32387  0.19877  0.61620  1.0000
  C   C40       1.0  0.17613  0.80123  0.11620  1.0000
  C   C41       1.0  0.46790  0.69517  0.92421  1.0000
  C   C42       1.0  0.03211  0.30483  0.42421  1.0000
  C   C43       1.0  0.53210  0.19517  0.57579  1.0000
  C   C44       1.0  0.96789  0.80483  0.07579  1.0000
  N   N1        1.0  0.47811  0.57280  0.96735  1.0000
  N   N2        1.0  0.02189  0.42720  0.46735  1.0000
  N   N3        1.0  0.52189  0.07280  0.53265  1.0000
  N   N4        1.0  0.97811  0.92720  0.03265  1.0000
  N   N5        1.0  0.78195  0.58536  0.91559  1.0000
  N   N6        1.0  0.71805  0.41464  0.41559  1.0000
  N   N7        1.0  0.21805  0.08536  0.58441  1.0000
  N   N8        1.0  0.28195  0.91464  0.08441  1.0000
  O   O1        1.0  0.09682  0.41854  0.87271  1.0000
  O   O2        1.0  0.40318  0.58146  0.37270  1.0000
  O   O3        1.0  0.90318  0.91854  0.62729  1.0000
  O   O4        1.0  0.59682  0.08146  0.12730  1.0000
  O   O5        1.0  0.34727  0.28102  0.90449  1.0000
  O   O6        1.0  0.15273  0.71898  0.40449  1.0000
  O   O7        1.0  0.65273  0.78102  0.59551  1.0000
  O   O8        1.0  0.84727  0.21898  0.09551  1.0000
  O   O9        1.0  0.12857  0.65283  0.62592  1.0000
  O   O10       1.0  0.37143  0.34717  0.12592  1.0000
  O   O11       1.0  0.87143  0.15283  0.87408  1.0000
  O   O12       1.0  0.62857  0.84717  0.37408  1.0000
  O   O13       1.0  0.34655  0.56398  0.54302  1.0000
  O   O14       1.0  0.15345  0.43601  0.04302  1.0000
  O   O15       1.0  0.65345  0.06399  0.95698  1.0000
  O   O16       1.0  0.84655  0.93601  0.45698  1.0000
  O   O17       1.0  0.70182  0.39873  0.98518  1.0000
  O   O18       1.0  0.79818  0.60127  0.48518  1.0000
  O   O19       1.0  0.29818  0.89873  0.51482  1.0000
  O   O20       1.0  0.20182  0.10127  0.01482  1.0000
