data_image0
_chemical_formula_structural       Zn2H16C40N8O12F8
_chemical_formula_sum              "Zn2 H16 C40 N8 O12 F8"
_cell_length_a       5.34201
_cell_length_b       11.6326
_cell_length_c       16.6126
_cell_angle_alpha    95.6509
_cell_angle_beta     90
_cell_angle_gamma    90

_space_group_name_H-M_alt    "P 1"
_space_group_IT_number       1

loop_
  _space_group_symop_operation_xyz
  'x, y, z'

loop_
  _atom_site_type_symbol
  _atom_site_label
  _atom_site_symmetry_multiplicity
  _atom_site_fract_x
  _atom_site_fract_y
  _atom_site_fract_z
  _atom_site_occupancy
  Zn  Zn1       1.0  0.68949  0.50000  0.75000  1.0000
  Zn  Zn2       1.0  0.31051  0.50000  0.25000  1.0000
  H   H1        1.0  0.03969  0.31516  0.68283  1.0000
  H   H2        1.0  0.96032  0.31516  0.18283  1.0000
  H   H3        1.0  0.96031  0.68484  0.31717  1.0000
  H   H4        1.0  0.03969  0.68484  0.81717  1.0000
  H   H5        1.0  0.36437  0.18889  0.73792  1.0000
  H   H6        1.0  0.63563  0.18888  0.23792  1.0000
  H   H7        1.0  0.63564  0.81112  0.26208  1.0000
  H   H8        1.0  0.36437  0.81112  0.76208  1.0000
  H   H9        1.0  0.80512  0.43672  0.91402  1.0000
  H   H10       1.0  0.19488  0.43672  0.41402  1.0000
  H   H11       1.0  0.19486  0.56327  0.08598  1.0000
  H   H12       1.0  0.80513  0.56327  0.58598  1.0000
  H   H13       1.0  0.12091  0.31913  0.97850  1.0000
  H   H14       1.0  0.87910  0.31913  0.47850  1.0000
  H   H15       1.0  0.87909  0.68088  0.02150  1.0000
  H   H16       1.0  0.12091  0.68087  0.52150  1.0000
  C   C1        1.0  0.06472  0.31256  0.74760  1.0000
  C   C2        1.0  0.93528  0.31256  0.24759  1.0000
  C   C3        1.0  0.93527  0.68744  0.25241  1.0000
  C   C4        1.0  0.06473  0.68744  0.75241  1.0000
  C   C5        1.0  0.24401  0.24306  0.77852  1.0000
  C   C6        1.0  0.75599  0.24306  0.27853  1.0000
  C   C7        1.0  0.75600  0.75695  0.22148  1.0000
  C   C8        1.0  0.24400  0.75695  0.72147  1.0000
  C   C9        1.0  0.93221  0.38124  0.87685  1.0000
  C   C10       1.0  0.06779  0.38124  0.37685  1.0000
  C   C11       1.0  0.06778  0.61877  0.12315  1.0000
  C   C12       1.0  0.93222  0.61876  0.62315  1.0000
  C   C13       1.0  0.10720  0.31494  0.91286  1.0000
  C   C14       1.0  0.89280  0.31494  0.41286  1.0000
  C   C15       1.0  0.89280  0.68507  0.08715  1.0000
  C   C16       1.0  0.10720  0.68506  0.58714  1.0000
  C   C17       1.0  0.26926  0.24410  0.86299  1.0000
  C   C18       1.0  0.73074  0.24410  0.36299  1.0000
  C   C19       1.0  0.73075  0.75591  0.13701  1.0000
  C   C20       1.0  0.26926  0.75591  0.63701  1.0000
  C   C21       1.0  0.45319  0.17619  0.89662  1.0000
  C   C22       1.0  0.54681  0.17619  0.39662  1.0000
  C   C23       1.0  0.54683  0.82382  0.10339  1.0000
  C   C24       1.0  0.45317  0.82381  0.60339  1.0000
  C   C25       1.0  0.61489  0.11943  0.92602  1.0000
  C   C26       1.0  0.38511  0.11943  0.42602  1.0000
  C   C27       1.0  0.38510  0.88058  0.07398  1.0000
  C   C28       1.0  0.61490  0.88058  0.57397  1.0000
  C   C29       1.0  0.80386  0.05896  0.96251  1.0000
  C   C30       1.0  0.19614  0.05896  0.46251  1.0000
  C   C31       1.0  0.19614  0.94104  0.03750  1.0000
  C   C32       1.0  0.80386  0.94104  0.53749  1.0000
  C   C33       1.0  0.97255  0.98609  0.91644  1.0000
  C   C34       1.0  0.02744  0.98609  0.41643  1.0000
  C   C35       1.0  0.02743  0.01392  0.08357  1.0000
  C   C36       1.0  0.97256  0.01391  0.58356  1.0000
  C   C37       1.0  0.83661  0.07053  0.04715  1.0000
  C   C38       1.0  0.16338  0.07053  0.54715  1.0000
  C   C39       1.0  0.16338  0.92947  0.95285  1.0000
  C   C40       1.0  0.83662  0.92947  0.45285  1.0000
  N   N1        1.0  0.48957  0.39855  0.60241  1.0000
  N   N2        1.0  0.51043  0.39855  0.10241  1.0000
  N   N3        1.0  0.51043  0.60144  0.39758  1.0000
  N   N4        1.0  0.48957  0.60144  0.89758  1.0000
  N   N5        1.0  0.91090  0.38113  0.79581  1.0000
  N   N6        1.0  0.08910  0.38113  0.29581  1.0000
  N   N7        1.0  0.08909  0.61887  0.20419  1.0000
  N   N8        1.0  0.91091  0.61887  0.70419  1.0000
  O   O1        1.0  0.42239  0.47014  0.66503  1.0000
  O   O2        1.0  0.57761  0.47014  0.16503  1.0000
  O   O3        1.0  0.57760  0.52985  0.33497  1.0000
  O   O4        1.0  0.42240  0.52985  0.83497  1.0000
  O   O5        1.0  0.34130  0.38164  0.54522  1.0000
  O   O6        1.0  0.65870  0.38164  0.04522  1.0000
  O   O7        1.0  0.65872  0.61835  0.45478  1.0000
  O   O8        1.0  0.34129  0.61835  0.95478  1.0000
  O   O9        1.0  0.70152  0.35148  0.60443  1.0000
  O   O10       1.0  0.29848  0.35148  0.10443  1.0000
  O   O11       1.0  0.29849  0.64852  0.39557  1.0000
  O   O12       1.0  0.70151  0.64852  0.89557  1.0000
  F   F1        1.0  0.95026  0.97307  0.83525  1.0000
  F   F2        1.0  0.04974  0.97307  0.33524  1.0000
  F   F3        1.0  0.04972  0.02694  0.16476  1.0000
  F   F4        1.0  0.95027  0.02693  0.66475  1.0000
  F   F5        1.0  0.67492  0.13640  0.09381  1.0000
  F   F6        1.0  0.32507  0.13640  0.59381  1.0000
  F   F7        1.0  0.32507  0.86360  0.90619  1.0000
  F   F8        1.0  0.67493  0.86360  0.40618  1.0000
