data_image0
_chemical_formula_structural       Bi2H54C48S4O12
_chemical_formula_sum              "Bi2 H54 C48 S4 O12"
_cell_length_a       9.97222
_cell_length_b       10.9056
_cell_length_c       12.143
_cell_angle_alpha    114.701
_cell_angle_beta     89.9999
_cell_angle_gamma    89.9998

_space_group_name_H-M_alt    "P 1"
_space_group_IT_number       1

loop_
  _space_group_symop_operation_xyz
  'x, y, z'

loop_
  _atom_site_type_symbol
  _atom_site_label
  _atom_site_symmetry_multiplicity
  _atom_site_fract_x
  _atom_site_fract_y
  _atom_site_fract_z
  _atom_site_occupancy
  Bi  Bi1       1.0  0.69822  0.95520  0.00454  1.0000
  Bi  Bi2       1.0  0.19822  0.04479  0.99547  1.0000
  H   H1        1.0  0.79566  0.65606  0.96302  1.0000
  H   H2        1.0  0.29566  0.34393  0.03697  1.0000
  H   H3        1.0  0.69152  0.43400  0.92047  1.0000
  H   H4        1.0  0.19153  0.56599  0.07952  1.0000
  H   H5        1.0  0.44469  0.41008  0.91798  1.0000
  H   H6        1.0  0.94469  0.58992  0.08202  1.0000
  H   H7        1.0  0.29890  0.61109  0.95559  1.0000
  H   H8        1.0  0.79891  0.38892  0.04442  1.0000
  H   H9        1.0  0.40105  0.83081  0.99496  1.0000
  H   H10       1.0  0.90105  0.16920  0.00505  1.0000
  H   H11       1.0  0.91373  0.28856  0.57752  1.0000
  H   H12       1.0  0.41373  0.71144  0.42248  1.0000
  H   H13       1.0  0.16407  0.95653  0.54818  1.0000
  H   H14       1.0  0.66407  0.04348  0.45182  1.0000
  H   H15       1.0  0.81495  0.30468  0.42116  1.0000
  H   H16       1.0  0.31496  0.69531  0.57883  1.0000
  H   H17       1.0  0.75260  0.14854  0.31287  1.0000
  H   H18       1.0  0.25261  0.85146  0.68713  1.0000
  H   H19       1.0  0.88872  0.22697  0.27481  1.0000
  H   H20       1.0  0.38872  0.77302  0.72519  1.0000
  H   H21       1.0  0.04211  0.30132  0.75384  1.0000
  H   H22       1.0  0.54211  0.69868  0.24616  1.0000
  H   H23       1.0  0.16207  0.17355  0.73883  1.0000
  H   H24       1.0  0.66206  0.82645  0.26117  1.0000
  H   H25       1.0  0.99083  0.14725  0.75687  1.0000
  H   H26       1.0  0.49082  0.85276  0.24313  1.0000
  H   H27       1.0  0.08962  0.73303  0.25797  1.0000
  H   H28       1.0  0.58962  0.26697  0.74203  1.0000
  H   H29       1.0  0.20797  0.78421  0.37808  1.0000
  H   H30       1.0  0.70797  0.21579  0.62192  1.0000
  H   H31       1.0  0.23389  0.82273  0.25074  1.0000
  H   H32       1.0  0.73389  0.17727  0.74926  1.0000
  H   H33       1.0  0.16662  0.44086  0.57602  1.0000
  H   H34       1.0  0.66662  0.55914  0.42397  1.0000
  H   H35       1.0  0.95675  0.58063  0.34234  1.0000
  H   H36       1.0  0.45674  0.41938  0.65766  1.0000
  H   H37       1.0  0.15540  0.54067  0.77591  1.0000
  H   H38       1.0  0.65541  0.45933  0.22409  1.0000
  H   H39       1.0  0.01712  0.64605  0.85127  1.0000
  H   H40       1.0  0.51712  0.35395  0.14873  1.0000
  H   H41       1.0  0.16792  0.71857  0.83296  1.0000
  H   H42       1.0  0.66792  0.28143  0.16704  1.0000
  H   H43       1.0  0.07309  0.36938  0.25521  1.0000
  H   H44       1.0  0.57309  0.63063  0.74479  1.0000
  H   H45       1.0  0.13649  0.29263  0.34823  1.0000
  H   H46       1.0  0.63649  0.70738  0.65177  1.0000
  H   H47       1.0  0.23337  0.41363  0.32233  1.0000
  H   H48       1.0  0.73337  0.58637  0.67767  1.0000
  H   H49       1.0  0.82753  0.75913  0.40684  1.0000
  H   H50       1.0  0.32754  0.24088  0.59316  1.0000
  H   H51       1.0  0.87681  0.89994  0.54028  1.0000
  H   H52       1.0  0.37681  0.10007  0.45972  1.0000
  H   H53       1.0  0.74062  0.80147  0.54596  1.0000
  H   H54       1.0  0.24062  0.19853  0.45405  1.0000
  C   C1        1.0  0.60539  0.75823  0.98137  1.0000
  C   C2        1.0  0.10538  0.24176  0.01864  1.0000
  C   C3        1.0  0.68679  0.64665  0.96213  1.0000
  C   C4        1.0  0.18679  0.35334  0.03787  1.0000
  C   C5        1.0  0.62832  0.52179  0.93878  1.0000
  C   C6        1.0  0.12832  0.47821  0.06121  1.0000
  C   C7        1.0  0.48889  0.50815  0.93636  1.0000
  C   C8        1.0  0.98889  0.49185  0.06364  1.0000
  C   C9        1.0  0.40771  0.62010  0.95725  1.0000
  C   C10       1.0  0.90771  0.37990  0.04276  1.0000
  C   C11       1.0  0.46589  0.74472  0.97957  1.0000
  C   C12       1.0  0.96588  0.25529  0.02044  1.0000
  C   C13       1.0  0.00469  0.01188  0.32632  1.0000
  C   C14       1.0  0.50469  0.98812  0.67368  1.0000
  C   C15       1.0  0.93886  0.13510  0.39755  1.0000
  C   C16       1.0  0.43886  0.86490  0.60244  1.0000
  C   C17       1.0  0.96097  0.19178  0.52269  1.0000
  C   C18       1.0  0.46098  0.80822  0.47731  1.0000
  C   C19       1.0  0.04104  0.12984  0.57923  1.0000
  C   C20       1.0  0.54104  0.87016  0.42077  1.0000
  C   C21       1.0  0.10088  0.00679  0.50617  1.0000
  C   C22       1.0  0.60088  0.99321  0.49383  1.0000
  C   C23       1.0  0.08610  0.94543  0.37992  1.0000
  C   C24       1.0  0.58610  0.05456  0.62008  1.0000
  C   C25       1.0  0.84429  0.20775  0.34868  1.0000
  C   C26       1.0  0.34429  0.79225  0.65132  1.0000
  C   C27       1.0  0.06071  0.19210  0.71395  1.0000
  C   C28       1.0  0.56071  0.80791  0.28605  1.0000
  C   C29       1.0  0.15822  0.81402  0.31268  1.0000
  C   C30       1.0  0.65821  0.18597  0.68732  1.0000
  C   C31       1.0  0.97096  0.71907  0.64965  1.0000
  C   C32       1.0  0.47096  0.28093  0.35035  1.0000
  C   C33       1.0  0.05465  0.62322  0.66677  1.0000
  C   C34       1.0  0.55466  0.37677  0.33323  1.0000
  C   C35       1.0  0.10140  0.51444  0.56365  1.0000
  C   C36       1.0  0.60139  0.48556  0.43635  1.0000
  C   C37       1.0  0.07041  0.49881  0.44620  1.0000
  C   C38       1.0  0.57041  0.50119  0.55379  1.0000
  C   C39       1.0  0.98447  0.59285  0.43338  1.0000
  C   C40       1.0  0.48447  0.40715  0.56662  1.0000
  C   C41       1.0  0.93276  0.70397  0.53248  1.0000
  C   C42       1.0  0.43276  0.29603  0.46752  1.0000
  C   C43       1.0  0.10012  0.63236  0.78815  1.0000
  C   C44       1.0  0.60012  0.36763  0.21184  1.0000
  C   C45       1.0  0.13051  0.38741  0.33735  1.0000
  C   C46       1.0  0.63051  0.61259  0.66265  1.0000
  C   C47       1.0  0.83975  0.79604  0.50528  1.0000
  C   C48       1.0  0.33975  0.20396  0.49473  1.0000
  S   S1        1.0  0.98102  0.94314  0.16647  1.0000
  S   S2        1.0  0.48101  0.05686  0.83353  1.0000
  S   S3        1.0  0.92548  0.86618  0.78006  1.0000
  S   S4        1.0  0.42548  0.13382  0.21994  1.0000
  O   O1        1.0  0.83286  0.91803  0.14995  1.0000
  O   O2        1.0  0.33285  0.08196  0.85005  1.0000
  O   O3        1.0  0.01566  0.05343  0.12734  1.0000
  O   O4        1.0  0.51566  0.94657  0.87266  1.0000
  O   O5        1.0  0.06037  0.82281  0.10394  1.0000
  O   O6        1.0  0.56037  0.17719  0.89606  1.0000
  O   O7        1.0  0.86816  0.81799  0.86940  1.0000
  O   O8        1.0  0.36817  0.18201  0.13060  1.0000
  O   O9        1.0  0.05623  0.93579  0.82470  1.0000
  O   O10       1.0  0.55623  0.06420  0.17530  1.0000
  O   O11       1.0  0.83011  0.94999  0.75289  1.0000
  O   O12       1.0  0.33010  0.05002  0.24712  1.0000
