data_image0
_chemical_formula_structural       Cu5Mo6As6H40C28N24O30
_chemical_formula_sum              "Cu5 Mo6 As6 H40 C28 N24 O30"
_cell_length_a       9.28525
_cell_length_b       13.015
_cell_length_c       14.5757
_cell_angle_alpha    101.153
_cell_angle_beta     90.911
_cell_angle_gamma    109.896

_space_group_name_H-M_alt    "P 1"
_space_group_IT_number       1

loop_
  _space_group_symop_operation_xyz
  'x, y, z'

loop_
  _atom_site_type_symbol
  _atom_site_label
  _atom_site_symmetry_multiplicity
  _atom_site_fract_x
  _atom_site_fract_y
  _atom_site_fract_z
  _atom_site_occupancy
  Cu  Cu1       1.0  0.59809  0.42541  0.45703  1.0000
  Cu  Cu2       1.0  0.40191  0.57459  0.54297  1.0000
  Cu  Cu3       1.0  0.82409  0.88707  0.91621  1.0000
  Cu  Cu4       1.0  0.17591  0.11294  0.08380  1.0000
  Cu  Cu5       1.0  1.00000  1.00000  0.50000  1.0000
  Mo  Mo1       1.0  0.86103  0.72332  0.50320  1.0000
  Mo  Mo2       1.0  0.13896  0.27667  0.49680  1.0000
  Mo  Mo3       1.0  0.90849  0.80449  0.29581  1.0000
  Mo  Mo4       1.0  0.09150  0.19551  0.70419  1.0000
  Mo  Mo5       1.0  0.97226  0.92098  0.70457  1.0000
  Mo  Mo6       1.0  0.02774  0.07902  0.29543  1.0000
  As  As1       1.0  0.66733  0.96758  0.36910  1.0000
  As  As2       1.0  0.33267  0.03241  0.63090  1.0000
  As  As3       1.0  0.75711  0.16306  0.56378  1.0000
  As  As4       1.0  0.24289  0.83694  0.43622  1.0000
  As  As5       1.0  0.63612  0.89402  0.57372  1.0000
  As  As6       1.0  0.36388  0.10598  0.42628  1.0000
  H   H1        1.0  0.90374  0.51658  0.59796  1.0000
  H   H2        1.0  0.09626  0.48343  0.40204  1.0000
  H   H3        1.0  0.75298  0.04501  0.09041  1.0000
  H   H4        1.0  0.24703  0.95500  0.90960  1.0000
  H   H5        1.0  0.34520  0.32413  0.28287  1.0000
  H   H6        1.0  0.65480  0.67588  0.71713  1.0000
  H   H7        1.0  0.11627  0.22174  0.91934  1.0000
  H   H8        1.0  0.88374  0.77827  0.08065  1.0000
  H   H9        1.0  0.44477  0.32155  0.62530  1.0000
  H   H10       1.0  0.55523  0.67845  0.37470  1.0000
  H   H11       1.0  0.47136  0.31381  0.79222  1.0000
  H   H12       1.0  0.52864  0.68619  0.20778  1.0000
  H   H13       1.0  0.63238  0.41777  0.86327  1.0000
  H   H14       1.0  0.36763  0.58223  0.13673  1.0000
  H   H15       1.0  0.65487  0.19985  0.75031  1.0000
  H   H16       1.0  0.34513  0.80014  0.24969  1.0000
  H   H17       1.0  0.77724  0.28998  0.84837  1.0000
  H   H18       1.0  0.22275  0.71001  0.15163  1.0000
  H   H19       1.0  0.52989  0.23896  0.94314  1.0000
  H   H20       1.0  0.47011  0.76104  0.05686  1.0000
  H   H21       1.0  0.44297  0.13161  0.84353  1.0000
  H   H22       1.0  0.55703  0.86839  0.15646  1.0000
  H   H23       1.0  0.68797  0.02208  0.79862  1.0000
  H   H24       1.0  0.31203  0.97792  0.20138  1.0000
  H   H25       1.0  0.80466  0.54520  0.30956  1.0000
  H   H26       1.0  0.19534  0.45480  0.69044  1.0000
  H   H27       1.0  0.79499  0.59066  0.13737  1.0000
  H   H28       1.0  0.20502  0.40934  0.86263  1.0000
  H   H29       1.0  0.62170  0.51263  0.06374  1.0000
  H   H30       1.0  0.37830  0.48737  0.93626  1.0000
  H   H31       1.0  0.81333  0.43936  0.99816  1.0000
  H   H32       1.0  0.18667  0.56064  0.00184  1.0000
  H   H33       1.0  0.69857  0.33790  0.05839  1.0000
  H   H34       1.0  0.30143  0.66210  0.94161  1.0000
  H   H35       1.0  0.01166  0.51938  0.13372  1.0000
  H   H36       1.0  0.98834  0.48062  0.86628  1.0000
  H   H37       1.0  0.90088  0.42399  0.19817  1.0000
  H   H38       1.0  0.09912  0.57601  0.80183  1.0000
  H   H39       1.0  0.02820  0.28257  0.20409  1.0000
  H   H40       1.0  0.97181  0.71743  0.79591  1.0000
  C   C1        1.0  0.80181  0.46983  0.62766  1.0000
  C   C2        1.0  0.19819  0.53017  0.37234  1.0000
  C   C3        1.0  0.71629  0.05663  0.02298  1.0000
  C   C4        1.0  0.28372  0.94337  0.97702  1.0000
  C   C5        1.0  0.45347  0.37992  0.26627  1.0000
  C   C6        1.0  0.54652  0.62009  0.73372  1.0000
  C   C7        1.0  0.07945  0.25560  0.98515  1.0000
  C   C8        1.0  0.92055  0.74440  0.01486  1.0000
  C   C9        1.0  0.56747  0.36975  0.63826  1.0000
  C   C10       1.0  0.43253  0.63025  0.36174  1.0000
  C   C11       1.0  0.59772  0.34691  0.80269  1.0000
  C   C12       1.0  0.40228  0.65309  0.19731  1.0000
  C   C13       1.0  0.65710  0.25483  0.81818  1.0000
  C   C14       1.0  0.34289  0.74517  0.18182  1.0000
  C   C15       1.0  0.55425  0.18598  0.88167  1.0000
  C   C16       1.0  0.44574  0.81402  0.11832  1.0000
  C   C17       1.0  0.68411  0.04266  0.87411  1.0000
  C   C18       1.0  0.31589  0.95734  0.12589  1.0000
  C   C19       1.0  0.68838  0.49125  0.28225  1.0000
  C   C20       1.0  0.31162  0.50874  0.71775  1.0000
  C   C21       1.0  0.70804  0.50726  0.11296  1.0000
  C   C22       1.0  0.29196  0.49274  0.88704  1.0000
  C   C23       1.0  0.78143  0.42349  0.06757  1.0000
  C   C24       1.0  0.21857  0.57651  0.93243  1.0000
  C   C25       1.0  0.92518  0.43552  0.12676  1.0000
  C   C26       1.0  0.07482  0.56448  0.87324  1.0000
  C   C27       1.0  0.03756  0.28511  0.13049  1.0000
  C   C28       1.0  0.96245  0.71490  0.86952  1.0000
  N   N1        1.0  0.65985  0.42002  0.57806  1.0000
  N   N2        1.0  0.34015  0.57999  0.42194  1.0000
  N   N3        1.0  0.65114  0.38970  0.71972  1.0000
  N   N4        1.0  0.34886  0.61030  0.28028  1.0000
  N   N5        1.0  0.62704  0.11807  0.91978  1.0000
  N   N6        1.0  0.37296  0.88194  0.08022  1.0000
  N   N7        1.0  0.74148  0.00157  0.93795  1.0000
  N   N8        1.0  0.25853  0.99844  0.06205  1.0000
  N   N9        1.0  0.57924  0.43318  0.33055  1.0000
  N   N10       1.0  0.42076  0.56682  0.66945  1.0000
  N   N11       1.0  0.62888  0.47335  0.19355  1.0000
  N   N12       1.0  0.37112  0.52665  0.80645  1.0000
  N   N13       1.0  0.09392  0.22221  0.06740  1.0000
  N   N14       1.0  0.90609  0.77779  0.93260  1.0000
  N   N15       1.0  0.99217  0.35224  0.08713  1.0000
  N   N16       1.0  0.00783  0.64776  0.91287  1.0000
  N   N17       1.0  0.80061  0.45342  0.71464  1.0000
  N   N18       1.0  0.19938  0.54658  0.28536  1.0000
  N   N19       1.0  0.64700  0.12849  0.01458  1.0000
  N   N20       1.0  0.35300  0.87152  0.98542  1.0000
  N   N21       1.0  0.47970  0.40201  0.18181  1.0000
  N   N22       1.0  0.52031  0.59800  0.81819  1.0000
  N   N23       1.0  0.01803  0.33494  0.99460  1.0000
  N   N24       1.0  0.98197  0.66506  0.00540  1.0000
  O   O1        1.0  0.69060  0.10402  0.43973  1.0000
  O   O2        1.0  0.30939  0.89597  0.56027  1.0000
  O   O3        1.0  0.94861  0.15725  0.56290  1.0000
  O   O4        1.0  0.05139  0.84275  0.43710  1.0000
  O   O5        1.0  0.66552  0.04168  0.61665  1.0000
  O   O6        1.0  0.33448  0.95832  0.38335  1.0000
  O   O7        1.0  0.58272  0.87699  0.44954  1.0000
  O   O8        1.0  0.41728  0.12301  0.55046  1.0000
  O   O9        1.0  0.86484  0.97002  0.38167  1.0000
  O   O10       1.0  0.13516  0.02997  0.61833  1.0000
  O   O11       1.0  0.83538  0.90125  0.56416  1.0000
  O   O12       1.0  0.16462  0.09874  0.43584  1.0000
  O   O13       1.0  0.12673  0.94476  0.78374  1.0000
  O   O14       1.0  0.87327  0.05524  0.21626  1.0000
  O   O15       1.0  0.80884  0.85476  0.75830  1.0000
  O   O16       1.0  0.19116  0.14524  0.24170  1.0000
  O   O17       1.0  0.98976  0.79429  0.61886  1.0000
  O   O18       1.0  0.01023  0.20570  0.38114  1.0000
  O   O19       1.0  0.68161  0.66486  0.54363  1.0000
  O   O20       1.0  0.31839  0.33514  0.45637  1.0000
  O   O21       1.0  0.92361  0.61278  0.46720  1.0000
  O   O22       1.0  0.07639  0.38722  0.53280  1.0000
  O   O23       1.0  0.77729  0.73726  0.38570  1.0000
  O   O24       1.0  0.22270  0.26274  0.61430  1.0000
  O   O25       1.0  0.98717  0.70516  0.25025  1.0000
  O   O26       1.0  0.01283  0.29484  0.74975  1.0000
  O   O27       1.0  0.75879  0.78430  0.21325  1.0000
  O   O28       1.0  0.24121  0.21570  0.78675  1.0000
  O   O29       1.0  0.05717  0.93561  0.26982  1.0000
  O   O30       1.0  0.94283  0.06439  0.73018  1.0000
