data_image0
_chemical_formula_structural       Dy4H24C24N36
_chemical_formula_sum              "Dy4 H24 C24 N36"
_cell_length_a       9.30954
_cell_length_b       9.30954
_cell_length_c       12.621
_cell_angle_alpha    91.6969
_cell_angle_beta     91.6971
_cell_angle_gamma    119.265

_space_group_name_H-M_alt    "P 1"
_space_group_IT_number       1

loop_
  _space_group_symop_operation_xyz
  'x, y, z'

loop_
  _atom_site_type_symbol
  _atom_site_label
  _atom_site_symmetry_multiplicity
  _atom_site_fract_x
  _atom_site_fract_y
  _atom_site_fract_z
  _atom_site_occupancy
  Dy  Dy1       1.0  0.52051  0.25777  0.42805  1.0000
  Dy  Dy2       1.0  0.74223  0.47949  0.07195  1.0000
  Dy  Dy3       1.0  0.47949  0.74223  0.57195  1.0000
  Dy  Dy4       1.0  0.25777  0.52051  0.92805  1.0000
  H   H1        1.0  0.22352  0.29312  0.23455  1.0000
  H   H2        1.0  0.70688  0.77648  0.26545  1.0000
  H   H3        1.0  0.77647  0.70687  0.76546  1.0000
  H   H4        1.0  0.29312  0.22352  0.73454  1.0000
  H   H5        1.0  0.13262  0.53514  0.27127  1.0000
  H   H6        1.0  0.46486  0.86738  0.22873  1.0000
  H   H7        1.0  0.86738  0.46486  0.72873  1.0000
  H   H8        1.0  0.53514  0.13262  0.77127  1.0000
  H   H9        1.0  0.90103  0.25385  0.33691  1.0000
  H   H10       1.0  0.74615  0.09897  0.16308  1.0000
  H   H11       1.0  0.09897  0.74615  0.66309  1.0000
  H   H12       1.0  0.25385  0.90103  0.83691  1.0000
  H   H13       1.0  0.97111  0.00804  0.40025  1.0000
  H   H14       1.0  0.99196  0.02889  0.09975  1.0000
  H   H15       1.0  0.02890  0.99196  0.59975  1.0000
  H   H16       1.0  0.00804  0.97111  0.90025  1.0000
  H   H17       1.0  0.15825  0.88937  0.16040  1.0000
  H   H18       1.0  0.11063  0.84175  0.33960  1.0000
  H   H19       1.0  0.84175  0.11063  0.83960  1.0000
  H   H20       1.0  0.88937  0.15825  0.66040  1.0000
  H   H21       1.0  0.36031  0.08170  0.00409  1.0000
  H   H22       1.0  0.91829  0.63969  0.49591  1.0000
  H   H23       1.0  0.63969  0.91830  0.99591  1.0000
  H   H24       1.0  0.08170  0.36031  0.50409  1.0000
  C   C1        1.0  0.26452  0.38978  0.29661  1.0000
  C   C2        1.0  0.61022  0.73548  0.20338  1.0000
  C   C3        1.0  0.73548  0.61022  0.70338  1.0000
  C   C4        1.0  0.38978  0.26452  0.79661  1.0000
  C   C5        1.0  0.21900  0.50995  0.31511  1.0000
  C   C6        1.0  0.49005  0.78100  0.18489  1.0000
  C   C7        1.0  0.78100  0.49005  0.68489  1.0000
  C   C8        1.0  0.50995  0.21900  0.81511  1.0000
  C   C9        1.0  0.83065  0.14641  0.38229  1.0000
  C   C10       1.0  0.85359  0.16935  0.11771  1.0000
  C   C11       1.0  0.16936  0.85359  0.61771  1.0000
  C   C12       1.0  0.14641  0.83065  0.88229  1.0000
  C   C13       1.0  0.86533  0.02407  0.41385  1.0000
  C   C14       1.0  0.97593  0.13467  0.08615  1.0000
  C   C15       1.0  0.13468  0.97593  0.58615  1.0000
  C   C16       1.0  0.02407  0.86532  0.91385  1.0000
  C   C17       1.0  0.27582  0.00243  0.16767  1.0000
  C   C18       1.0  0.99757  0.72418  0.33233  1.0000
  C   C19       1.0  0.72418  0.99757  0.83233  1.0000
  C   C20       1.0  0.00243  0.27582  0.66767  1.0000
  C   C21       1.0  0.37705  0.09724  0.08960  1.0000
  C   C22       1.0  0.90276  0.62295  0.41040  1.0000
  C   C23       1.0  0.62294  0.90276  0.91040  1.0000
  C   C24       1.0  0.09724  0.37705  0.58960  1.0000
  N   N1        1.0  0.38064  0.41235  0.37267  1.0000
  N   N2        1.0  0.58765  0.61936  0.12733  1.0000
  N   N3        1.0  0.61936  0.58765  0.62733  1.0000
  N   N4        1.0  0.41235  0.38064  0.87267  1.0000
  N   N5        1.0  0.40549  0.54234  0.43407  1.0000
  N   N6        1.0  0.45766  0.59451  0.06593  1.0000
  N   N7        1.0  0.59451  0.45766  0.56593  1.0000
  N   N8        1.0  0.54234  0.40549  0.93407  1.0000
  N   N9        1.0  0.30963  0.60340  0.40171  1.0000
  N   N10       1.0  0.39660  0.69038  0.09829  1.0000
  N   N11       1.0  0.69037  0.39660  0.59829  1.0000
  N   N12       1.0  0.60340  0.30963  0.90171  1.0000
  N   N13       1.0  0.68351  0.11286  0.42045  1.0000
  N   N14       1.0  0.88714  0.31649  0.07955  1.0000
  N   N15       1.0  0.31649  0.88714  0.57955  1.0000
  N   N16       1.0  0.11286  0.68351  0.92045  1.0000
  N   N17       1.0  0.63099  0.97507  0.47300  1.0000
  N   N18       1.0  0.02493  0.36901  0.02700  1.0000
  N   N19       1.0  0.36901  0.02493  0.52700  1.0000
  N   N20       1.0  0.97507  0.63099  0.97300  1.0000
  N   N21       1.0  0.73793  0.91883  0.47064  1.0000
  N   N22       1.0  0.08117  0.26207  0.02937  1.0000
  N   N23       1.0  0.26207  0.08117  0.52937  1.0000
  N   N24       1.0  0.91883  0.73793  0.97064  1.0000
  N   N25       1.0  0.35332  0.07457  0.26282  1.0000
  N   N26       1.0  0.92543  0.64668  0.23718  1.0000
  N   N27       1.0  0.64667  0.92543  0.73718  1.0000
  N   N28       1.0  0.07457  0.35332  0.76282  1.0000
  N   N29       1.0  0.49565  0.20709  0.24278  1.0000
  N   N30       1.0  0.79291  0.50435  0.25723  1.0000
  N   N31       1.0  0.50435  0.79291  0.75723  1.0000
  N   N32       1.0  0.20709  0.49565  0.74277  1.0000
  N   N33       1.0  0.51330  0.22467  0.13855  1.0000
  N   N34       1.0  0.77533  0.48670  0.36145  1.0000
  N   N35       1.0  0.48670  0.77533  0.86145  1.0000
  N   N36       1.0  0.22467  0.51330  0.63855  1.0000
