data_image0
_chemical_formula_structural       Ho4H24C24N36
_chemical_formula_sum              "Ho4 H24 C24 N36"
_cell_length_a       9.26005
_cell_length_b       9.26006
_cell_length_c       12.6005
_cell_angle_alpha    91.8325
_cell_angle_beta     91.8328
_cell_angle_gamma    119.077

_space_group_name_H-M_alt    "P 1"
_space_group_IT_number       1

loop_
  _space_group_symop_operation_xyz
  'x, y, z'

loop_
  _atom_site_type_symbol
  _atom_site_label
  _atom_site_symmetry_multiplicity
  _atom_site_fract_x
  _atom_site_fract_y
  _atom_site_fract_z
  _atom_site_occupancy
  Ho  Ho1       1.0  0.52390  0.25900  0.42800  1.0000
  Ho  Ho2       1.0  0.74100  0.47610  0.07200  1.0000
  Ho  Ho3       1.0  0.47610  0.74100  0.57200  1.0000
  Ho  Ho4       1.0  0.25900  0.52390  0.92800  1.0000
  H   H1        1.0  0.23066  0.29353  0.23187  1.0000
  H   H2        1.0  0.70647  0.76934  0.26813  1.0000
  H   H3        1.0  0.76934  0.70647  0.76813  1.0000
  H   H4        1.0  0.29353  0.23066  0.73187  1.0000
  H   H5        1.0  0.13188  0.53157  0.26763  1.0000
  H   H6        1.0  0.46844  0.86812  0.23237  1.0000
  H   H7        1.0  0.86812  0.46843  0.73237  1.0000
  H   H8        1.0  0.53156  0.13188  0.76763  1.0000
  H   H9        1.0  0.90197  0.24647  0.33654  1.0000
  H   H10       1.0  0.75353  0.09803  0.16346  1.0000
  H   H11       1.0  0.09803  0.75353  0.66346  1.0000
  H   H12       1.0  0.24647  0.90197  0.83654  1.0000
  H   H13       1.0  0.96667  0.99540  0.39920  1.0000
  H   H14       1.0  0.00461  0.03333  0.10080  1.0000
  H   H15       1.0  0.03333  0.00461  0.60080  1.0000
  H   H16       1.0  0.99539  0.96667  0.89920  1.0000
  H   H17       1.0  0.16260  0.88117  0.15982  1.0000
  H   H18       1.0  0.11883  0.83740  0.34018  1.0000
  H   H19       1.0  0.83740  0.11883  0.84018  1.0000
  H   H20       1.0  0.88116  0.16260  0.65982  1.0000
  H   H21       1.0  0.36756  0.07268  0.00383  1.0000
  H   H22       1.0  0.92732  0.63243  0.49617  1.0000
  H   H23       1.0  0.63243  0.92732  0.99617  1.0000
  H   H24       1.0  0.07268  0.36756  0.50383  1.0000
  C   C1        1.0  0.26819  0.38929  0.29479  1.0000
  C   C2        1.0  0.61071  0.73180  0.20521  1.0000
  C   C3        1.0  0.73181  0.61071  0.70521  1.0000
  C   C4        1.0  0.38929  0.26820  0.79479  1.0000
  C   C5        1.0  0.21877  0.50757  0.31283  1.0000
  C   C6        1.0  0.49243  0.78123  0.18717  1.0000
  C   C7        1.0  0.78123  0.49243  0.68717  1.0000
  C   C8        1.0  0.50757  0.21877  0.81283  1.0000
  C   C9        1.0  0.83047  0.13980  0.38235  1.0000
  C   C10       1.0  0.86020  0.16953  0.11765  1.0000
  C   C11       1.0  0.16953  0.86020  0.61765  1.0000
  C   C12       1.0  0.13980  0.83047  0.88235  1.0000
  C   C13       1.0  0.86249  0.01482  0.41358  1.0000
  C   C14       1.0  0.98519  0.13751  0.08642  1.0000
  C   C15       1.0  0.13751  0.98519  0.58642  1.0000
  C   C16       1.0  0.01481  0.86249  0.91358  1.0000
  C   C17       1.0  0.27926  0.99607  0.16733  1.0000
  C   C18       1.0  0.00392  0.72074  0.33267  1.0000
  C   C19       1.0  0.72074  0.00392  0.83267  1.0000
  C   C20       1.0  0.99607  0.27926  0.66733  1.0000
  C   C21       1.0  0.38175  0.09037  0.08955  1.0000
  C   C22       1.0  0.90963  0.61824  0.41045  1.0000
  C   C23       1.0  0.61825  0.90963  0.91045  1.0000
  C   C24       1.0  0.09037  0.38175  0.58955  1.0000
  N   N1        1.0  0.38331  0.41270  0.37250  1.0000
  N   N2        1.0  0.58730  0.61669  0.12750  1.0000
  N   N3        1.0  0.61669  0.58730  0.62750  1.0000
  N   N4        1.0  0.41270  0.38331  0.87250  1.0000
  N   N5        1.0  0.40371  0.54132  0.43459  1.0000
  N   N6        1.0  0.45868  0.59629  0.06541  1.0000
  N   N7        1.0  0.59629  0.45868  0.56541  1.0000
  N   N8        1.0  0.54132  0.40371  0.93459  1.0000
  N   N9        1.0  0.30618  0.60090  0.40096  1.0000
  N   N10       1.0  0.39910  0.69382  0.09904  1.0000
  N   N11       1.0  0.69382  0.39910  0.59904  1.0000
  N   N12       1.0  0.60090  0.30618  0.90096  1.0000
  N   N13       1.0  0.68427  0.11013  0.42113  1.0000
  N   N14       1.0  0.88987  0.31572  0.07887  1.0000
  N   N15       1.0  0.31572  0.88987  0.57887  1.0000
  N   N16       1.0  0.11013  0.68428  0.92113  1.0000
  N   N17       1.0  0.62974  0.97180  0.47369  1.0000
  N   N18       1.0  0.02820  0.37026  0.02632  1.0000
  N   N19       1.0  0.37026  0.02820  0.52631  1.0000
  N   N20       1.0  0.97180  0.62974  0.97369  1.0000
  N   N21       1.0  0.73444  0.91172  0.47078  1.0000
  N   N22       1.0  0.08829  0.26556  0.02922  1.0000
  N   N23       1.0  0.26557  0.08829  0.52922  1.0000
  N   N24       1.0  0.91172  0.73444  0.97078  1.0000
  N   N25       1.0  0.35441  0.07147  0.26288  1.0000
  N   N26       1.0  0.92853  0.64559  0.23712  1.0000
  N   N27       1.0  0.64559  0.92853  0.73712  1.0000
  N   N28       1.0  0.07147  0.35441  0.76288  1.0000
  N   N29       1.0  0.49630  0.20525  0.24339  1.0000
  N   N30       1.0  0.79475  0.50370  0.25661  1.0000
  N   N31       1.0  0.50370  0.79475  0.75661  1.0000
  N   N32       1.0  0.20525  0.49630  0.74339  1.0000
  N   N33       1.0  0.51619  0.22070  0.13903  1.0000
  N   N34       1.0  0.77930  0.48381  0.36097  1.0000
  N   N35       1.0  0.48381  0.77930  0.86097  1.0000
  N   N36       1.0  0.22070  0.51619  0.63903  1.0000
