data_image0
_chemical_formula_structural       Gd4H24C24N36
_chemical_formula_sum              "Gd4 H24 C24 N36"
_cell_length_a       9.372
_cell_length_b       9.37201
_cell_length_c       12.6858
_cell_angle_alpha    91.7132
_cell_angle_beta     91.7132
_cell_angle_gamma    119.489

_space_group_name_H-M_alt    "P 1"
_space_group_IT_number       1

loop_
  _space_group_symop_operation_xyz
  'x, y, z'

loop_
  _atom_site_type_symbol
  _atom_site_label
  _atom_site_symmetry_multiplicity
  _atom_site_fract_x
  _atom_site_fract_y
  _atom_site_fract_z
  _atom_site_occupancy
  Gd  Gd1       1.0  0.51952  0.25739  0.42841  1.0000
  Gd  Gd2       1.0  0.74261  0.48048  0.07159  1.0000
  Gd  Gd3       1.0  0.48048  0.74261  0.57159  1.0000
  Gd  Gd4       1.0  0.25739  0.51952  0.92841  1.0000
  H   H1        1.0  0.22191  0.29379  0.23381  1.0000
  H   H2        1.0  0.70621  0.77809  0.26619  1.0000
  H   H3        1.0  0.77809  0.70621  0.76619  1.0000
  H   H4        1.0  0.29379  0.22191  0.73381  1.0000
  H   H5        1.0  0.13326  0.53506  0.27137  1.0000
  H   H6        1.0  0.46494  0.86674  0.22864  1.0000
  H   H7        1.0  0.86674  0.46494  0.72864  1.0000
  H   H8        1.0  0.53506  0.13326  0.77136  1.0000
  H   H9        1.0  0.09887  0.74522  0.66337  1.0000
  H   H10       1.0  0.25478  0.90113  0.83663  1.0000
  H   H11       1.0  0.90113  0.25478  0.33663  1.0000
  H   H12       1.0  0.74522  0.09887  0.16337  1.0000
  H   H13       1.0  0.02855  0.98853  0.59961  1.0000
  H   H14       1.0  0.01147  0.97145  0.90039  1.0000
  H   H15       1.0  0.97145  0.01147  0.40039  1.0000
  H   H16       1.0  0.98853  0.02855  0.09961  1.0000
  H   H17       1.0  0.10987  0.84326  0.33952  1.0000
  H   H18       1.0  0.15674  0.89013  0.16048  1.0000
  H   H19       1.0  0.89013  0.15674  0.66048  1.0000
  H   H20       1.0  0.84326  0.10987  0.83952  1.0000
  H   H21       1.0  0.91893  0.64141  0.49530  1.0000
  H   H22       1.0  0.35860  0.08107  0.00470  1.0000
  H   H23       1.0  0.08108  0.35860  0.50470  1.0000
  H   H24       1.0  0.64141  0.91892  0.99530  1.0000
  C   C1        1.0  0.26337  0.38986  0.29578  1.0000
  C   C2        1.0  0.61014  0.73663  0.20422  1.0000
  C   C3        1.0  0.73663  0.61014  0.70422  1.0000
  C   C4        1.0  0.38986  0.26337  0.79578  1.0000
  C   C5        1.0  0.21896  0.50966  0.31476  1.0000
  C   C6        1.0  0.49034  0.78104  0.18524  1.0000
  C   C7        1.0  0.78104  0.49034  0.68525  1.0000
  C   C8        1.0  0.50965  0.21896  0.81475  1.0000
  C   C9        1.0  0.16873  0.85211  0.61811  1.0000
  C   C10       1.0  0.14789  0.83127  0.88189  1.0000
  C   C11       1.0  0.83127  0.14789  0.38189  1.0000
  C   C12       1.0  0.85211  0.16873  0.11811  1.0000
  C   C13       1.0  0.13405  0.97323  0.58638  1.0000
  C   C14       1.0  0.02677  0.86595  0.91362  1.0000
  C   C15       1.0  0.86595  0.02677  0.41362  1.0000
  C   C16       1.0  0.97323  0.13405  0.08638  1.0000
  C   C17       1.0  0.99770  0.72552  0.33248  1.0000
  C   C18       1.0  0.27448  0.00230  0.16752  1.0000
  C   C19       1.0  0.00230  0.27448  0.66752  1.0000
  C   C20       1.0  0.72552  0.99770  0.83248  1.0000
  C   C21       1.0  0.90349  0.62457  0.41021  1.0000
  C   C22       1.0  0.37543  0.09651  0.08979  1.0000
  C   C23       1.0  0.09651  0.37543  0.58979  1.0000
  C   C24       1.0  0.62457  0.90349  0.91021  1.0000
  N   N1        1.0  0.37894  0.41184  0.37125  1.0000
  N   N2        1.0  0.58817  0.62106  0.12875  1.0000
  N   N3        1.0  0.62106  0.58817  0.62875  1.0000
  N   N4        1.0  0.41183  0.37894  0.87125  1.0000
  N   N5        1.0  0.40450  0.54093  0.43282  1.0000
  N   N6        1.0  0.45907  0.59550  0.06718  1.0000
  N   N7        1.0  0.59550  0.45907  0.56718  1.0000
  N   N8        1.0  0.54093  0.40450  0.93282  1.0000
  N   N9        1.0  0.30968  0.60221  0.40102  1.0000
  N   N10       1.0  0.39779  0.69032  0.09898  1.0000
  N   N11       1.0  0.69032  0.39779  0.59898  1.0000
  N   N12       1.0  0.60220  0.30968  0.90102  1.0000
  N   N13       1.0  0.31535  0.88620  0.58037  1.0000
  N   N14       1.0  0.11380  0.68465  0.91963  1.0000
  N   N15       1.0  0.68465  0.11380  0.41963  1.0000
  N   N16       1.0  0.88620  0.31534  0.08037  1.0000
  N   N17       1.0  0.36763  0.02308  0.52797  1.0000
  N   N18       1.0  0.97692  0.63237  0.97204  1.0000
  N   N19       1.0  0.63237  0.97692  0.47204  1.0000
  N   N20       1.0  0.02308  0.36763  0.02797  1.0000
  N   N21       1.0  0.26095  0.07830  0.52998  1.0000
  N   N22       1.0  0.92170  0.73905  0.97002  1.0000
  N   N23       1.0  0.73905  0.92170  0.47002  1.0000
  N   N24       1.0  0.07829  0.26095  0.02998  1.0000
  N   N25       1.0  0.92577  0.64774  0.23787  1.0000
  N   N26       1.0  0.35226  0.07423  0.26213  1.0000
  N   N27       1.0  0.07423  0.35226  0.76213  1.0000
  N   N28       1.0  0.64774  0.92577  0.73787  1.0000
  N   N29       1.0  0.79409  0.50562  0.25790  1.0000
  N   N30       1.0  0.49438  0.20591  0.24210  1.0000
  N   N31       1.0  0.20591  0.49438  0.74210  1.0000
  N   N32       1.0  0.50562  0.79409  0.75790  1.0000
  N   N33       1.0  0.77684  0.48822  0.36161  1.0000
  N   N34       1.0  0.51178  0.22316  0.13839  1.0000
  N   N35       1.0  0.22316  0.51178  0.63839  1.0000
  N   N36       1.0  0.48822  0.77684  0.86161  1.0000
