data_image0
_chemical_formula_structural       Lu4H24C24N36
_chemical_formula_sum              "Lu4 H24 C24 N36"
_cell_length_a       9.15253
_cell_length_b       9.15255
_cell_length_c       12.4565
_cell_angle_alpha    91.3323
_cell_angle_beta     91.3318
_cell_angle_gamma    118.677

_space_group_name_H-M_alt    "P 1"
_space_group_IT_number       1

loop_
  _space_group_symop_operation_xyz
  'x, y, z'

loop_
  _atom_site_type_symbol
  _atom_site_label
  _atom_site_symmetry_multiplicity
  _atom_site_fract_x
  _atom_site_fract_y
  _atom_site_fract_z
  _atom_site_occupancy
  Lu  Lu1       1.0  0.52011  0.25861  0.42783  1.0000
  Lu  Lu2       1.0  0.74139  0.47989  0.07217  1.0000
  Lu  Lu3       1.0  0.47989  0.74139  0.57217  1.0000
  Lu  Lu4       1.0  0.25861  0.52011  0.92783  1.0000
  H   H1        1.0  0.21895  0.29263  0.23813  1.0000
  H   H2        1.0  0.70737  0.78106  0.26187  1.0000
  H   H3        1.0  0.78106  0.70737  0.76187  1.0000
  H   H4        1.0  0.29263  0.21895  0.73813  1.0000
  H   H5        1.0  0.12900  0.54103  0.27433  1.0000
  H   H6        1.0  0.45897  0.87100  0.22566  1.0000
  H   H7        1.0  0.87100  0.45896  0.72566  1.0000
  H   H8        1.0  0.54103  0.12900  0.77433  1.0000
  H   H9        1.0  0.90013  0.25817  0.33626  1.0000
  H   H10       1.0  0.74183  0.09987  0.16374  1.0000
  H   H11       1.0  0.09987  0.74183  0.66374  1.0000
  H   H12       1.0  0.25817  0.90014  0.83626  1.0000
  H   H13       1.0  0.97668  0.01052  0.39904  1.0000
  H   H14       1.0  0.98948  0.02332  0.10096  1.0000
  H   H15       1.0  0.02332  0.98948  0.60096  1.0000
  H   H16       1.0  0.01052  0.97668  0.89904  1.0000
  H   H17       1.0  0.15242  0.89546  0.16023  1.0000
  H   H18       1.0  0.10454  0.84758  0.33977  1.0000
  H   H19       1.0  0.84758  0.10454  0.83977  1.0000
  H   H20       1.0  0.89545  0.15242  0.66023  1.0000
  H   H21       1.0  0.35778  0.09524  0.00299  1.0000
  H   H22       1.0  0.90476  0.64221  0.49702  1.0000
  H   H23       1.0  0.64221  0.90477  0.99702  1.0000
  H   H24       1.0  0.09523  0.35778  0.50298  1.0000
  C   C1        1.0  0.26293  0.39201  0.29938  1.0000
  C   C2        1.0  0.60799  0.73708  0.20062  1.0000
  C   C3        1.0  0.73708  0.60799  0.70062  1.0000
  C   C4        1.0  0.39201  0.26293  0.79938  1.0000
  C   C5        1.0  0.21763  0.51534  0.31767  1.0000
  C   C6        1.0  0.48466  0.78237  0.18233  1.0000
  C   C7        1.0  0.78237  0.48466  0.68233  1.0000
  C   C8        1.0  0.51534  0.21763  0.81767  1.0000
  C   C9        1.0  0.83017  0.14844  0.38203  1.0000
  C   C10       1.0  0.85156  0.16983  0.11797  1.0000
  C   C11       1.0  0.16983  0.85156  0.61797  1.0000
  C   C12       1.0  0.14845  0.83018  0.88203  1.0000
  C   C13       1.0  0.86797  0.02505  0.41324  1.0000
  C   C14       1.0  0.97495  0.13203  0.08676  1.0000
  C   C15       1.0  0.13203  0.97495  0.58676  1.0000
  C   C16       1.0  0.02505  0.86798  0.91324  1.0000
  C   C17       1.0  0.27174  0.00831  0.16809  1.0000
  C   C18       1.0  0.99169  0.72826  0.33191  1.0000
  C   C19       1.0  0.72826  0.99169  0.83191  1.0000
  C   C20       1.0  0.00830  0.27174  0.66809  1.0000
  C   C21       1.0  0.37506  0.10654  0.08948  1.0000
  C   C22       1.0  0.89346  0.62494  0.41052  1.0000
  C   C23       1.0  0.62494  0.89346  0.91052  1.0000
  C   C24       1.0  0.10654  0.37506  0.58948  1.0000
  N   N1        1.0  0.38280  0.41522  0.37427  1.0000
  N   N2        1.0  0.58477  0.61720  0.12573  1.0000
  N   N3        1.0  0.61720  0.58477  0.62573  1.0000
  N   N4        1.0  0.41522  0.38280  0.87427  1.0000
  N   N5        1.0  0.41025  0.54911  0.43452  1.0000
  N   N6        1.0  0.45089  0.58975  0.06548  1.0000
  N   N7        1.0  0.58975  0.45088  0.56548  1.0000
  N   N8        1.0  0.54911  0.41024  0.93452  1.0000
  N   N9        1.0  0.31227  0.61153  0.40283  1.0000
  N   N10       1.0  0.38847  0.68773  0.09717  1.0000
  N   N11       1.0  0.68773  0.38847  0.59717  1.0000
  N   N12       1.0  0.61153  0.31226  0.90283  1.0000
  N   N13       1.0  0.68021  0.11248  0.42105  1.0000
  N   N14       1.0  0.88751  0.31979  0.07895  1.0000
  N   N15       1.0  0.31979  0.88751  0.57895  1.0000
  N   N16       1.0  0.11249  0.68021  0.92105  1.0000
  N   N17       1.0  0.62910  0.97196  0.47392  1.0000
  N   N18       1.0  0.02804  0.37090  0.02608  1.0000
  N   N19       1.0  0.37090  0.02803  0.52608  1.0000
  N   N20       1.0  0.97196  0.62910  0.97392  1.0000
  N   N21       1.0  0.73947  0.91654  0.47086  1.0000
  N   N22       1.0  0.08346  0.26053  0.02914  1.0000
  N   N23       1.0  0.26052  0.08346  0.52914  1.0000
  N   N24       1.0  0.91654  0.73948  0.97086  1.0000
  N   N25       1.0  0.35026  0.07550  0.26460  1.0000
  N   N26       1.0  0.92449  0.64974  0.23540  1.0000
  N   N27       1.0  0.64974  0.92449  0.73540  1.0000
  N   N28       1.0  0.07550  0.35027  0.76460  1.0000
  N   N29       1.0  0.49517  0.20821  0.24482  1.0000
  N   N30       1.0  0.79178  0.50482  0.25518  1.0000
  N   N31       1.0  0.50483  0.79178  0.75518  1.0000
  N   N32       1.0  0.20821  0.49518  0.74482  1.0000
  N   N33       1.0  0.51367  0.23097  0.13933  1.0000
  N   N34       1.0  0.76903  0.48632  0.36067  1.0000
  N   N35       1.0  0.48633  0.76903  0.86067  1.0000
  N   N36       1.0  0.23097  0.51367  0.63933  1.0000
