data_image0
_chemical_formula_structural       Er4H24C24N36
_chemical_formula_sum              "Er4 H24 C24 N36"
_cell_length_a       9.23885
_cell_length_b       9.23886
_cell_length_c       12.5829
_cell_angle_alpha    91.4946
_cell_angle_beta     91.4944
_cell_angle_gamma    119.03

_space_group_name_H-M_alt    "P 1"
_space_group_IT_number       1

loop_
  _space_group_symop_operation_xyz
  'x, y, z'

loop_
  _atom_site_type_symbol
  _atom_site_label
  _atom_site_symmetry_multiplicity
  _atom_site_fract_x
  _atom_site_fract_y
  _atom_site_fract_z
  _atom_site_occupancy
  Er  Er1       1.0  0.52053  0.25835  0.42781  1.0000
  Er  Er2       1.0  0.74165  0.47947  0.07219  1.0000
  Er  Er3       1.0  0.47947  0.74165  0.57219  1.0000
  Er  Er4       1.0  0.25835  0.52053  0.92781  1.0000
  H   H1        1.0  0.22106  0.29221  0.23710  1.0000
  H   H2        1.0  0.70779  0.77894  0.26290  1.0000
  H   H3        1.0  0.77894  0.70779  0.76290  1.0000
  H   H4        1.0  0.29221  0.22106  0.73710  1.0000
  H   H5        1.0  0.13010  0.53695  0.27329  1.0000
  H   H6        1.0  0.46305  0.86991  0.22671  1.0000
  H   H7        1.0  0.86990  0.46305  0.72671  1.0000
  H   H8        1.0  0.53695  0.13010  0.77329  1.0000
  H   H9        1.0  0.90096  0.25657  0.33726  1.0000
  H   H10       1.0  0.74342  0.09904  0.16274  1.0000
  H   H11       1.0  0.09904  0.74342  0.66274  1.0000
  H   H12       1.0  0.25658  0.90096  0.83726  1.0000
  H   H13       1.0  0.97481  0.01077  0.40034  1.0000
  H   H14       1.0  0.98922  0.02519  0.09966  1.0000
  H   H15       1.0  0.02519  0.98922  0.59966  1.0000
  H   H16       1.0  0.01078  0.97481  0.90034  1.0000
  H   H17       1.0  0.15560  0.89168  0.16140  1.0000
  H   H18       1.0  0.10832  0.84440  0.33860  1.0000
  H   H19       1.0  0.84440  0.10832  0.83860  1.0000
  H   H20       1.0  0.89168  0.15560  0.66140  1.0000
  H   H21       1.0  0.36055  0.08526  0.00487  1.0000
  H   H22       1.0  0.91474  0.63945  0.49514  1.0000
  H   H23       1.0  0.63945  0.91473  0.99514  1.0000
  H   H24       1.0  0.08526  0.36055  0.50486  1.0000
  C   C1        1.0  0.26339  0.39036  0.29840  1.0000
  C   C2        1.0  0.60964  0.73661  0.20160  1.0000
  C   C3        1.0  0.73661  0.60964  0.70160  1.0000
  C   C4        1.0  0.39036  0.26339  0.79840  1.0000
  C   C5        1.0  0.21759  0.51161  0.31677  1.0000
  C   C6        1.0  0.48839  0.78241  0.18323  1.0000
  C   C7        1.0  0.78241  0.48839  0.68323  1.0000
  C   C8        1.0  0.51161  0.21759  0.81677  1.0000
  C   C9        1.0  0.83051  0.14756  0.38224  1.0000
  C   C10       1.0  0.85244  0.16949  0.11776  1.0000
  C   C11       1.0  0.16949  0.85244  0.61776  1.0000
  C   C12       1.0  0.14757  0.83052  0.88224  1.0000
  C   C13       1.0  0.86706  0.02519  0.41386  1.0000
  C   C14       1.0  0.97481  0.13294  0.08614  1.0000
  C   C15       1.0  0.13294  0.97481  0.58614  1.0000
  C   C16       1.0  0.02519  0.86706  0.91386  1.0000
  C   C17       1.0  0.27419  0.00445  0.16885  1.0000
  C   C18       1.0  0.99555  0.72581  0.33115  1.0000
  C   C19       1.0  0.72581  0.99555  0.83115  1.0000
  C   C20       1.0  0.00445  0.27419  0.66885  1.0000
  C   C21       1.0  0.37680  0.09994  0.09055  1.0000
  C   C22       1.0  0.90006  0.62320  0.40945  1.0000
  C   C23       1.0  0.62320  0.90006  0.90945  1.0000
  C   C24       1.0  0.09994  0.37680  0.59055  1.0000
  N   N1        1.0  0.38117  0.41334  0.37369  1.0000
  N   N2        1.0  0.58666  0.61883  0.12631  1.0000
  N   N3        1.0  0.61883  0.58666  0.62630  1.0000
  N   N4        1.0  0.41334  0.38117  0.87369  1.0000
  N   N5        1.0  0.40675  0.54481  0.43451  1.0000
  N   N6        1.0  0.45519  0.59325  0.06549  1.0000
  N   N7        1.0  0.59325  0.45519  0.56549  1.0000
  N   N8        1.0  0.54481  0.40675  0.93451  1.0000
  N   N9        1.0  0.30972  0.60619  0.40255  1.0000
  N   N10       1.0  0.39381  0.69028  0.09745  1.0000
  N   N11       1.0  0.69027  0.39381  0.59745  1.0000
  N   N12       1.0  0.60619  0.30972  0.90255  1.0000
  N   N13       1.0  0.68141  0.11196  0.42007  1.0000
  N   N14       1.0  0.88804  0.31859  0.07993  1.0000
  N   N15       1.0  0.31859  0.88804  0.57993  1.0000
  N   N16       1.0  0.11196  0.68142  0.92007  1.0000
  N   N17       1.0  0.62965  0.97286  0.47264  1.0000
  N   N18       1.0  0.02714  0.37035  0.02736  1.0000
  N   N19       1.0  0.37035  0.02714  0.52736  1.0000
  N   N20       1.0  0.97286  0.62965  0.97264  1.0000
  N   N21       1.0  0.73884  0.91789  0.47055  1.0000
  N   N22       1.0  0.08211  0.26116  0.02945  1.0000
  N   N23       1.0  0.26116  0.08211  0.52945  1.0000
  N   N24       1.0  0.91789  0.73884  0.97055  1.0000
  N   N25       1.0  0.35178  0.07549  0.26419  1.0000
  N   N26       1.0  0.92451  0.64822  0.23581  1.0000
  N   N27       1.0  0.64823  0.92451  0.73582  1.0000
  N   N28       1.0  0.07549  0.35177  0.76418  1.0000
  N   N29       1.0  0.49533  0.20791  0.24399  1.0000
  N   N30       1.0  0.79209  0.50467  0.25601  1.0000
  N   N31       1.0  0.50467  0.79209  0.75601  1.0000
  N   N32       1.0  0.20791  0.49533  0.74399  1.0000
  N   N33       1.0  0.51388  0.22670  0.13945  1.0000
  N   N34       1.0  0.77330  0.48612  0.36055  1.0000
  N   N35       1.0  0.48613  0.77330  0.86055  1.0000
  N   N36       1.0  0.22670  0.51387  0.63945  1.0000
