data_image0
_chemical_formula_structural       Tm4H24C24N36
_chemical_formula_sum              "Tm4 H24 C24 N36"
_cell_length_a       9.21749
_cell_length_b       9.21749
_cell_length_c       12.5195
_cell_angle_alpha    91.4479
_cell_angle_beta     91.448
_cell_angle_gamma    119.034

_space_group_name_H-M_alt    "P 1"
_space_group_IT_number       1

loop_
  _space_group_symop_operation_xyz
  'x, y, z'

loop_
  _atom_site_type_symbol
  _atom_site_label
  _atom_site_symmetry_multiplicity
  _atom_site_fract_x
  _atom_site_fract_y
  _atom_site_fract_z
  _atom_site_occupancy
  Tm  Tm1       1.0  0.52114  0.25854  0.42804  1.0000
  Tm  Tm2       1.0  0.74146  0.47886  0.07196  1.0000
  Tm  Tm3       1.0  0.47886  0.74146  0.57196  1.0000
  Tm  Tm4       1.0  0.25854  0.52114  0.92804  1.0000
  H   H1        1.0  0.22435  0.29272  0.23582  1.0000
  H   H2        1.0  0.70728  0.77565  0.26419  1.0000
  H   H3        1.0  0.77565  0.70728  0.76418  1.0000
  H   H4        1.0  0.29272  0.22435  0.73582  1.0000
  H   H5        1.0  0.13202  0.53698  0.27108  1.0000
  H   H6        1.0  0.46301  0.86797  0.22893  1.0000
  H   H7        1.0  0.86798  0.46302  0.72892  1.0000
  H   H8        1.0  0.53698  0.13202  0.77108  1.0000
  H   H9        1.0  0.90153  0.25603  0.33605  1.0000
  H   H10       1.0  0.74397  0.09847  0.16395  1.0000
  H   H11       1.0  0.09847  0.74397  0.66395  1.0000
  H   H12       1.0  0.25603  0.90153  0.83605  1.0000
  H   H13       1.0  0.97356  0.00801  0.39851  1.0000
  H   H14       1.0  0.99199  0.02644  0.10149  1.0000
  H   H15       1.0  0.02644  0.99199  0.60149  1.0000
  H   H16       1.0  0.00801  0.97356  0.89851  1.0000
  H   H17       1.0  0.16062  0.88496  0.15987  1.0000
  H   H18       1.0  0.11504  0.83938  0.34013  1.0000
  H   H19       1.0  0.83938  0.11504  0.84013  1.0000
  H   H20       1.0  0.88496  0.16062  0.65987  1.0000
  H   H21       1.0  0.36844  0.08013  0.00338  1.0000
  H   H22       1.0  0.91988  0.63156  0.49662  1.0000
  H   H23       1.0  0.63156  0.91987  0.99662  1.0000
  H   H24       1.0  0.08013  0.36844  0.50338  1.0000
  C   C1        1.0  0.26563  0.39060  0.29764  1.0000
  C   C2        1.0  0.60940  0.73437  0.20236  1.0000
  C   C3        1.0  0.73437  0.60940  0.70235  1.0000
  C   C4        1.0  0.39060  0.26563  0.79764  1.0000
  C   C5        1.0  0.21916  0.51181  0.31555  1.0000
  C   C6        1.0  0.48819  0.78083  0.18445  1.0000
  C   C7        1.0  0.78084  0.48819  0.68445  1.0000
  C   C8        1.0  0.51181  0.21916  0.81555  1.0000
  C   C9        1.0  0.83070  0.14712  0.38163  1.0000
  C   C10       1.0  0.85288  0.16930  0.11837  1.0000
  C   C11       1.0  0.16930  0.85288  0.61837  1.0000
  C   C12       1.0  0.14712  0.83070  0.88163  1.0000
  C   C13       1.0  0.86638  0.02358  0.41279  1.0000
  C   C14       1.0  0.97642  0.13362  0.08721  1.0000
  C   C15       1.0  0.13362  0.97642  0.58721  1.0000
  C   C16       1.0  0.02358  0.86638  0.91279  1.0000
  C   C17       1.0  0.27779  0.99982  0.16770  1.0000
  C   C18       1.0  0.00019  0.72221  0.33229  1.0000
  C   C19       1.0  0.72221  0.00018  0.83230  1.0000
  C   C20       1.0  0.99982  0.27779  0.66770  1.0000
  C   C21       1.0  0.38172  0.09609  0.08953  1.0000
  C   C22       1.0  0.90392  0.61828  0.41047  1.0000
  C   C23       1.0  0.61828  0.90391  0.91047  1.0000
  C   C24       1.0  0.09609  0.38172  0.58953  1.0000
  N   N1        1.0  0.38278  0.41369  0.37393  1.0000
  N   N2        1.0  0.58631  0.61722  0.12607  1.0000
  N   N3        1.0  0.61722  0.58632  0.62607  1.0000
  N   N4        1.0  0.41368  0.38278  0.87393  1.0000
  N   N5        1.0  0.40727  0.54511  0.43489  1.0000
  N   N6        1.0  0.45489  0.59273  0.06512  1.0000
  N   N7        1.0  0.59273  0.45489  0.56511  1.0000
  N   N8        1.0  0.54511  0.40727  0.93489  1.0000
  N   N9        1.0  0.31031  0.60655  0.40204  1.0000
  N   N10       1.0  0.39345  0.68969  0.09796  1.0000
  N   N11       1.0  0.68969  0.39345  0.59796  1.0000
  N   N12       1.0  0.60655  0.31031  0.90204  1.0000
  N   N13       1.0  0.68184  0.11252  0.42036  1.0000
  N   N14       1.0  0.88748  0.31816  0.07964  1.0000
  N   N15       1.0  0.31816  0.88748  0.57964  1.0000
  N   N16       1.0  0.11252  0.68184  0.92036  1.0000
  N   N17       1.0  0.62935  0.97269  0.47300  1.0000
  N   N18       1.0  0.02731  0.37065  0.02700  1.0000
  N   N19       1.0  0.37065  0.02731  0.52700  1.0000
  N   N20       1.0  0.97269  0.62935  0.97300  1.0000
  N   N21       1.0  0.73781  0.91643  0.47009  1.0000
  N   N22       1.0  0.08357  0.26220  0.02990  1.0000
  N   N23       1.0  0.26219  0.08357  0.52991  1.0000
  N   N24       1.0  0.91643  0.73781  0.97009  1.0000
  N   N25       1.0  0.35205  0.07313  0.26386  1.0000
  N   N26       1.0  0.92687  0.64795  0.23614  1.0000
  N   N27       1.0  0.64795  0.92687  0.73614  1.0000
  N   N28       1.0  0.07313  0.35205  0.76386  1.0000
  N   N29       1.0  0.49487  0.20767  0.24424  1.0000
  N   N30       1.0  0.79233  0.50513  0.25576  1.0000
  N   N31       1.0  0.50513  0.79233  0.75576  1.0000
  N   N32       1.0  0.20767  0.49487  0.74424  1.0000
  N   N33       1.0  0.51622  0.22565  0.13924  1.0000
  N   N34       1.0  0.77435  0.48378  0.36076  1.0000
  N   N35       1.0  0.48378  0.77435  0.86076  1.0000
  N   N36       1.0  0.22565  0.51622  0.63924  1.0000
