data_image0
_chemical_formula_structural       Cu2H34C50N4O14
_chemical_formula_sum              "Cu2 H34 C50 N4 O14"
_cell_length_a       7.84576
_cell_length_b       9.20711
_cell_length_c       14.8769
_cell_angle_alpha    91.4533
_cell_angle_beta     96.3362
_cell_angle_gamma    101.625

_space_group_name_H-M_alt    "P 1"
_space_group_IT_number       1

loop_
  _space_group_symop_operation_xyz
  'x, y, z'

loop_
  _atom_site_type_symbol
  _atom_site_label
  _atom_site_symmetry_multiplicity
  _atom_site_fract_x
  _atom_site_fract_y
  _atom_site_fract_z
  _atom_site_occupancy
  Cu  Cu1       1.0  0.35501  0.07322  0.08686  1.0000
  Cu  Cu2       1.0  0.64500  0.92678  0.91314  1.0000
  H   H1        1.0  0.83751  0.26379  0.26618  1.0000
  H   H2        1.0  0.16250  0.73622  0.73382  1.0000
  H   H3        1.0  0.46563  0.92115  0.68885  1.0000
  H   H4        1.0  0.53437  0.07886  0.31115  1.0000
  H   H5        1.0  0.24158  0.86116  0.21857  1.0000
  H   H6        1.0  0.75842  0.13884  0.78143  1.0000
  H   H7        1.0  0.00084  0.63989  0.22065  1.0000
  H   H8        1.0  0.99916  0.36011  0.77934  1.0000
  H   H9        1.0  0.85609  0.69856  0.93588  1.0000
  H   H10       1.0  0.14391  0.30144  0.06412  1.0000
  H   H11       1.0  0.10404  0.91427  0.94643  1.0000
  H   H12       1.0  0.89596  0.08573  0.05357  1.0000
  H   H13       1.0  0.71089  0.54943  0.21650  1.0000
  H   H14       1.0  0.28911  0.45057  0.78350  1.0000
  H   H15       1.0  0.48279  0.31842  0.21026  1.0000
  H   H16       1.0  0.51721  0.68158  0.78974  1.0000
  H   H17       1.0  0.51869  0.22957  0.93982  1.0000
  H   H18       1.0  0.48130  0.77042  0.06018  1.0000
  H   H19       1.0  0.75502  0.45454  0.93465  1.0000
  H   H20       1.0  0.24497  0.54546  0.06534  1.0000
  H   H21       1.0  0.22231  0.07250  0.37549  1.0000
  H   H22       1.0  0.77769  0.92750  0.62451  1.0000
  H   H23       1.0  0.12848  0.85713  0.46964  1.0000
  H   H24       1.0  0.87152  0.14287  0.53037  1.0000
  H   H25       1.0  0.82789  0.70071  0.43667  1.0000
  H   H26       1.0  0.17210  0.29929  0.56333  1.0000
  H   H27       1.0  0.57805  0.85473  0.47032  1.0000
  H   H28       1.0  0.42194  0.14528  0.52968  1.0000
  H   H29       1.0  0.14562  0.51287  0.52309  1.0000
  H   H30       1.0  0.85438  0.48713  0.47691  1.0000
  H   H31       1.0  0.13639  0.39587  0.36784  1.0000
  H   H32       1.0  0.86362  0.60413  0.63216  1.0000
  H   H33       1.0  0.35381  0.50727  0.26608  1.0000
  H   H34       1.0  0.64619  0.49273  0.73392  1.0000
  C   C1        1.0  0.15099  0.82129  0.15817  1.0000
  C   C2        1.0  0.84901  0.17871  0.84183  1.0000
  C   C3        1.0  0.01551  0.69874  0.15844  1.0000
  C   C4        1.0  0.98448  0.30126  0.84156  1.0000
  C   C5        1.0  0.90271  0.65040  0.07848  1.0000
  C   C6        1.0  0.09729  0.34960  0.92152  1.0000
  C   C7        1.0  0.93646  0.72885  0.00063  1.0000
  C   C8        1.0  0.06355  0.27115  0.99937  1.0000
  C   C9        1.0  0.07383  0.85086  0.00546  1.0000
  C   C10       1.0  0.92617  0.14914  0.99454  1.0000
  C   C11       1.0  0.75784  0.52084  0.07628  1.0000
  C   C12       1.0  0.24216  0.47916  0.92372  1.0000
  C   C13       1.0  0.67570  0.48123  0.15384  1.0000
  C   C14       1.0  0.32429  0.51876  0.84616  1.0000
  C   C15       1.0  0.54717  0.35347  0.15106  1.0000
  C   C16       1.0  0.45283  0.64653  0.84894  1.0000
  C   C17       1.0  0.56761  0.30381  0.99929  1.0000
  C   C18       1.0  0.43239  0.69619  0.00071  1.0000
  C   C19       1.0  0.69759  0.43013  0.99735  1.0000
  C   C20       1.0  0.30241  0.56987  0.00265  1.0000
  C   C21       1.0  0.97128  0.04431  0.29506  1.0000
  C   C22       1.0  0.02872  0.95569  0.70494  1.0000
  C   C23       1.0  0.08945  0.00643  0.36366  1.0000
  C   C24       1.0  0.91054  0.99357  0.63634  1.0000
  C   C25       1.0  0.03728  0.88518  0.41559  1.0000
  C   C26       1.0  0.96272  0.11482  0.58441  1.0000
  C   C27       1.0  0.86920  0.79754  0.39783  1.0000
  C   C28       1.0  0.13079  0.20247  0.60217  1.0000
  C   C29       1.0  0.75289  0.83476  0.32869  1.0000
  C   C30       1.0  0.24711  0.16523  0.67131  1.0000
  C   C31       1.0  0.79983  0.95891  0.27740  1.0000
  C   C32       1.0  0.20017  0.04109  0.72260  1.0000
  C   C33       1.0  0.48097  0.68491  0.36315  1.0000
  C   C34       1.0  0.51902  0.31510  0.63685  1.0000
  C   C35       1.0  0.48496  0.75218  0.44871  1.0000
  C   C36       1.0  0.51503  0.24783  0.55129  1.0000
  C   C37       1.0  0.36389  0.68737  0.50600  1.0000
  C   C38       1.0  0.63611  0.31264  0.49399  1.0000
  C   C39       1.0  0.23922  0.55857  0.47718  1.0000
  C   C40       1.0  0.76079  0.44143  0.52283  1.0000
  C   C41       1.0  0.23507  0.49435  0.39104  1.0000
  C   C42       1.0  0.76494  0.50565  0.60896  1.0000
  C   C43       1.0  0.35603  0.55663  0.33365  1.0000
  C   C44       1.0  0.64397  0.44337  0.66635  1.0000
  C   C45       1.0  0.03574  0.17505  0.24115  1.0000
  C   C46       1.0  0.96426  0.82495  0.75885  1.0000
  C   C47       1.0  0.66723  0.98451  0.20076  1.0000
  C   C48       1.0  0.33277  0.01549  0.79924  1.0000
  C   C49       1.0  0.35958  0.75541  0.59755  1.0000
  C   C50       1.0  0.64042  0.24459  0.40245  1.0000
  N   N1        1.0  0.17948  0.89860  0.08306  1.0000
  N   N2        1.0  0.82052  0.10140  0.91694  1.0000
  N   N3        1.0  0.49527  0.26305  0.07563  1.0000
  N   N4        1.0  0.50473  0.73694  0.92437  1.0000
  O   O1        1.0  0.18186  0.19694  0.21498  1.0000
  O   O2        1.0  0.81814  0.80305  0.78501  1.0000
  O   O3        1.0  0.92915  0.26976  0.22246  1.0000
  O   O4        1.0  0.07086  0.73024  0.77754  1.0000
  O   O5        1.0  0.69249  0.95656  0.12158  1.0000
  O   O6        1.0  0.30751  0.04344  0.87842  1.0000
  O   O7        1.0  0.53121  0.02966  0.22341  1.0000
  O   O8        1.0  0.46879  0.97035  0.77659  1.0000
  O   O9        1.0  0.59109  0.74313  0.30082  1.0000
  O   O10       1.0  0.40891  0.25687  0.69918  1.0000
  O   O11       1.0  0.47218  0.88037  0.61924  1.0000
  O   O12       1.0  0.52782  0.11964  0.38075  1.0000
  O   O13       1.0  0.25150  0.69352  0.64762  1.0000
  O   O14       1.0  0.74850  0.30649  0.35238  1.0000
