data_image0
_chemical_formula_structural       Cd4H40C68N16O16
_chemical_formula_sum              "Cd4 H40 C68 N16 O16"
_cell_length_a       10.4341
_cell_length_b       10.667
_cell_length_c       13.5643
_cell_angle_alpha    90.5074
_cell_angle_beta     90
_cell_angle_gamma    90

_space_group_name_H-M_alt    "P 1"
_space_group_IT_number       1

loop_
  _space_group_symop_operation_xyz
  'x, y, z'

loop_
  _atom_site_type_symbol
  _atom_site_label
  _atom_site_symmetry_multiplicity
  _atom_site_fract_x
  _atom_site_fract_y
  _atom_site_fract_z
  _atom_site_occupancy
  Cd  Cd1       1.0  0.61160  0.82185  0.18094  1.0000
  Cd  Cd2       1.0  0.11160  0.17815  0.31906  1.0000
  Cd  Cd3       1.0  0.38840  0.17815  0.81906  1.0000
  Cd  Cd4       1.0  0.88840  0.82185  0.68094  1.0000
  H   H1        1.0  0.87666  0.66977  0.12713  1.0000
  H   H2        1.0  0.37665  0.33023  0.37287  1.0000
  H   H3        1.0  0.12335  0.33023  0.87287  1.0000
  H   H4        1.0  0.62335  0.66977  0.62713  1.0000
  H   H5        1.0  0.95190  0.44684  0.09686  1.0000
  H   H6        1.0  0.45190  0.55315  0.40314  1.0000
  H   H7        1.0  0.04810  0.55315  0.90314  1.0000
  H   H8        1.0  0.54810  0.44684  0.59686  1.0000
  H   H9        1.0  0.78850  0.27698  0.08536  1.0000
  H   H10       1.0  0.28851  0.72302  0.41464  1.0000
  H   H11       1.0  0.21149  0.72302  0.91464  1.0000
  H   H12       1.0  0.71149  0.27698  0.58536  1.0000
  H   H13       1.0  0.55811  0.21247  0.08428  1.0000
  H   H14       1.0  0.05811  0.78753  0.41572  1.0000
  H   H15       1.0  0.44189  0.78753  0.91572  1.0000
  H   H16       1.0  0.94189  0.21247  0.58428  1.0000
  H   H17       1.0  0.32798  0.27150  0.10018  1.0000
  H   H18       1.0  0.82798  0.72850  0.39982  1.0000
  H   H19       1.0  0.67202  0.72850  0.89982  1.0000
  H   H20       1.0  0.17202  0.27150  0.60018  1.0000
  H   H21       1.0  0.16433  0.43124  0.13034  1.0000
  H   H22       1.0  0.66433  0.56876  0.36966  1.0000
  H   H23       1.0  0.83567  0.56876  0.86966  1.0000
  H   H24       1.0  0.33567  0.43124  0.63034  1.0000
  H   H25       1.0  0.10908  0.66169  0.15716  1.0000
  H   H26       1.0  0.60908  0.33831  0.34283  1.0000
  H   H27       1.0  0.89092  0.33831  0.84283  1.0000
  H   H28       1.0  0.39092  0.66169  0.65717  1.0000
  H   H29       1.0  0.28758  0.81678  0.16869  1.0000
  H   H30       1.0  0.78758  0.18322  0.33131  1.0000
  H   H31       1.0  0.71242  0.18322  0.83131  1.0000
  H   H32       1.0  0.21242  0.81678  0.66869  1.0000
  H   H33       1.0  0.37603  0.08039  0.15071  1.0000
  H   H34       1.0  0.87603  0.91960  0.34929  1.0000
  H   H35       1.0  0.62397  0.91960  0.84929  1.0000
  H   H36       1.0  0.12397  0.08039  0.65071  1.0000
  H   H37       1.0  0.38891  0.88685  0.52274  1.0000
  H   H38       1.0  0.88890  0.11315  0.97726  1.0000
  H   H39       1.0  0.61110  0.11315  0.47726  1.0000
  H   H40       1.0  0.11110  0.88685  0.02274  1.0000
  C   C1        1.0  0.80913  0.59161  0.12303  1.0000
  C   C2        1.0  0.30913  0.40839  0.37697  1.0000
  C   C3        1.0  0.19087  0.40839  0.87697  1.0000
  C   C4        1.0  0.69087  0.59161  0.62303  1.0000
  C   C5        1.0  0.85044  0.46800  0.10565  1.0000
  C   C6        1.0  0.35044  0.53200  0.39435  1.0000
  C   C7        1.0  0.14957  0.53200  0.89435  1.0000
  C   C8        1.0  0.64956  0.46800  0.60565  1.0000
  C   C9        1.0  0.75996  0.37363  0.09936  1.0000
  C   C10       1.0  0.25995  0.62637  0.40064  1.0000
  C   C11       1.0  0.24005  0.62637  0.90064  1.0000
  C   C12       1.0  0.74004  0.37363  0.59936  1.0000
  C   C13       1.0  0.62858  0.40236  0.10872  1.0000
  C   C14       1.0  0.12858  0.59764  0.39128  1.0000
  C   C15       1.0  0.37142  0.59764  0.89128  1.0000
  C   C16       1.0  0.87142  0.40236  0.60872  1.0000
  C   C17       1.0  0.53020  0.30922  0.09989  1.0000
  C   C18       1.0  0.03020  0.69078  0.40012  1.0000
  C   C19       1.0  0.46979  0.69078  0.90012  1.0000
  C   C20       1.0  0.96979  0.30922  0.59989  1.0000
  C   C21       1.0  0.40393  0.34099  0.10876  1.0000
  C   C22       1.0  0.90393  0.65901  0.39124  1.0000
  C   C23       1.0  0.59607  0.65901  0.89124  1.0000
  C   C24       1.0  0.09607  0.34099  0.60876  1.0000
  C   C25       1.0  0.36712  0.46833  0.12715  1.0000
  C   C26       1.0  0.86712  0.53167  0.37285  1.0000
  C   C27       1.0  0.63288  0.53167  0.87285  1.0000
  C   C28       1.0  0.13288  0.46833  0.62715  1.0000
  C   C29       1.0  0.23726  0.50444  0.13604  1.0000
  C   C30       1.0  0.73726  0.49556  0.36396  1.0000
  C   C31       1.0  0.76274  0.49556  0.86396  1.0000
  C   C32       1.0  0.26274  0.50444  0.63604  1.0000
  C   C33       1.0  0.20775  0.62930  0.15126  1.0000
  C   C34       1.0  0.70776  0.37070  0.34874  1.0000
  C   C35       1.0  0.79224  0.37070  0.84874  1.0000
  C   C36       1.0  0.29225  0.62931  0.65126  1.0000
  C   C37       1.0  0.30777  0.71737  0.15810  1.0000
  C   C38       1.0  0.80776  0.28263  0.34190  1.0000
  C   C39       1.0  0.69224  0.28263  0.84190  1.0000
  C   C40       1.0  0.19223  0.71737  0.65810  1.0000
  C   C41       1.0  0.46186  0.56358  0.13560  1.0000
  C   C42       1.0  0.96186  0.43642  0.36440  1.0000
  C   C43       1.0  0.53814  0.43642  0.86440  1.0000
  C   C44       1.0  0.03814  0.56358  0.63560  1.0000
  C   C45       1.0  0.59562  0.52990  0.12659  1.0000
  C   C46       1.0  0.09562  0.47010  0.37341  1.0000
  C   C47       1.0  0.40438  0.47010  0.87341  1.0000
  C   C48       1.0  0.90438  0.52990  0.62659  1.0000
  C   C49       1.0  0.38204  0.04371  0.22497  1.0000
  C   C50       1.0  0.88204  0.95628  0.27503  1.0000
  C   C51       1.0  0.61796  0.95628  0.77503  1.0000
  C   C52       1.0  0.11796  0.04371  0.72497  1.0000
  C   C53       1.0  0.51319  0.83035  0.40148  1.0000
  C   C54       1.0  0.01319  0.16965  0.09852  1.0000
  C   C55       1.0  0.48681  0.16965  0.59852  1.0000
  C   C56       1.0  0.98681  0.83035  0.90148  1.0000
  C   C57       1.0  0.44047  0.92803  0.34824  1.0000
  C   C58       1.0  0.94047  0.07197  0.15176  1.0000
  C   C59       1.0  0.55953  0.07197  0.65176  1.0000
  C   C60       1.0  0.05953  0.92803  0.84824  1.0000
  C   C61       1.0  0.33628  0.00286  0.37720  1.0000
  C   C62       1.0  0.83627  0.99714  0.12280  1.0000
  C   C63       1.0  0.66373  0.99714  0.62280  1.0000
  C   C64       1.0  0.16372  0.00286  0.87720  1.0000
  C   C65       1.0  0.26321  0.01093  0.46944  1.0000
  C   C66       1.0  0.76322  0.98907  0.03056  1.0000
  C   C67       1.0  0.73678  0.98907  0.53056  1.0000
  C   C68       1.0  0.23679  0.01093  0.96944  1.0000
  N   N1        1.0  0.68591  0.62088  0.13425  1.0000
  N   N2        1.0  0.18591  0.37912  0.36575  1.0000
  N   N3        1.0  0.31409  0.37912  0.86575  1.0000
  N   N4        1.0  0.81409  0.62088  0.63425  1.0000
  N   N5        1.0  0.43064  0.68547  0.15052  1.0000
  N   N6        1.0  0.93064  0.31453  0.34948  1.0000
  N   N7        1.0  0.56936  0.31453  0.84948  1.0000
  N   N8        1.0  0.06936  0.68547  0.65052  1.0000
  N   N9        1.0  0.46742  0.95563  0.25180  1.0000
  N   N10       1.0  0.96742  0.04437  0.24820  1.0000
  N   N11       1.0  0.53258  0.04437  0.74820  1.0000
  N   N12       1.0  0.03258  0.95563  0.75180  1.0000
  N   N13       1.0  0.30140  0.07533  0.29847  1.0000
  N   N14       1.0  0.80140  0.92467  0.20153  1.0000
  N   N15       1.0  0.69860  0.92467  0.70153  1.0000
  N   N16       1.0  0.19860  0.07533  0.79847  1.0000
  O   O1        1.0  0.59655  0.76668  0.35515  1.0000
  O   O2        1.0  0.09655  0.23333  0.14485  1.0000
  O   O3        1.0  0.40345  0.23333  0.64485  1.0000
  O   O4        1.0  0.90345  0.76667  0.85515  1.0000
  O   O5        1.0  0.48562  0.81252  0.49305  1.0000
  O   O6        1.0  0.98561  0.18748  0.00696  1.0000
  O   O7        1.0  0.51439  0.18748  0.50696  1.0000
  O   O8        1.0  0.01438  0.81252  0.99304  1.0000
  O   O9        1.0  0.30339  0.94397  0.54396  1.0000
  O   O10       1.0  0.80339  0.05603  0.95604  1.0000
  O   O11       1.0  0.69661  0.05603  0.45604  1.0000
  O   O12       1.0  0.19661  0.94397  0.04396  1.0000
  O   O13       1.0  0.16483  0.07844  0.47600  1.0000
  O   O14       1.0  0.66483  0.92156  0.02400  1.0000
  O   O15       1.0  0.83517  0.92156  0.52400  1.0000
  O   O16       1.0  0.33517  0.07844  0.97600  1.0000
