data_image0
_chemical_formula_structural       Na2H20C16N2O18
_chemical_formula_sum              "Na2 H20 C16 N2 O18"
_cell_length_a       6.81756
_cell_length_b       7.47465
_cell_length_c       12.9217
_cell_angle_alpha    75.6778
_cell_angle_beta     75.8593
_cell_angle_gamma    68.3183

_space_group_name_H-M_alt    "P 1"
_space_group_IT_number       1

loop_
  _space_group_symop_operation_xyz
  'x, y, z'

loop_
  _atom_site_type_symbol
  _atom_site_label
  _atom_site_symmetry_multiplicity
  _atom_site_fract_x
  _atom_site_fract_y
  _atom_site_fract_z
  _atom_site_occupancy
  Na  Na1       1.0  0.26350  0.47119  0.50749  1.0000
  Na  Na2       1.0  0.73650  0.52881  0.49251  1.0000
  H   H1        1.0  0.52644  0.35235  0.24063  1.0000
  H   H2        1.0  0.47353  0.64764  0.75938  1.0000
  H   H3        1.0  0.19511  0.26912  0.92022  1.0000
  H   H4        1.0  0.80491  0.73086  0.07977  1.0000
  H   H5        1.0  0.35315  0.94537  0.86135  1.0000
  H   H6        1.0  0.64691  0.05462  0.13864  1.0000
  H   H7        1.0  0.42794  0.64358  0.00109  1.0000
  H   H8        1.0  0.57209  0.35642  0.99891  1.0000
  H   H9        1.0  0.27494  0.82950  0.57219  1.0000
  H   H10       1.0  0.72504  0.17051  0.42782  1.0000
  H   H11       1.0  0.34702  0.83817  0.44866  1.0000
  H   H12       1.0  0.65298  0.16183  0.55134  1.0000
  H   H13       1.0  0.14447  0.39513  0.73560  1.0000
  H   H14       1.0  0.85554  0.60486  0.26440  1.0000
  H   H15       1.0  0.17923  0.19940  0.69663  1.0000
  H   H16       1.0  0.82080  0.80059  0.30336  1.0000
  H   H17       1.0  0.07369  0.18453  0.54342  1.0000
  H   H18       1.0  0.92630  0.81547  0.45658  1.0000
  H   H19       1.0  0.13431  0.19859  0.41892  1.0000
  H   H20       1.0  0.86568  0.80141  0.58108  1.0000
  C   C1        1.0  0.28570  0.79435  0.13707  1.0000
  C   C2        1.0  0.71430  0.20565  0.86294  1.0000
  C   C3        1.0  0.17749  0.97664  0.17119  1.0000
  C   C4        1.0  0.82249  0.02336  0.82881  1.0000
  C   C5        1.0  0.15499  0.14284  0.08976  1.0000
  C   C6        1.0  0.84499  0.85716  0.91024  1.0000
  C   C7        1.0  0.21732  0.13458  0.97926  1.0000
  C   C8        1.0  0.78268  0.86542  0.02074  1.0000
  C   C9        1.0  0.30645  0.95309  0.94741  1.0000
  C   C10       1.0  0.69358  0.04689  0.05260  1.0000
  C   C11       1.0  0.34633  0.78468  0.02617  1.0000
  C   C12       1.0  0.65370  0.21531  0.97384  1.0000
  C   C13       1.0  0.34685  0.61626  0.22051  1.0000
  C   C14       1.0  0.65315  0.38377  0.77948  1.0000
  C   C15       1.0  0.10399  0.99723  0.28974  1.0000
  C   C16       1.0  0.89600  0.00279  0.71024  1.0000
  N   N1        1.0  0.07904  0.33514  0.12026  1.0000
  N   N2        1.0  0.92094  0.66486  0.87972  1.0000
  O   O1        1.0  0.28246  0.61041  0.31809  1.0000
  O   O2        1.0  0.71757  0.38961  0.68191  1.0000
  O   O3        1.0  0.48829  0.45804  0.17902  1.0000
  O   O4        1.0  0.51166  0.54196  0.82101  1.0000
  O   O5        1.0  0.91945  0.98422  0.33257  1.0000
  O   O6        1.0  0.08053  0.01579  0.66743  1.0000
  O   O7        1.0  0.23165  0.03040  0.33256  1.0000
  O   O8        1.0  0.76833  0.96962  0.66744  1.0000
  O   O9        1.0  0.94309  0.36538  0.20384  1.0000
  O   O10       1.0  0.05689  0.63461  0.79614  1.0000
  O   O11       1.0  0.15676  0.45948  0.06164  1.0000
  O   O12       1.0  0.84323  0.54053  0.93836  1.0000
  O   O13       1.0  0.37340  0.75017  0.51829  1.0000
  O   O14       1.0  0.62659  0.24984  0.48172  1.0000
  O   O15       1.0  0.24717  0.29685  0.69359  1.0000
  O   O16       1.0  0.75285  0.70314  0.30640  1.0000
  O   O17       1.0  0.08298  0.28084  0.47597  1.0000
  O   O18       1.0  0.91702  0.71917  0.52404  1.0000
