data_image0
_chemical_formula_structural       Cu2H16Pt2C32N12
_chemical_formula_sum              "Cu2 H16 Pt2 C32 N12"
_cell_length_a       6.5439
_cell_length_b       10.3599
_cell_length_c       11.4668
_cell_angle_alpha    90.0136
_cell_angle_beta     90.0055
_cell_angle_gamma    71.569

_space_group_name_H-M_alt    "P 1"
_space_group_IT_number       1

loop_
  _space_group_symop_operation_xyz
  'x, y, z'

loop_
  _atom_site_type_symbol
  _atom_site_label
  _atom_site_symmetry_multiplicity
  _atom_site_fract_x
  _atom_site_fract_y
  _atom_site_fract_z
  _atom_site_occupancy
  Cu  Cu1       1.0  0.37120  0.25715  0.24999  1.0000
  Cu  Cu2       1.0  0.62880  0.74286  0.75001  1.0000
  H   H1        1.0  0.89299  0.88306  0.30218  1.0000
  H   H2        1.0  0.22374  0.88290  0.19798  1.0000
  H   H3        1.0  0.10702  0.11695  0.69783  1.0000
  H   H4        1.0  0.77626  0.11709  0.80201  1.0000
  H   H5        1.0  0.64418  0.52031  0.45128  1.0000
  H   H6        1.0  0.83481  0.51995  0.04842  1.0000
  H   H7        1.0  0.35582  0.47969  0.54873  1.0000
  H   H8        1.0  0.16520  0.48005  0.95158  1.0000
  H   H9        1.0  0.92810  0.31134  0.38410  1.0000
  H   H10       1.0  0.76003  0.31108  0.11584  1.0000
  H   H11       1.0  0.07189  0.68866  0.61590  1.0000
  H   H12       1.0  0.23997  0.68892  0.88416  1.0000
  H   H13       1.0  0.67735  0.74803  0.40669  1.0000
  H   H14       1.0  0.57400  0.74772  0.09314  1.0000
  H   H15       1.0  0.32266  0.25197  0.59331  1.0000
  H   H16       1.0  0.42601  0.25228  0.90686  1.0000
  Pt  Pt1       1.0  1.00000  0.00000  0.50000  1.0000
  Pt  Pt2       1.0  0.99999  0.99999  1.00000  1.0000
  C   C1        1.0  0.01541  0.78734  0.27966  1.0000
  C   C2        1.0  0.19689  0.78726  0.22044  1.0000
  C   C3        1.0  0.98460  0.21266  0.72034  1.0000
  C   C4        1.0  0.80311  0.21274  0.77955  1.0000
  C   C5        1.0  0.17083  0.07353  0.39208  1.0000
  C   C6        1.0  0.75559  0.07346  0.10795  1.0000
  C   C7        1.0  0.82917  0.92648  0.60792  1.0000
  C   C8        1.0  0.24439  0.92654  0.89205  1.0000
  C   C9        1.0  0.13683  0.53830  0.28162  1.0000
  C   C10       1.0  0.32429  0.53823  0.21836  1.0000
  C   C11       1.0  0.86317  0.46171  0.71838  1.0000
  C   C12       1.0  0.67571  0.46177  0.78164  1.0000
  C   C13       1.0  0.78138  0.52955  0.40248  1.0000
  C   C14       1.0  0.68844  0.52923  0.09731  1.0000
  C   C15       1.0  0.21863  0.47045  0.59752  1.0000
  C   C16       1.0  0.31156  0.47077  0.90269  1.0000
  C   C17       1.0  0.94222  0.41099  0.36590  1.0000
  C   C18       1.0  0.64624  0.41075  0.13402  1.0000
  C   C19       1.0  0.05778  0.58902  0.63410  1.0000
  C   C20       1.0  0.35377  0.58925  0.86598  1.0000
  C   C21       1.0  0.80009  0.65567  0.37714  1.0000
  C   C22       1.0  0.54364  0.65540  0.12275  1.0000
  C   C23       1.0  0.19992  0.34433  0.62286  1.0000
  C   C24       1.0  0.45636  0.34459  0.87725  1.0000
  C   C25       1.0  0.74107  0.15554  0.46019  1.0000
  C   C26       1.0  0.10307  0.15559  0.03983  1.0000
  C   C27       1.0  0.25893  0.84446  0.53981  1.0000
  C   C28       1.0  0.89691  0.84439  0.96016  1.0000
  C   C29       1.0  0.98074  0.66299  0.31329  1.0000
  C   C30       1.0  0.35575  0.66285  0.18672  1.0000
  C   C31       1.0  0.01926  0.33701  0.68671  1.0000
  C   C32       1.0  0.64425  0.33715  0.81328  1.0000
  N   N1        1.0  0.11656  0.41519  0.30826  1.0000
  N   N2        1.0  0.46770  0.41507  0.19172  1.0000
  N   N3        1.0  0.88344  0.58482  0.69174  1.0000
  N   N4        1.0  0.53229  0.58493  0.80828  1.0000
  N   N5        1.0  0.26280  0.12431  0.32861  1.0000
  N   N6        1.0  0.61275  0.12423  0.17143  1.0000
  N   N7        1.0  0.73720  0.87570  0.67140  1.0000
  N   N8        1.0  0.38724  0.87577  0.82857  1.0000
  N   N9        1.0  0.59255  0.24931  0.43427  1.0000
  N   N10       1.0  0.15792  0.24933  0.06567  1.0000
  N   N11       1.0  0.40745  0.75069  0.56573  1.0000
  N   N12       1.0  0.84208  0.75066  0.93433  1.0000
