data_image0
_chemical_formula_structural       Ag4H44C32N12O8
_chemical_formula_sum              "Ag4 H44 C32 N12 O8"
_cell_length_a       9.06118
_cell_length_b       11.5067
_cell_length_c       11.5066
_cell_angle_alpha    113.103
_cell_angle_beta     102.956
_cell_angle_gamma    102.956

_space_group_name_H-M_alt    "P 1"
_space_group_IT_number       1

loop_
  _space_group_symop_operation_xyz
  'x, y, z'

loop_
  _atom_site_type_symbol
  _atom_site_label
  _atom_site_symmetry_multiplicity
  _atom_site_fract_x
  _atom_site_fract_y
  _atom_site_fract_z
  _atom_site_occupancy
  Ag  Ag1       1.0  0.24999  0.26591  0.73408  1.0000
  Ag  Ag2       1.0  0.75001  0.73409  0.26592  1.0000
  Ag  Ag3       1.0  0.74999  0.88550  0.11450  1.0000
  Ag  Ag4       1.0  0.25002  0.11450  0.88550  1.0000
  H   H1        1.0  0.76387  0.36204  0.42313  1.0000
  H   H2        1.0  0.73613  0.57686  0.63797  1.0000
  H   H3        1.0  0.23614  0.63796  0.57687  1.0000
  H   H4        1.0  0.26387  0.42314  0.36203  1.0000
  H   H5        1.0  0.66317  0.10800  0.08690  1.0000
  H   H6        1.0  0.83683  0.91310  0.89201  1.0000
  H   H7        1.0  0.33684  0.89201  0.91310  1.0000
  H   H8        1.0  0.16317  0.08691  0.10799  1.0000
  H   H9        1.0  0.58398  0.21534  0.19489  1.0000
  H   H10       1.0  0.91601  0.80510  0.78466  1.0000
  H   H11       1.0  0.41603  0.78466  0.80511  1.0000
  H   H12       1.0  0.08398  0.19490  0.21534  1.0000
  H   H13       1.0  0.53607  0.04302  0.16089  1.0000
  H   H14       1.0  0.96393  0.83910  0.95698  1.0000
  H   H15       1.0  0.46394  0.95698  0.83911  1.0000
  H   H16       1.0  0.03607  0.16090  0.04301  1.0000
  H   H17       1.0  0.15236  0.48070  0.69877  1.0000
  H   H18       1.0  0.34764  0.30123  0.51930  1.0000
  H   H19       1.0  0.84765  0.51930  0.30123  1.0000
  H   H20       1.0  0.65236  0.69877  0.48070  1.0000
  H   H21       1.0  0.96850  0.42661  0.72244  1.0000
  H   H22       1.0  0.53150  0.27756  0.57339  1.0000
  H   H23       1.0  0.03151  0.57339  0.27756  1.0000
  H   H24       1.0  0.46850  0.72244  0.42661  1.0000
  H   H25       1.0  0.98456  0.52426  0.63572  1.0000
  H   H26       1.0  0.51544  0.36428  0.47575  1.0000
  H   H27       1.0  0.01544  0.47574  0.36428  1.0000
  H   H28       1.0  0.48456  0.63572  0.52426  1.0000
  H   H29       1.0  0.66685  0.09370  0.61126  1.0000
  H   H30       1.0  0.83314  0.38875  0.90629  1.0000
  H   H31       1.0  0.33316  0.90630  0.38874  1.0000
  H   H32       1.0  0.16684  0.61124  0.09369  1.0000
  H   H33       1.0  0.55487  0.94033  0.59465  1.0000
  H   H34       1.0  0.94512  0.40535  0.05966  1.0000
  H   H35       1.0  0.44513  0.05967  0.40535  1.0000
  H   H36       1.0  0.05486  0.59465  0.94033  1.0000
  H   H37       1.0  0.03925  0.94537  0.29055  1.0000
  H   H38       1.0  0.46075  0.70945  0.05463  1.0000
  H   H39       1.0  0.96076  0.05463  0.70946  1.0000
  H   H40       1.0  0.53925  0.29055  0.94537  1.0000
  H   H41       1.0  0.17191  0.05590  0.45884  1.0000
  H   H42       1.0  0.32808  0.54116  0.94410  1.0000
  H   H43       1.0  0.82810  0.94410  0.54117  1.0000
  H   H44       1.0  0.67191  0.45884  0.05590  1.0000
  C   C1        1.0  0.98891  0.11631  0.39230  1.0000
  C   C2        1.0  0.51109  0.60770  0.88369  1.0000
  C   C3        1.0  0.01110  0.88368  0.60770  1.0000
  C   C4        1.0  0.48891  0.39230  0.11631  1.0000
  C   C5        1.0  0.96220  0.31803  0.52149  1.0000
  C   C6        1.0  0.53779  0.47851  0.68198  1.0000
  C   C7        1.0  0.03780  0.68197  0.47851  1.0000
  C   C8        1.0  0.46221  0.52149  0.31803  1.0000
  C   C9        1.0  0.82653  0.29046  0.41481  1.0000
  C   C10       1.0  0.67347  0.58518  0.70955  1.0000
  C   C11       1.0  0.17349  0.70955  0.58519  1.0000
  C   C12       1.0  0.32653  0.41482  0.29045  1.0000
  C   C13       1.0  0.77512  0.17020  0.29659  1.0000
  C   C14       1.0  0.72486  0.70340  0.82981  1.0000
  C   C15       1.0  0.22488  0.82980  0.70341  1.0000
  C   C16       1.0  0.27513  0.29659  0.17019  1.0000
  C   C17       1.0  0.63137  0.13292  0.17845  1.0000
  C   C18       1.0  0.86863  0.82155  0.86709  1.0000
  C   C19       1.0  0.36864  0.86708  0.82155  1.0000
  C   C20       1.0  0.13136  0.17846  0.13291  1.0000
  C   C21       1.0  0.02070  0.44525  0.65125  1.0000
  C   C22       1.0  0.47930  0.34875  0.55475  1.0000
  C   C23       1.0  0.97931  0.55475  0.34875  1.0000
  C   C24       1.0  0.52070  0.65125  0.44525  1.0000
  C   C25       1.0  0.54200  0.02435  0.57496  1.0000
  C   C26       1.0  0.95799  0.42504  0.97564  1.0000
  C   C27       1.0  0.45800  0.97565  0.42505  1.0000
  C   C28       1.0  0.04199  0.57495  0.02435  1.0000
  C   C29       1.0  0.46042  0.09733  0.66817  1.0000
  C   C30       1.0  0.03955  0.33183  0.90266  1.0000
  C   C31       1.0  0.53958  0.90267  0.33183  1.0000
  C   C32       1.0  0.96043  0.66817  0.09733  1.0000
  N   N1        1.0  0.07284  0.03322  0.37867  1.0000
  N   N2        1.0  0.42716  0.62133  0.96678  1.0000
  N   N3        1.0  0.92717  0.96678  0.62133  1.0000
  N   N4        1.0  0.57284  0.37867  0.03322  1.0000
  N   N5        1.0  0.04283  0.23210  0.51086  1.0000
  N   N6        1.0  0.45716  0.48913  0.76789  1.0000
  N   N7        1.0  0.95717  0.76790  0.48914  1.0000
  N   N8        1.0  0.54284  0.51087  0.23211  1.0000
  N   N9        1.0  0.85525  0.08277  0.28534  1.0000
  N   N10       1.0  0.64475  0.71466  0.91723  1.0000
  N   N11       1.0  0.14476  0.91722  0.71467  1.0000
  N   N12       1.0  0.35525  0.28534  0.08277  1.0000
  O   O1        1.0  0.32976  0.11061  0.61155  1.0000
  O   O2        1.0  0.17023  0.38844  0.88938  1.0000
  O   O3        1.0  0.67025  0.88939  0.38845  1.0000
  O   O4        1.0  0.82976  0.61156  0.11061  1.0000
  O   O5        1.0  0.52477  0.14136  0.79317  1.0000
  O   O6        1.0  0.97519  0.20682  0.85862  1.0000
  O   O7        1.0  0.47523  0.85864  0.20683  1.0000
  O   O8        1.0  0.02480  0.79317  0.14138  1.0000
