data_image0
_chemical_formula_structural       Cu2H28C32S2N12O8
_chemical_formula_sum              "Cu2 H28 C32 S2 N12 O8"
_cell_length_a       9.14316
_cell_length_b       10.0651
_cell_length_c       10.2151
_cell_angle_alpha    85.6419
_cell_angle_beta     83.7178
_cell_angle_gamma    70.5778

_space_group_name_H-M_alt    "P 1"
_space_group_IT_number       1

loop_
  _space_group_symop_operation_xyz
  'x, y, z'

loop_
  _atom_site_type_symbol
  _atom_site_label
  _atom_site_symmetry_multiplicity
  _atom_site_fract_x
  _atom_site_fract_y
  _atom_site_fract_z
  _atom_site_occupancy
  Cu  Cu1       1.0  0.83021  0.05061  0.58975  1.0000
  Cu  Cu2       1.0  0.16979  0.94939  0.41025  1.0000
  H   H1        1.0  0.81023  0.53567  0.78041  1.0000
  H   H2        1.0  0.18977  0.46433  0.21959  1.0000
  H   H3        1.0  0.79848  0.72959  0.14759  1.0000
  H   H4        1.0  0.20152  0.27041  0.85240  1.0000
  H   H5        1.0  0.67113  0.35366  0.14891  1.0000
  H   H6        1.0  0.32887  0.64634  0.85109  1.0000
  H   H7        1.0  0.86878  0.31208  0.71580  1.0000
  H   H8        1.0  0.13121  0.68793  0.28420  1.0000
  H   H9        1.0  0.55561  0.08757  0.83735  1.0000
  H   H10       1.0  0.44439  0.91242  0.16265  1.0000
  H   H11       1.0  0.52986  0.27889  0.02745  1.0000
  H   H12       1.0  0.47014  0.72111  0.97255  1.0000
  H   H13       1.0  0.75585  0.77282  0.70059  1.0000
  H   H14       1.0  0.24417  0.22717  0.29940  1.0000
  H   H15       1.0  0.04577  0.97920  0.82600  1.0000
  H   H16       1.0  0.95423  0.02080  0.17401  1.0000
  H   H17       1.0  0.99224  0.79492  0.03126  1.0000
  H   H18       1.0  0.00775  0.20508  0.96875  1.0000
  H   H19       1.0  0.59171  0.63951  0.33592  1.0000
  H   H20       1.0  0.40830  0.36049  0.66408  1.0000
  H   H21       1.0  0.79229  0.57023  0.35509  1.0000
  H   H22       1.0  0.20772  0.42977  0.64491  1.0000
  H   H23       1.0  0.89972  0.32029  0.44957  1.0000
  H   H24       1.0  0.10028  0.67971  0.55043  1.0000
  H   H25       1.0  0.51035  0.18027  0.45503  1.0000
  H   H26       1.0  0.48965  0.81974  0.54496  1.0000
  H   H27       1.0  0.43866  0.45108  0.33642  1.0000
  H   H28       1.0  0.56134  0.54892  0.66356  1.0000
  C   C1        1.0  0.73108  0.43754  0.95819  1.0000
  C   C2        1.0  0.26892  0.56246  0.04182  1.0000
  C   C3        1.0  0.78475  0.53884  0.88707  1.0000
  C   C4        1.0  0.21525  0.46115  0.11293  1.0000
  C   C5        1.0  0.81022  0.64219  0.95724  1.0000
  C   C6        1.0  0.18977  0.35781  0.04276  1.0000
  C   C7        1.0  0.78349  0.64514  0.09429  1.0000
  C   C8        1.0  0.21652  0.35485  0.90571  1.0000
  C   C9        1.0  0.73117  0.54172  0.16363  1.0000
  C   C10       1.0  0.26883  0.45828  0.83637  1.0000
  C   C11       1.0  0.70666  0.43721  0.09551  1.0000
  C   C12       1.0  0.29334  0.56279  0.90450  1.0000
  C   C13       1.0  0.77622  0.27966  0.77198  1.0000
  C   C14       1.0  0.22378  0.72034  0.22803  1.0000
  C   C15       1.0  0.61759  0.16201  0.84138  1.0000
  C   C16       1.0  0.38240  0.83799  0.15862  1.0000
  C   C17       1.0  0.60418  0.25540  0.93639  1.0000
  C   C18       1.0  0.39582  0.74459  0.06361  1.0000
  C   C19       1.0  0.82899  0.80167  0.76241  1.0000
  C   C20       1.0  0.17102  0.19833  0.23758  1.0000
  C   C21       1.0  0.97672  0.90880  0.83302  1.0000
  C   C22       1.0  0.02328  0.09120  0.16698  1.0000
  C   C23       1.0  0.95432  0.81682  0.93286  1.0000
  C   C24       1.0  0.04568  0.18318  0.06714  1.0000
  C   C25       1.0  0.69722  0.54957  0.31162  1.0000
  C   C26       1.0  0.30279  0.45042  0.68838  1.0000
  C   C27       1.0  0.78690  0.31529  0.43087  1.0000
  C   C28       1.0  0.21310  0.68471  0.56913  1.0000
  C   C29       1.0  0.58198  0.24766  0.43258  1.0000
  C   C30       1.0  0.41802  0.75234  0.56741  1.0000
  C   C31       1.0  0.54466  0.38124  0.37464  1.0000
  C   C32       1.0  0.45534  0.61875  0.62535  1.0000
  S   S1        1.0  0.83854  0.83343  0.39300  1.0000
  S   S2        1.0  0.16146  0.16658  0.60700  1.0000
  N   N1        1.0  0.70457  0.33003  0.89139  1.0000
  N   N2        1.0  0.29542  0.66996  0.10861  1.0000
  N   N3        1.0  0.72508  0.17820  0.74063  1.0000
  N   N4        1.0  0.27492  0.82179  0.25937  1.0000
  N   N5        1.0  0.86202  0.74801  0.88698  1.0000
  N   N6        1.0  0.13798  0.25198  0.11302  1.0000
  N   N7        1.0  0.89653  0.89870  0.72873  1.0000
  N   N8        1.0  0.10347  0.10130  0.27127  1.0000
  N   N9        1.0  0.67511  0.42234  0.37436  1.0000
  N   N10       1.0  0.32489  0.57767  0.62563  1.0000
  N   N11       1.0  0.73291  0.20899  0.46678  1.0000
  N   N12       1.0  0.26709  0.79101  0.53322  1.0000
  O   O1        1.0  0.93233  0.91797  0.44564  1.0000
  O   O2        1.0  0.06767  0.08203  0.55436  1.0000
  O   O3        1.0  0.69668  0.85471  0.48380  1.0000
  O   O4        1.0  0.30330  0.14532  0.51619  1.0000
  O   O5        1.0  0.94151  0.68303  0.39516  1.0000
  O   O6        1.0  0.05848  0.31697  0.60485  1.0000
  O   O7        1.0  0.80616  0.88651  0.25663  1.0000
  O   O8        1.0  0.19386  0.11349  0.74336  1.0000
