data_image0
_chemical_formula_structural       Cu2H24C30S2N12O8
_chemical_formula_sum              "Cu2 H24 C30 S2 N12 O8"
_cell_length_a       8.54995
_cell_length_b       9.78785
_cell_length_c       9.89836
_cell_angle_alpha    81.5302
_cell_angle_beta     82.5325
_cell_angle_gamma    86.5374

_space_group_name_H-M_alt    "P 1"
_space_group_IT_number       1

loop_
  _space_group_symop_operation_xyz
  'x, y, z'

loop_
  _atom_site_type_symbol
  _atom_site_label
  _atom_site_symmetry_multiplicity
  _atom_site_fract_x
  _atom_site_fract_y
  _atom_site_fract_z
  _atom_site_occupancy
  Cu  Cu1       1.0  0.50000  0.50000  0.50000  1.0000
  Cu  Cu2       1.0  1.00000  0.50000  1.00000  1.0000
  H   H1        1.0  0.37543  0.97716  0.18172  1.0000
  H   H2        1.0  0.62456  0.02284  0.81828  1.0000
  H   H3        1.0  0.11940  0.67215  0.47319  1.0000
  H   H4        1.0  0.88060  0.32786  0.52681  1.0000
  H   H5        1.0  0.22559  0.06052  0.59625  1.0000
  H   H6        1.0  0.77441  0.93948  0.40375  1.0000
  H   H7        1.0  0.44775  0.18060  0.55051  1.0000
  H   H8        1.0  0.55226  0.81940  0.44949  1.0000
  H   H9        1.0  0.43654  0.47439  0.19494  1.0000
  H   H10       1.0  0.56345  0.52561  0.80506  1.0000
  H   H11       1.0  0.31186  0.23147  0.14738  1.0000
  H   H12       1.0  0.68813  0.76853  0.85262  1.0000
  H   H13       1.0  0.02648  0.62777  0.28254  1.0000
  H   H14       1.0  0.97352  0.37223  0.71746  1.0000
  H   H15       1.0  0.34740  0.60779  0.92322  1.0000
  H   H16       1.0  0.65260  0.39221  0.07678  1.0000
  H   H17       1.0  0.46409  0.78307  0.08164  1.0000
  H   H18       1.0  0.53591  0.21693  0.91836  1.0000
  H   H19       1.0  0.10879  0.59336  0.68594  1.0000
  H   H20       1.0  0.89121  0.40664  0.31406  1.0000
  H   H21       1.0  0.92485  0.82941  0.00002  1.0000
  H   H22       1.0  0.07515  0.17059  0.99998  1.0000
  H   H23       1.0  0.04645  0.00967  0.76950  1.0000
  H   H24       1.0  0.95355  0.99033  0.23050  1.0000
  C   C1        1.0  0.30615  0.02985  0.38596  1.0000
  C   C2        1.0  0.69385  0.97015  0.61404  1.0000
  C   C3        1.0  0.31644  0.94404  0.28445  1.0000
  C   C4        1.0  0.68356  0.05596  0.71555  1.0000
  C   C5        1.0  0.24692  0.81591  0.31717  1.0000
  C   C6        1.0  0.75308  0.18409  0.68283  1.0000
  C   C7        1.0  0.17175  0.77285  0.44925  1.0000
  C   C8        1.0  0.82825  0.22715  0.55075  1.0000
  C   C9        1.0  0.16589  0.86074  0.54946  1.0000
  C   C10       1.0  0.83411  0.13927  0.45054  1.0000
  C   C11       1.0  0.23132  0.99055  0.51901  1.0000
  C   C12       1.0  0.76868  0.00945  0.48099  1.0000
  C   C13       1.0  0.43283  0.22705  0.44656  1.0000
  C   C14       1.0  0.56716  0.77295  0.55344  1.0000
  C   C15       1.0  0.42254  0.37564  0.25970  1.0000
  C   C16       1.0  0.57746  0.62436  0.74030  1.0000
  C   C17       1.0  0.36356  0.25603  0.23463  1.0000
  C   C18       1.0  0.63644  0.74397  0.76537  1.0000
  C   C19       1.0  0.12998  0.64408  0.20591  1.0000
  C   C20       1.0  0.87002  0.35592  0.79410  1.0000
  C   C21       1.0  0.29856  0.64067  0.02015  1.0000
  C   C22       1.0  0.70144  0.35933  0.97985  1.0000
  C   C23       1.0  0.35478  0.72960  0.09528  1.0000
  C   C24       1.0  0.64522  0.27040  0.90472  1.0000
  C   C25       1.0  0.06957  0.68166  0.73925  1.0000
  C   C26       1.0  0.93043  0.31834  0.26074  1.0000
  C   C27       1.0  0.98051  0.80889  0.89949  1.0000
  C   C28       1.0  0.01949  0.19111  0.10051  1.0000
  C   C29       1.0  0.03779  0.89832  0.78636  1.0000
  C   C30       1.0  0.96221  0.10168  0.21364  1.0000
  S   S1        1.0  0.27687  0.34439  0.72860  1.0000
  S   S2        1.0  0.72314  0.65561  0.27140  1.0000
  N   N1        1.0  0.37010  0.16273  0.35464  1.0000
  N   N2        1.0  0.62990  0.83727  0.64536  1.0000
  N   N3        1.0  0.46533  0.35571  0.39154  1.0000
  N   N4        1.0  0.53467  0.64429  0.60846  1.0000
  N   N5        1.0  0.24676  0.73130  0.21292  1.0000
  N   N6        1.0  0.75324  0.26869  0.78708  1.0000
  N   N7        1.0  0.15865  0.58912  0.09002  1.0000
  N   N8        1.0  0.84135  0.41088  0.90998  1.0000
  N   N9        1.0  0.09309  0.81659  0.68471  1.0000
  N   N10       1.0  0.90690  0.18341  0.31528  1.0000
  N   N11       1.0  0.00220  0.67502  0.86811  1.0000
  N   N12       1.0  0.99780  0.32498  0.13189  1.0000
  O   O1        1.0  0.45137  0.36871  0.67388  1.0000
  O   O2        1.0  0.54863  0.63129  0.32612  1.0000
  O   O3        1.0  0.18158  0.41557  0.62051  1.0000
  O   O4        1.0  0.81842  0.58443  0.37950  1.0000
  O   O5        1.0  0.25571  0.19312  0.75215  1.0000
  O   O6        1.0  0.74430  0.80688  0.24786  1.0000
  O   O7        1.0  0.24020  0.40406  0.85882  1.0000
  O   O8        1.0  0.75982  0.59594  0.14118  1.0000
