data_image0
_chemical_formula_structural       Ag2P6H68C60S4O4
_chemical_formula_sum              "Ag2 P6 H68 C60 S4 O4"
_cell_length_a       11.0933
_cell_length_b       11.4206
_cell_length_c       13.0546
_cell_angle_alpha    101.155
_cell_angle_beta     91.3883
_cell_angle_gamma    106.157

_space_group_name_H-M_alt    "P 1"
_space_group_IT_number       1

loop_
  _space_group_symop_operation_xyz
  'x, y, z'

loop_
  _atom_site_type_symbol
  _atom_site_label
  _atom_site_symmetry_multiplicity
  _atom_site_fract_x
  _atom_site_fract_y
  _atom_site_fract_z
  _atom_site_occupancy
  Ag  Ag1       1.0  0.39651  0.87677  0.23477  1.0000
  Ag  Ag2       1.0  0.60349  0.12322  0.76522  1.0000
  P   P1        1.0  0.11504  0.74813  0.15435  1.0000
  P   P2        1.0  0.88495  0.25188  0.84565  1.0000
  P   P3        1.0  0.46524  0.81575  0.38933  1.0000
  P   P4        1.0  0.53475  0.18425  0.61067  1.0000
  P   P5        1.0  0.53655  0.04825  0.17334  1.0000
  P   P6        1.0  0.46346  0.95175  0.82666  1.0000
  H   H1        1.0  0.99782  0.50210  0.07613  1.0000
  H   H2        1.0  0.00218  0.49790  0.92386  1.0000
  H   H3        1.0  0.08431  0.47601  0.18158  1.0000
  H   H4        1.0  0.91569  0.52399  0.81842  1.0000
  H   H5        1.0  0.86228  0.34310  0.16770  1.0000
  H   H6        1.0  0.13772  0.65689  0.83229  1.0000
  H   H7        1.0  0.80533  0.47421  0.17153  1.0000
  H   H8        1.0  0.19467  0.52579  0.82846  1.0000
  H   H9        1.0  0.88799  0.45931  0.28464  1.0000
  H   H10       1.0  0.11200  0.54069  0.71535  1.0000
  H   H11       1.0  0.09826  0.82112  0.95407  1.0000
  H   H12       1.0  0.90174  0.17888  0.04592  1.0000
  H   H13       1.0  0.04549  0.92470  0.05070  1.0000
  H   H14       1.0  0.95450  0.07530  0.94929  1.0000
  H   H15       1.0  0.90587  0.86556  0.88197  1.0000
  H   H16       1.0  0.09413  0.13443  0.11802  1.0000
  H   H17       1.0  0.81940  0.80754  0.98374  1.0000
  H   H18       1.0  0.18059  0.19246  0.01625  1.0000
  H   H19       1.0  0.87307  0.70566  0.88701  1.0000
  H   H20       1.0  0.12693  0.29434  0.11298  1.0000
  H   H21       1.0  0.51925  0.66173  0.53577  1.0000
  H   H22       1.0  0.48074  0.33827  0.46423  1.0000
  H   H23       1.0  0.38138  0.48245  0.59760  1.0000
  H   H24       1.0  0.61860  0.51755  0.40240  1.0000
  H   H25       1.0  0.15884  0.39062  0.52439  1.0000
  H   H26       1.0  0.84114  0.60938  0.47560  1.0000
  H   H27       1.0  0.07365  0.47958  0.38787  1.0000
  H   H28       1.0  0.92635  0.52043  0.61213  1.0000
  H   H29       1.0  0.21020  0.66218  0.32882  1.0000
  H   H30       1.0  0.78981  0.33784  0.67118  1.0000
  H   H31       1.0  0.69483  0.93220  0.54369  1.0000
  H   H32       1.0  0.30517  0.06780  0.45632  1.0000
  H   H33       1.0  0.91329  0.92767  0.53211  1.0000
  H   H34       1.0  0.08670  0.07233  0.46790  1.0000
  H   H35       1.0  0.97503  0.79816  0.37600  1.0000
  H   H36       1.0  0.02497  0.20184  0.62401  1.0000
  H   H37       1.0  0.81500  0.67951  0.23019  1.0000
  H   H38       1.0  0.18500  0.32049  0.76982  1.0000
  H   H39       1.0  0.59364  0.68951  0.23772  1.0000
  H   H40       1.0  0.40636  0.31049  0.76228  1.0000
  H   H41       1.0  0.67991  0.26159  0.33796  1.0000
  H   H42       1.0  0.32009  0.73842  0.66204  1.0000
  H   H43       1.0  0.89328  0.31649  0.42588  1.0000
  H   H44       1.0  0.10673  0.68352  0.57412  1.0000
  H   H45       1.0  0.03647  0.18618  0.36921  1.0000
  H   H46       1.0  0.96353  0.81383  0.63079  1.0000
  H   H47       1.0  0.95845  0.99239  0.23230  1.0000
  H   H48       1.0  0.04156  0.00760  0.76771  1.0000
  H   H49       1.0  0.74242  0.93347  0.14670  1.0000
  H   H50       1.0  0.25759  0.06652  0.85332  1.0000
  H   H51       1.0  0.34619  0.13020  0.29114  1.0000
  H   H52       1.0  0.65382  0.86979  0.70886  1.0000
  H   H53       1.0  0.27830  0.32320  0.31566  1.0000
  H   H54       1.0  0.72170  0.67678  0.68434  1.0000
  H   H55       1.0  0.37810  0.49106  0.22215  1.0000
  H   H56       1.0  0.62190  0.50893  0.77786  1.0000
  H   H57       1.0  0.55141  0.46770  0.10806  1.0000
  H   H58       1.0  0.44859  0.53231  0.89194  1.0000
  H   H59       1.0  0.62345  0.27944  0.08816  1.0000
  H   H60       1.0  0.37655  0.72056  0.91183  1.0000
  H   H61       1.0  0.36598  0.92485  0.51956  1.0000
  H   H62       1.0  0.63402  0.07515  0.48044  1.0000
  H   H63       1.0  0.50623  0.91263  0.57603  1.0000
  H   H64       1.0  0.49376  0.08738  0.42397  1.0000
  H   H65       1.0  0.63439  0.09230  0.01267  1.0000
  H   H66       1.0  0.36563  0.90770  0.98733  1.0000
  H   H67       1.0  0.59818  0.93287  0.01994  1.0000
  H   H68       1.0  0.40185  0.06713  0.98006  1.0000
  C   C1        1.0  0.00588  0.51108  0.16145  1.0000
  C   C2        1.0  0.99411  0.48892  0.83854  1.0000
  C   C3        1.0  0.88345  0.44363  0.19884  1.0000
  C   C4        1.0  0.11655  0.55637  0.80115  1.0000
  C   C5        1.0  0.01953  0.82980  0.00194  1.0000
  C   C6        1.0  0.98046  0.17020  0.99806  1.0000
  C   C7        1.0  0.89746  0.80043  0.93501  1.0000
  C   C8        1.0  0.10254  0.19957  0.06498  1.0000
  C   C9        1.0  0.37363  0.67418  0.42847  1.0000
  C   C10       1.0  0.62637  0.32582  0.57153  1.0000
  C   C11       1.0  0.42162  0.62221  0.50339  1.0000
  C   C12       1.0  0.57838  0.37780  0.49661  1.0000
  C   C13       1.0  0.34407  0.52102  0.53802  1.0000
  C   C14       1.0  0.65592  0.47898  0.46198  1.0000
  C   C15       1.0  0.21861  0.46980  0.49694  1.0000
  C   C16       1.0  0.78139  0.53020  0.50305  1.0000
  C   C17       1.0  0.17118  0.51971  0.42072  1.0000
  C   C18       1.0  0.82881  0.48029  0.57927  1.0000
  C   C19       1.0  0.24815  0.62187  0.38674  1.0000
  C   C20       1.0  0.75184  0.37813  0.61326  1.0000
  C   C21       1.0  0.62721  0.80854  0.39207  1.0000
  C   C22       1.0  0.37279  0.19147  0.60794  1.0000
  C   C23       1.0  0.71858  0.87526  0.47454  1.0000
  C   C24       1.0  0.28141  0.12474  0.52547  1.0000
  C   C25       1.0  0.84314  0.87218  0.46851  1.0000
  C   C26       1.0  0.15685  0.12782  0.53150  1.0000
  C   C27       1.0  0.87765  0.80010  0.38161  1.0000
  C   C28       1.0  0.12234  0.19990  0.61840  1.0000
  C   C29       1.0  0.78712  0.73324  0.29902  1.0000
  C   C30       1.0  0.21287  0.26676  0.70099  1.0000
  C   C31       1.0  0.66337  0.73858  0.30366  1.0000
  C   C32       1.0  0.33663  0.26142  0.69634  1.0000
  C   C33       1.0  0.69668  0.09535  0.23472  1.0000
  C   C34       1.0  0.30333  0.90465  0.76528  1.0000
  C   C35       1.0  0.74012  0.20188  0.31471  1.0000
  C   C36       1.0  0.25990  0.79813  0.68529  1.0000
  C   C37       1.0  0.86143  0.23335  0.36366  1.0000
  C   C38       1.0  0.13857  0.76665  0.63635  1.0000
  C   C39       1.0  0.94089  0.15991  0.33242  1.0000
  C   C40       1.0  0.05912  0.84010  0.66759  1.0000
  C   C41       1.0  0.89738  0.05183  0.25426  1.0000
  C   C42       1.0  0.10263  0.94817  0.74575  1.0000
  C   C43       1.0  0.77572  0.01920  0.20625  1.0000
  C   C44       1.0  0.22428  0.98080  0.79376  1.0000
  C   C45       1.0  0.49047  0.19211  0.18973  1.0000
  C   C46       1.0  0.50954  0.80789  0.81027  1.0000
  C   C47       1.0  0.39303  0.20576  0.25317  1.0000
  C   C48       1.0  0.60698  0.79423  0.74684  1.0000
  C   C49       1.0  0.35372  0.31338  0.26569  1.0000
  C   C50       1.0  0.64628  0.68661  0.73431  1.0000
  C   C51       1.0  0.41019  0.40787  0.21351  1.0000
  C   C52       1.0  0.58981  0.59212  0.78650  1.0000
  C   C53       1.0  0.50696  0.39461  0.14954  1.0000
  C   C54       1.0  0.49304  0.60539  0.85047  1.0000
  C   C55       1.0  0.54752  0.28792  0.13807  1.0000
  C   C56       1.0  0.45248  0.71208  0.86194  1.0000
  C   C57       1.0  0.46548  0.93442  0.50682  1.0000
  C   C58       1.0  0.53452  0.06558  0.49317  1.0000
  C   C59       1.0  0.56191  0.01442  0.03316  1.0000
  C   C60       1.0  0.43811  0.98559  0.96684  1.0000
  S   S1        1.0  0.25566  0.69896  0.08197  1.0000
  S   S2        1.0  0.74433  0.30104  0.91802  1.0000
  S   S3        1.0  0.16461  0.90843  0.25840  1.0000
  S   S4        1.0  0.83539  0.09157  0.74160  1.0000
  O   O1        1.0  0.03802  0.64242  0.21340  1.0000
  O   O2        1.0  0.96197  0.35758  0.78659  1.0000
  O   O3        1.0  0.00183  0.74185  0.07081  1.0000
  O   O4        1.0  0.99816  0.25816  0.92919  1.0000
