data_image0
_chemical_formula_structural       Sm4H32C32N4O36
_chemical_formula_sum              "Sm4 H32 C32 N4 O36"
_cell_length_a       7.24817
_cell_length_b       12.0277
_cell_length_c       13.4062
_cell_angle_alpha    95.5571
_cell_angle_beta     90
_cell_angle_gamma    90.0003

_space_group_name_H-M_alt    "P 1"
_space_group_IT_number       1

loop_
  _space_group_symop_operation_xyz
  'x, y, z'

loop_
  _atom_site_type_symbol
  _atom_site_label
  _atom_site_symmetry_multiplicity
  _atom_site_fract_x
  _atom_site_fract_y
  _atom_site_fract_z
  _atom_site_occupancy
  Sm  Sm1       1.0  0.26426  0.28205  0.70710  1.0000
  Sm  Sm2       1.0  0.76426  0.71795  0.79290  1.0000
  Sm  Sm3       1.0  0.73574  0.71795  0.29290  1.0000
  Sm  Sm4       1.0  0.23574  0.28205  0.20710  1.0000
  H   H1        1.0  0.28587  0.12326  0.50343  1.0000
  H   H2        1.0  0.78587  0.87674  0.99657  1.0000
  H   H3        1.0  0.71413  0.87674  0.49657  1.0000
  H   H4        1.0  0.21414  0.12326  0.00343  1.0000
  H   H5        1.0  0.15965  0.06362  0.58021  1.0000
  H   H6        1.0  0.65965  0.93638  0.91979  1.0000
  H   H7        1.0  0.84035  0.93638  0.41979  1.0000
  H   H8        1.0  0.34035  0.06362  0.08021  1.0000
  H   H9        1.0  0.94720  0.11887  0.69490  1.0000
  H   H10       1.0  0.44720  0.88113  0.80510  1.0000
  H   H11       1.0  0.05280  0.88113  0.30510  1.0000
  H   H12       1.0  0.55280  0.11887  0.19490  1.0000
  H   H13       1.0  0.83767  0.23128  0.69904  1.0000
  H   H14       1.0  0.33767  0.76872  0.80096  1.0000
  H   H15       1.0  0.16233  0.76872  0.30096  1.0000
  H   H16       1.0  0.66233  0.23128  0.19904  1.0000
  H   H17       1.0  0.09759  0.36488  0.92347  1.0000
  H   H18       1.0  0.59758  0.63512  0.57653  1.0000
  H   H19       1.0  0.90241  0.63512  0.07653  1.0000
  H   H20       1.0  0.40241  0.36488  0.42347  1.0000
  H   H21       1.0  0.02576  0.43739  0.83472  1.0000
  H   H22       1.0  0.52576  0.56261  0.66528  1.0000
  H   H23       1.0  0.97424  0.56261  0.16528  1.0000
  H   H24       1.0  0.47424  0.43739  0.33472  1.0000
  H   H25       1.0  0.77943  0.47494  0.97618  1.0000
  H   H26       1.0  0.27943  0.52506  0.52382  1.0000
  H   H27       1.0  0.22057  0.52506  0.02382  1.0000
  H   H28       1.0  0.72057  0.47494  0.47618  1.0000
  H   H29       1.0  0.70341  0.12082  0.99895  1.0000
  H   H30       1.0  0.20342  0.87918  0.50105  1.0000
  H   H31       1.0  0.29658  0.87918  0.00105  1.0000
  H   H32       1.0  0.79658  0.12082  0.49895  1.0000
  C   C1        1.0  0.57350  0.38881  0.88219  1.0000
  C   C2        1.0  0.07351  0.61119  0.61782  1.0000
  C   C3        1.0  0.42650  0.61119  0.11781  1.0000
  C   C4        1.0  0.92649  0.38881  0.38218  1.0000
  C   C5        1.0  0.71220  0.39526  0.95456  1.0000
  C   C6        1.0  0.21219  0.60474  0.54544  1.0000
  C   C7        1.0  0.28780  0.60474  0.04544  1.0000
  C   C8        1.0  0.78780  0.39526  0.45456  1.0000
  C   C9        1.0  0.76135  0.29753  0.99665  1.0000
  C   C10       1.0  0.26136  0.70247  0.50335  1.0000
  C   C11       1.0  0.23864  0.70247  0.00335  1.0000
  C   C12       1.0  0.73865  0.29753  0.49665  1.0000
  C   C13       1.0  0.66972  0.19780  0.96648  1.0000
  C   C14       1.0  0.16973  0.80220  0.53352  1.0000
  C   C15       1.0  0.33028  0.80220  0.03352  1.0000
  C   C16       1.0  0.83027  0.19780  0.46648  1.0000
  C   C17       1.0  0.53484  0.19869  0.89254  1.0000
  C   C18       1.0  0.03484  0.80131  0.60746  1.0000
  C   C19       1.0  0.46515  0.80131  0.10746  1.0000
  C   C20       1.0  0.96515  0.19869  0.39254  1.0000
  C   C21       1.0  0.52030  0.48631  0.82560  1.0000
  C   C22       1.0  0.02030  0.51369  0.67441  1.0000
  C   C23       1.0  0.47970  0.51369  0.17440  1.0000
  C   C24       1.0  0.97970  0.48631  0.32559  1.0000
  C   C25       1.0  0.91755  0.29509  0.06932  1.0000
  C   C26       1.0  0.41755  0.70492  0.43068  1.0000
  C   C27       1.0  0.08245  0.70491  0.93068  1.0000
  C   C28       1.0  0.58245  0.29508  0.56932  1.0000
  C   C29       1.0  0.43120  0.09593  0.84956  1.0000
  C   C30       1.0  0.93121  0.90407  0.65044  1.0000
  C   C31       1.0  0.56880  0.90407  0.15044  1.0000
  C   C32       1.0  0.06879  0.09593  0.34956  1.0000
  N   N1        1.0  0.48878  0.29236  0.85221  1.0000
  N   N2        1.0  0.98879  0.70765  0.64779  1.0000
  N   N3        1.0  0.51121  0.70765  0.14779  1.0000
  N   N4        1.0  0.01121  0.29235  0.35221  1.0000
  O   O1        1.0  0.42886  0.46425  0.74483  1.0000
  O   O2        1.0  0.92885  0.53575  0.75517  1.0000
  O   O3        1.0  0.57114  0.53575  0.25517  1.0000
  O   O4        1.0  0.07115  0.46425  0.24483  1.0000
  O   O5        1.0  0.57487  0.58258  0.85938  1.0000
  O   O6        1.0  0.07487  0.41742  0.64062  1.0000
  O   O7        1.0  0.42513  0.41742  0.14061  1.0000
  O   O8        1.0  0.92513  0.58258  0.35938  1.0000
  O   O9        1.0  0.07398  0.33340  0.04452  1.0000
  O   O10       1.0  0.57399  0.66660  0.45548  1.0000
  O   O11       1.0  0.92602  0.66660  0.95548  1.0000
  O   O12       1.0  0.42601  0.33339  0.54452  1.0000
  O   O13       1.0  0.89416  0.25165  0.15088  1.0000
  O   O14       1.0  0.39416  0.74835  0.34912  1.0000
  O   O15       1.0  0.10584  0.74835  0.84912  1.0000
  O   O16       1.0  0.60584  0.25165  0.65088  1.0000
  O   O17       1.0  0.47388  0.00241  0.87915  1.0000
  O   O18       1.0  0.97389  0.99759  0.62085  1.0000
  O   O19       1.0  0.52612  0.99759  0.12085  1.0000
  O   O20       1.0  0.02611  0.00241  0.37915  1.0000
  O   O21       1.0  0.30404  0.11198  0.78735  1.0000
  O   O22       1.0  0.80403  0.88802  0.71265  1.0000
  O   O23       1.0  0.69596  0.88802  0.21265  1.0000
  O   O24       1.0  0.19597  0.11198  0.28735  1.0000
  O   O25       1.0  0.25428  0.12304  0.57371  1.0000
  O   O26       1.0  0.75428  0.87696  0.92628  1.0000
  O   O27       1.0  0.74572  0.87696  0.42628  1.0000
  O   O28       1.0  0.24572  0.12304  0.07372  1.0000
  O   O29       1.0  0.95545  0.19950  0.72049  1.0000
  O   O30       1.0  0.45544  0.80050  0.77951  1.0000
  O   O31       1.0  0.04456  0.80050  0.27951  1.0000
  O   O32       1.0  0.54456  0.19950  0.22049  1.0000
  O   O33       1.0  0.12302  0.38627  0.85484  1.0000
  O   O34       1.0  0.62302  0.61373  0.64516  1.0000
  O   O35       1.0  0.87698  0.61373  0.14516  1.0000
  O   O36       1.0  0.37698  0.38627  0.35484  1.0000
