data_image0
_chemical_formula_structural       Ag2P6H68C60S4O4
_chemical_formula_sum              "Ag2 P6 H68 C60 S4 O4"
_cell_length_a       11.7554
_cell_length_b       12.7478
_cell_length_c       13.0584
_cell_angle_alpha    60.9626
_cell_angle_beta     77.3044
_cell_angle_gamma    69.3278

_space_group_name_H-M_alt    "P 1"
_space_group_IT_number       1

loop_
  _space_group_symop_operation_xyz
  'x, y, z'

loop_
  _atom_site_type_symbol
  _atom_site_label
  _atom_site_symmetry_multiplicity
  _atom_site_fract_x
  _atom_site_fract_y
  _atom_site_fract_z
  _atom_site_occupancy
  Ag  Ag1       1.0  0.81386  0.80266  0.59434  1.0000
  Ag  Ag2       1.0  0.18614  0.19734  0.40566  1.0000
  P   P1        1.0  0.74211  0.72344  0.85796  1.0000
  P   P2        1.0  0.25789  0.27656  0.14203  1.0000
  P   P3        1.0  0.67549  0.89507  0.43995  1.0000
  P   P4        1.0  0.32451  0.10493  0.56005  1.0000
  P   P5        1.0  0.01983  0.81121  0.52068  1.0000
  P   P6        1.0  0.98017  0.18879  0.47932  1.0000
  H   H1        1.0  0.50875  0.74033  0.83915  1.0000
  H   H2        1.0  0.49125  0.25967  0.16085  1.0000
  H   H3        1.0  0.47675  0.86183  0.88207  1.0000
  H   H4        1.0  0.52325  0.13818  0.11792  1.0000
  H   H5        1.0  0.32956  0.73942  0.98954  1.0000
  H   H6        1.0  0.67044  0.26059  0.01046  1.0000
  H   H7        1.0  0.43097  0.70700  0.09172  1.0000
  H   H8        1.0  0.56903  0.29301  0.90828  1.0000
  H   H9        1.0  0.44863  0.59588  0.03953  1.0000
  H   H10       1.0  0.55137  0.40412  0.96047  1.0000
  H   H11       1.0  0.88051  0.81977  0.93751  1.0000
  H   H12       1.0  0.11949  0.18023  0.06250  1.0000
  H   H13       1.0  0.76309  0.76526  0.04245  1.0000
  H   H14       1.0  0.23690  0.23474  0.95755  1.0000
  H   H15       1.0  0.95398  0.70348  0.14113  1.0000
  H   H16       1.0  0.04601  0.29652  0.85888  1.0000
  H   H17       1.0  0.03613  0.61702  0.06081  1.0000
  H   H18       1.0  0.96387  0.38298  0.93920  1.0000
  H   H19       1.0  0.91656  0.56987  0.16482  1.0000
  H   H20       1.0  0.08343  0.43013  0.83518  1.0000
  H   H21       1.0  0.75265  0.62523  0.54091  1.0000
  H   H22       1.0  0.24735  0.37476  0.45909  1.0000
  H   H23       1.0  0.70067  0.47261  0.50574  1.0000
  H   H24       1.0  0.29933  0.52739  0.49426  1.0000
  H   H25       1.0  0.53850  0.54778  0.37119  1.0000
  H   H26       1.0  0.46150  0.45222  0.62881  1.0000
  H   H27       1.0  0.42797  0.77551  0.27218  1.0000
  H   H28       1.0  0.57204  0.22449  0.72782  1.0000
  H   H29       1.0  0.48200  0.92761  0.30335  1.0000
  H   H30       1.0  0.51801  0.07239  0.69665  1.0000
  H   H31       1.0  0.75486  0.83545  0.23614  1.0000
  H   H32       1.0  0.24515  0.16456  0.76385  1.0000
  H   H33       1.0  0.86735  0.93273  0.04747  1.0000
  H   H34       1.0  0.13265  0.06728  0.95252  1.0000
  H   H35       1.0  0.93117  0.11859  0.99940  1.0000
  H   H36       1.0  0.06883  0.88142  0.00060  1.0000
  H   H37       1.0  0.87733  0.20995  0.14117  1.0000
  H   H38       1.0  0.12266  0.79005  0.85883  1.0000
  H   H39       1.0  0.76212  0.11646  0.32766  1.0000
  H   H40       1.0  0.23787  0.88354  0.67235  1.0000
  H   H41       1.0  0.99497  0.61474  0.48839  1.0000
  H   H42       1.0  0.00502  0.38526  0.51161  1.0000
  H   H43       1.0  0.07565  0.53807  0.33553  1.0000
  H   H44       1.0  0.92435  0.46193  0.66447  1.0000
  H   H45       1.0  0.20181  0.64646  0.16379  1.0000
  H   H46       1.0  0.79819  0.35354  0.83621  1.0000
  H   H47       1.0  0.24256  0.83694  0.13969  1.0000
  H   H48       1.0  0.75744  0.16306  0.86031  1.0000
  H   H49       1.0  0.16374  0.91371  0.28966  1.0000
  H   H50       1.0  0.83627  0.08628  0.71034  1.0000
  H   H51       1.0  0.28641  0.78195  0.47893  1.0000
  H   H52       1.0  0.71359  0.21805  0.52107  1.0000
  H   H53       1.0  0.45428  0.66808  0.61326  1.0000
  H   H54       1.0  0.54572  0.33192  0.38675  1.0000
  H   H55       1.0  0.41235  0.54388  0.82785  1.0000
  H   H56       1.0  0.58765  0.45612  0.17215  1.0000
  H   H57       1.0  0.20151  0.53495  0.90654  1.0000
  H   H58       1.0  0.79849  0.46504  0.09347  1.0000
  H   H59       1.0  0.03123  0.65300  0.77216  1.0000
  H   H60       1.0  0.96877  0.34699  0.22785  1.0000
  H   H61       1.0  0.57058  0.09831  0.43073  1.0000
  H   H62       1.0  0.42941  0.90169  0.56927  1.0000
  H   H63       1.0  0.48310  0.05908  0.36691  1.0000
  H   H64       1.0  0.51690  0.94091  0.63309  1.0000
  H   H65       1.0  0.12022  0.97776  0.42668  1.0000
  H   H66       1.0  0.87978  0.02223  0.57333  1.0000
  H   H67       1.0  0.97327  0.02716  0.37725  1.0000
  H   H68       1.0  0.02673  0.97284  0.62275  1.0000
  C   C1        1.0  0.50620  0.75954  0.91347  1.0000
  C   C2        1.0  0.49380  0.24046  0.08653  1.0000
  C   C3        1.0  0.42426  0.69636  0.01484  1.0000
  C   C4        1.0  0.57574  0.30365  0.98516  1.0000
  C   C5        1.0  0.85471  0.73539  0.00434  1.0000
  C   C6        1.0  0.14529  0.26461  0.99566  1.0000
  C   C7        1.0  0.94572  0.65144  0.09769  1.0000
  C   C8        1.0  0.05427  0.34856  0.90231  1.0000
  C   C9        1.0  0.62186  0.78625  0.42430  1.0000
  C   C10       1.0  0.37814  0.21374  0.57570  1.0000
  C   C11       1.0  0.68227  0.65773  0.48124  1.0000
  C   C12       1.0  0.31774  0.34227  0.51875  1.0000
  C   C13       1.0  0.65256  0.57220  0.46185  1.0000
  C   C14       1.0  0.34744  0.42780  0.53815  1.0000
  C   C15       1.0  0.56149  0.61461  0.38624  1.0000
  C   C16       1.0  0.43851  0.38539  0.61376  1.0000
  C   C17       1.0  0.49980  0.74228  0.33057  1.0000
  C   C18       1.0  0.50020  0.25772  0.66943  1.0000
  C   C19       1.0  0.53008  0.82806  0.34885  1.0000
  C   C20       1.0  0.46992  0.17194  0.65115  1.0000
  C   C21       1.0  0.74987  0.96905  0.29543  1.0000
  C   C22       1.0  0.25012  0.03095  0.70457  1.0000
  C   C23       1.0  0.78110  0.91779  0.21563  1.0000
  C   C24       1.0  0.21890  0.08222  0.78436  1.0000
  C   C25       1.0  0.84566  0.97192  0.10971  1.0000
  C   C26       1.0  0.15434  0.02809  0.89028  1.0000
  C   C27       1.0  0.88150  0.07633  0.08262  1.0000
  C   C28       1.0  0.11850  0.92368  0.91738  1.0000
  C   C29       1.0  0.85109  0.12769  0.16164  1.0000
  C   C30       1.0  0.14890  0.87232  0.83837  1.0000
  C   C31       1.0  0.78541  0.07484  0.26711  1.0000
  C   C32       1.0  0.21458  0.92516  0.73289  1.0000
  C   C33       1.0  0.07648  0.76680  0.40142  1.0000
  C   C34       1.0  0.92352  0.23320  0.59858  1.0000
  C   C35       1.0  0.05107  0.66192  0.41246  1.0000
  C   C36       1.0  0.94893  0.33809  0.58754  1.0000
  C   C37       1.0  0.09599  0.61909  0.32730  1.0000
  C   C38       1.0  0.90400  0.38091  0.67270  1.0000
  C   C39       1.0  0.16645  0.68099  0.22969  1.0000
  C   C40       1.0  0.83355  0.31901  0.77031  1.0000
  C   C41       1.0  0.18966  0.78698  0.21689  1.0000
  C   C42       1.0  0.81034  0.21302  0.78311  1.0000
  C   C43       1.0  0.14489  0.83027  0.30201  1.0000
  C   C44       1.0  0.85511  0.16973  0.69799  1.0000
  C   C45       1.0  0.14713  0.72558  0.61704  1.0000
  C   C46       1.0  0.85287  0.27442  0.38296  1.0000
  C   C47       1.0  0.26669  0.72934  0.57274  1.0000
  C   C48       1.0  0.73331  0.27065  0.42726  1.0000
  C   C49       1.0  0.36166  0.66492  0.64839  1.0000
  C   C50       1.0  0.63834  0.33508  0.35161  1.0000
  C   C51       1.0  0.33811  0.59538  0.76870  1.0000
  C   C52       1.0  0.66189  0.40462  0.23130  1.0000
  C   C53       1.0  0.21974  0.59054  0.81314  1.0000
  C   C54       1.0  0.78026  0.40945  0.18686  1.0000
  C   C55       1.0  0.12417  0.65598  0.73758  1.0000
  C   C56       1.0  0.87583  0.34402  0.26243  1.0000
  C   C57       1.0  0.53779  0.02227  0.44199  1.0000
  C   C58       1.0  0.46220  0.97773  0.55801  1.0000
  C   C59       1.0  0.02624  0.97323  0.45591  1.0000
  C   C60       1.0  0.97376  0.02677  0.54409  1.0000
  S   S1        1.0  0.76697  0.61087  0.78555  1.0000
  S   S2        1.0  0.23303  0.38913  0.21445  1.0000
  S   S3        1.0  0.72529  0.90358  0.74683  1.0000
  S   S4        1.0  0.27472  0.09642  0.25317  1.0000
  O   O1        1.0  0.62806  0.71038  0.95432  1.0000
  O   O2        1.0  0.37194  0.28962  0.04567  1.0000
  O   O3        1.0  0.84999  0.66530  0.94478  1.0000
  O   O4        1.0  0.15001  0.33470  0.05522  1.0000
