data_image0
_chemical_formula_structural       Cd4H40C40N32O28
_chemical_formula_sum              "Cd4 H40 C40 N32 O28"
_cell_length_a       8.61179
_cell_length_b       13.5794
_cell_length_c       15.0661
_cell_angle_alpha    107.025
_cell_angle_beta     90.0002
_cell_angle_gamma    90.0004

_space_group_name_H-M_alt    "P 1"
_space_group_IT_number       1

loop_
  _space_group_symop_operation_xyz
  'x, y, z'

loop_
  _atom_site_type_symbol
  _atom_site_label
  _atom_site_symmetry_multiplicity
  _atom_site_fract_x
  _atom_site_fract_y
  _atom_site_fract_z
  _atom_site_occupancy
  Cd  Cd1       1.0  0.69610  0.99924  0.24147  1.0000
  Cd  Cd2       1.0  0.19608  0.50077  0.75853  1.0000
  Cd  Cd3       1.0  0.30390  0.00077  0.75852  1.0000
  Cd  Cd4       1.0  0.80392  0.49923  0.24148  1.0000
  H   H1        1.0  0.38466  0.71490  0.98491  1.0000
  H   H2        1.0  0.88464  0.78510  0.01508  1.0000
  H   H3        1.0  0.61535  0.28511  0.01509  1.0000
  H   H4        1.0  0.11536  0.21490  0.98492  1.0000
  H   H5        1.0  0.21974  0.75383  0.05847  1.0000
  H   H6        1.0  0.71972  0.74616  0.94153  1.0000
  H   H7        1.0  0.78026  0.24618  0.94153  1.0000
  H   H8        1.0  0.28027  0.25383  0.05847  1.0000
  H   H9        1.0  0.29939  0.80677  0.20457  1.0000
  H   H10       1.0  0.79937  0.69324  0.79543  1.0000
  H   H11       1.0  0.70061  0.19324  0.79542  1.0000
  H   H12       1.0  0.20063  0.30676  0.20458  1.0000
  H   H13       1.0  0.42762  0.79767  0.34928  1.0000
  H   H14       1.0  0.92759  0.70234  0.65072  1.0000
  H   H15       1.0  0.57239  0.20233  0.65071  1.0000
  H   H16       1.0  0.07241  0.29766  0.34929  1.0000
  H   H17       1.0  0.87297  0.09368  0.44319  1.0000
  H   H18       1.0  0.37295  0.40634  0.55681  1.0000
  H   H19       1.0  0.12702  0.90633  0.55680  1.0000
  H   H20       1.0  0.62704  0.59365  0.44320  1.0000
  H   H21       1.0  0.54591  0.82326  0.50326  1.0000
  H   H22       1.0  0.04590  0.67675  0.49673  1.0000
  H   H23       1.0  0.45409  0.17674  0.49673  1.0000
  H   H24       1.0  0.95411  0.32325  0.50327  1.0000
  H   H25       1.0  0.88432  0.06607  0.59959  1.0000
  H   H26       1.0  0.38432  0.43394  0.40042  1.0000
  H   H27       1.0  0.11567  0.93394  0.40041  1.0000
  H   H28       1.0  0.61568  0.56605  0.59959  1.0000
  H   H29       1.0  0.71967  0.92546  0.63008  1.0000
  H   H30       1.0  0.21967  0.57455  0.36992  1.0000
  H   H31       1.0  0.28033  0.07454  0.36992  1.0000
  H   H32       1.0  0.78035  0.42544  0.63009  1.0000
  H   H33       1.0  0.45502  0.84547  0.87979  1.0000
  H   H34       1.0  0.95502  0.65452  0.12021  1.0000
  H   H35       1.0  0.54498  0.15453  0.12021  1.0000
  H   H36       1.0  0.04497  0.34547  0.87979  1.0000
  H   H37       1.0  0.00415  0.96978  0.90548  1.0000
  H   H38       1.0  0.50414  0.53022  0.09452  1.0000
  H   H39       1.0  0.99586  0.03023  0.09452  1.0000
  H   H40       1.0  0.49585  0.46978  0.90548  1.0000
  C   C1        1.0  0.32064  0.78164  0.02875  1.0000
  C   C2        1.0  0.82063  0.71836  0.97125  1.0000
  C   C3        1.0  0.67935  0.21837  0.97125  1.0000
  C   C4        1.0  0.17936  0.28164  0.02876  1.0000
  C   C5        1.0  0.50908  0.85313  0.33490  1.0000
  C   C6        1.0  0.00906  0.64688  0.66511  1.0000
  C   C7        1.0  0.49092  0.14687  0.66512  1.0000
  C   C8        1.0  0.99094  0.35311  0.33490  1.0000
  C   C9        1.0  0.43324  0.84187  0.10288  1.0000
  C   C10       1.0  0.93324  0.65813  0.89712  1.0000
  C   C11       1.0  0.56675  0.15814  0.89712  1.0000
  C   C12       1.0  0.06676  0.34186  0.10289  1.0000
  C   C13       1.0  0.80250  0.03442  0.45920  1.0000
  C   C14       1.0  0.30249  0.46560  0.54080  1.0000
  C   C15       1.0  0.19750  0.96559  0.54080  1.0000
  C   C16       1.0  0.69752  0.53440  0.45921  1.0000
  C   C17       1.0  0.61630  0.90702  0.40826  1.0000
  C   C18       1.0  0.11628  0.59299  0.59174  1.0000
  C   C19       1.0  0.38371  0.09298  0.59174  1.0000
  C   C20       1.0  0.88372  0.40701  0.40827  1.0000
  C   C21       1.0  0.61887  0.88460  0.49304  1.0000
  C   C22       1.0  0.11886  0.61541  0.50696  1.0000
  C   C23       1.0  0.38113  0.11540  0.50695  1.0000
  C   C24       1.0  0.88115  0.38459  0.49305  1.0000
  C   C25       1.0  0.80861  0.01824  0.54652  1.0000
  C   C26       1.0  0.30860  0.48177  0.45349  1.0000
  C   C27       1.0  0.19139  0.98176  0.45348  1.0000
  C   C28       1.0  0.69140  0.51822  0.54652  1.0000
  C   C29       1.0  0.71717  0.94093  0.56312  1.0000
  C   C30       1.0  0.21717  0.55908  0.43688  1.0000
  C   C31       1.0  0.28283  0.05907  0.43688  1.0000
  C   C32       1.0  0.78284  0.44091  0.56313  1.0000
  C   C33       1.0  0.33821  0.86940  0.90343  1.0000
  C   C34       1.0  0.83822  0.63060  0.09657  1.0000
  C   C35       1.0  0.66179  0.13060  0.09656  1.0000
  C   C36       1.0  0.16180  0.36940  0.90343  1.0000
  C   C37       1.0  0.10714  0.92936  0.91715  1.0000
  C   C38       1.0  0.60714  0.57064  0.08286  1.0000
  C   C39       1.0  0.89286  0.07065  0.08284  1.0000
  C   C40       1.0  0.39285  0.42936  0.91715  1.0000
  N   N1        1.0  0.70924  0.98001  0.39154  1.0000
  N   N2        1.0  0.20923  0.52000  0.60846  1.0000
  N   N3        1.0  0.29075  0.01999  0.60846  1.0000
  N   N4        1.0  0.79077  0.48000  0.39155  1.0000
  N   N5        1.0  0.51226  0.87342  0.25654  1.0000
  N   N6        1.0  0.01223  0.62658  0.74345  1.0000
  N   N7        1.0  0.48774  0.12658  0.74344  1.0000
  N   N8        1.0  0.98776  0.37342  0.25655  1.0000
  N   N9        1.0  0.26408  0.84244  0.97112  1.0000
  N   N10       1.0  0.76408  0.65755  0.02887  1.0000
  N   N11       1.0  0.73592  0.15756  0.02887  1.0000
  N   N12       1.0  0.23591  0.34244  0.97113  1.0000
  N   N13       1.0  0.41004  0.82811  0.18842  1.0000
  N   N14       1.0  0.91001  0.67190  0.81157  1.0000
  N   N15       1.0  0.58997  0.17190  0.81157  1.0000
  N   N16       1.0  0.08998  0.32810  0.18843  1.0000
  N   N17       1.0  0.24110  0.92489  0.86813  1.0000
  N   N18       1.0  0.74110  0.57510  0.13186  1.0000
  N   N19       1.0  0.75890  0.07511  0.13186  1.0000
  N   N20       1.0  0.25889  0.42489  0.86814  1.0000
  N   N21       1.0  0.59241  0.20362  0.34544  1.0000
  N   N22       1.0  0.09245  0.29637  0.65457  1.0000
  N   N23       1.0  0.40759  0.79638  0.65456  1.0000
  N   N24       1.0  0.90756  0.70363  0.34544  1.0000
  N   N25       1.0  0.00707  0.87306  0.21080  1.0000
  N   N26       1.0  0.50706  0.62694  0.78919  1.0000
  N   N27       1.0  0.99293  0.12694  0.78920  1.0000
  N   N28       1.0  0.49294  0.37306  0.21081  1.0000
  N   N29       1.0  0.11614  0.88039  0.98141  1.0000
  N   N30       1.0  0.61614  0.61960  0.01858  1.0000
  N   N31       1.0  0.88386  0.11961  0.01858  1.0000
  N   N32       1.0  0.38386  0.38040  0.98142  1.0000
  O   O1        1.0  0.54161  0.89255  0.08471  1.0000
  O   O2        1.0  0.04160  0.60745  0.91527  1.0000
  O   O3        1.0  0.45837  0.10747  0.91528  1.0000
  O   O4        1.0  0.95839  0.39254  0.08473  1.0000
  O   O5        1.0  0.50121  0.13223  0.29779  1.0000
  O   O6        1.0  0.00122  0.36775  0.70220  1.0000
  O   O7        1.0  0.49880  0.86777  0.70221  1.0000
  O   O8        1.0  0.99879  0.63225  0.29781  1.0000
  O   O9        1.0  0.05494  0.96280  0.24806  1.0000
  O   O10       1.0  0.55493  0.53721  0.75193  1.0000
  O   O11       1.0  0.94507  0.03720  0.75193  1.0000
  O   O12       1.0  0.44507  0.46279  0.24807  1.0000
  O   O13       1.0  0.73829  0.18596  0.34108  1.0000
  O   O14       1.0  0.23832  0.31405  0.65891  1.0000
  O   O15       1.0  0.26171  0.81404  0.65891  1.0000
  O   O16       1.0  0.76168  0.68594  0.34109  1.0000
  O   O17       1.0  0.86536  0.85689  0.18408  1.0000
  O   O18       1.0  0.36535  0.64311  0.81591  1.0000
  O   O19       1.0  0.13464  0.14311  0.81592  1.0000
  O   O20       1.0  0.63465  0.35689  0.18409  1.0000
  O   O21       1.0  0.09505  0.79494  0.19778  1.0000
  O   O22       1.0  0.59505  0.70506  0.80221  1.0000
  O   O23       1.0  0.90494  0.20506  0.80221  1.0000
  O   O24       1.0  0.40495  0.29494  0.19779  1.0000
  O   O25       1.0  0.53808  0.28673  0.39496  1.0000
  O   O26       1.0  0.03816  0.21323  0.60507  1.0000
  O   O27       1.0  0.46192  0.71326  0.60504  1.0000
  O   O28       1.0  0.96184  0.78677  0.39494  1.0000
