data_image0
_chemical_formula_structural       Mn4H12C28N4O16
_chemical_formula_sum              "Mn4 H12 C28 N4 O16"
_cell_length_a       6.00358
_cell_length_b       7.35254
_cell_length_c       14.6592
_cell_angle_alpha    90
_cell_angle_beta     89.9998
_cell_angle_gamma    90

_space_group_name_H-M_alt    "P 1"
_space_group_IT_number       1

loop_
  _space_group_symop_operation_xyz
  'x, y, z'

loop_
  _atom_site_type_symbol
  _atom_site_label
  _atom_site_symmetry_multiplicity
  _atom_site_fract_x
  _atom_site_fract_y
  _atom_site_fract_z
  _atom_site_occupancy
  Mn  Mn1       1.0  0.09023  0.13108  0.54020  1.0000
  Mn  Mn2       1.0  0.90977  0.63109  0.45980  1.0000
  Mn  Mn3       1.0  0.90976  0.13107  0.04020  1.0000
  Mn  Mn4       1.0  0.09023  0.63109  0.95980  1.0000
  H   H1        1.0  0.95731  0.15701  0.25210  1.0000
  H   H2        1.0  0.04269  0.65702  0.74790  1.0000
  H   H3        1.0  0.04269  0.15701  0.75209  1.0000
  H   H4        1.0  0.95731  0.65701  0.24791  1.0000
  H   H5        1.0  0.22976  0.44091  0.19944  1.0000
  H   H6        1.0  0.77024  0.94092  0.80056  1.0000
  H   H7        1.0  0.77024  0.44092  0.69943  1.0000
  H   H8        1.0  0.22976  0.94092  0.30056  1.0000
  H   H9        1.0  0.47838  0.34804  0.07239  1.0000
  H   H10       1.0  0.52161  0.84806  0.92760  1.0000
  H   H11       1.0  0.52161  0.34805  0.57239  1.0000
  H   H12       1.0  0.47839  0.84806  0.42761  1.0000
  C   C1        1.0  0.79513  0.22113  0.24314  1.0000
  C   C2        1.0  0.20487  0.72114  0.75686  1.0000
  C   C3        1.0  0.20487  0.22113  0.74314  1.0000
  C   C4        1.0  0.79513  0.72113  0.25686  1.0000
  C   C5        1.0  0.66844  0.27167  0.31888  1.0000
  C   C6        1.0  0.33156  0.77167  0.68112  1.0000
  C   C7        1.0  0.33156  0.27167  0.81888  1.0000
  C   C8        1.0  0.66843  0.77166  0.18112  1.0000
  C   C9        1.0  0.45710  0.35003  0.30459  1.0000
  C   C10       1.0  0.54290  0.85002  0.69541  1.0000
  C   C11       1.0  0.54290  0.35002  0.80459  1.0000
  C   C12       1.0  0.45709  0.85002  0.19541  1.0000
  C   C13       1.0  0.39103  0.38004  0.21456  1.0000
  C   C14       1.0  0.60897  0.88005  0.78544  1.0000
  C   C15       1.0  0.60896  0.38005  0.71456  1.0000
  C   C16       1.0  0.39103  0.88004  0.28544  1.0000
  C   C17       1.0  0.52880  0.32732  0.14292  1.0000
  C   C18       1.0  0.47119  0.82734  0.85708  1.0000
  C   C19       1.0  0.47119  0.32733  0.64292  1.0000
  C   C20       1.0  0.52881  0.82733  0.35708  1.0000
  C   C21       1.0  0.77419  0.24663  0.41016  1.0000
  C   C22       1.0  0.22581  0.74663  0.58983  1.0000
  C   C23       1.0  0.22581  0.24663  0.91017  1.0000
  C   C24       1.0  0.77419  0.74661  0.08984  1.0000
  C   C25       1.0  0.29581  0.38590  0.38167  1.0000
  C   C26       1.0  0.70419  0.88590  0.61833  1.0000
  C   C27       1.0  0.70419  0.38589  0.88166  1.0000
  C   C28       1.0  0.29581  0.88588  0.11834  1.0000
  N   N1        1.0  0.72742  0.24631  0.15662  1.0000
  N   N2        1.0  0.27257  0.74632  0.84338  1.0000
  N   N3        1.0  0.27258  0.24632  0.65662  1.0000
  N   N4        1.0  0.72742  0.74632  0.34338  1.0000
  O   O1        1.0  0.88229  0.10117  0.42365  1.0000
  O   O2        1.0  0.11771  0.60118  0.57635  1.0000
  O   O3        1.0  0.11771  0.10117  0.92366  1.0000
  O   O4        1.0  0.88230  0.60116  0.07635  1.0000
  O   O5        1.0  0.76620  0.37590  0.46880  1.0000
  O   O6        1.0  0.23381  0.87590  0.53120  1.0000
  O   O7        1.0  0.23381  0.37590  0.96880  1.0000
  O   O8        1.0  0.76620  0.87588  0.03120  1.0000
  O   O9        1.0  0.30040  0.27372  0.44736  1.0000
  O   O10       1.0  0.69960  0.77372  0.55263  1.0000
  O   O11       1.0  0.69961  0.27371  0.94736  1.0000
  O   O12       1.0  0.30040  0.77371  0.05264  1.0000
  O   O13       1.0  0.16434  0.52041  0.37211  1.0000
  O   O14       1.0  0.83567  0.02041  0.62789  1.0000
  O   O15       1.0  0.83566  0.52041  0.87211  1.0000
  O   O16       1.0  0.16433  0.02040  0.12790  1.0000
