data_image0
_chemical_formula_structural       Cd2H28C40Br4N6O2
_chemical_formula_sum              "Cd2 H28 C40 Br4 N6 O2"
_cell_length_a       8.02825
_cell_length_b       9.29792
_cell_length_c       13.663
_cell_angle_alpha    79.8369
_cell_angle_beta     83.5172
_cell_angle_gamma    77.3473

_space_group_name_H-M_alt    "P 1"
_space_group_IT_number       1

loop_
  _space_group_symop_operation_xyz
  'x, y, z'

loop_
  _atom_site_type_symbol
  _atom_site_label
  _atom_site_symmetry_multiplicity
  _atom_site_fract_x
  _atom_site_fract_y
  _atom_site_fract_z
  _atom_site_occupancy
  Cd  Cd1       1.0  0.46038  0.52173  0.14218  1.0000
  Cd  Cd2       1.0  0.53957  0.47827  0.85781  1.0000
  H   H1        1.0  0.54915  0.93314  0.75860  1.0000
  H   H2        1.0  0.45084  0.06685  0.24142  1.0000
  H   H3        1.0  0.75763  0.84378  0.85356  1.0000
  H   H4        1.0  0.24237  0.15623  0.14643  1.0000
  H   H5        1.0  0.56368  0.23357  0.99842  1.0000
  H   H6        1.0  0.43634  0.76644  0.00159  1.0000
  H   H7        1.0  0.74606  0.12627  0.13353  1.0000
  H   H8        1.0  0.25397  0.87376  0.86647  1.0000
  H   H9        1.0  0.19302  0.93537  0.51256  1.0000
  H   H10       1.0  0.80698  0.06462  0.48744  1.0000
  H   H11       1.0  0.22204  0.50776  0.71827  1.0000
  H   H12       1.0  0.77797  0.49224  0.28171  1.0000
  H   H13       1.0  0.93583  0.73105  0.99458  1.0000
  H   H14       1.0  0.06422  0.26900  0.00540  1.0000
  H   H15       1.0  0.38328  0.02223  0.57845  1.0000
  H   H16       1.0  0.61673  0.97772  0.42157  1.0000
  H   H17       1.0  0.18479  0.24476  0.49304  1.0000
  H   H18       1.0  0.81522  0.75519  0.50697  1.0000
  H   H19       1.0  0.02285  0.03902  0.36637  1.0000
  H   H20       1.0  0.97714  0.96099  0.63363  1.0000
  H   H21       1.0  0.36082  0.51628  0.40056  1.0000
  H   H22       1.0  0.63916  0.48371  0.59943  1.0000
  H   H23       1.0  0.35740  0.67335  0.53193  1.0000
  H   H24       1.0  0.64259  0.32664  0.46806  1.0000
  H   H25       1.0  0.92398  0.02622  0.22472  1.0000
  H   H26       1.0  0.07603  0.97380  0.77528  1.0000
  H   H27       1.0  0.10207  0.47900  0.56406  1.0000
  H   H28       1.0  0.89796  0.52096  0.43593  1.0000
  C   C1        1.0  0.54476  0.12000  0.83353  1.0000
  C   C2        1.0  0.45523  0.88001  0.16648  1.0000
  C   C3        1.0  0.85707  0.91891  0.07358  1.0000
  C   C4        1.0  0.14297  0.08109  0.92641  1.0000
  C   C5        1.0  0.75485  0.90604  0.91456  1.0000
  C   C6        1.0  0.24516  0.09398  0.08545  1.0000
  C   C7        1.0  0.37102  0.28031  0.73498  1.0000
  C   C8        1.0  0.62899  0.71967  0.26501  1.0000
  C   C9        1.0  0.08996  0.83850  0.29957  1.0000
  C   C10       1.0  0.91003  0.16151  0.70043  1.0000
  C   C11       1.0  0.64973  0.12600  0.99533  1.0000
  C   C12       1.0  0.35027  0.87401  0.00467  1.0000
  C   C13       1.0  0.75194  0.06359  0.07249  1.0000
  C   C14       1.0  0.24808  0.93642  0.92751  1.0000
  C   C15       1.0  0.19152  0.86718  0.45574  1.0000
  C   C16       1.0  0.80846  0.13281  0.54427  1.0000
  C   C17       1.0  0.25688  0.40340  0.68809  1.0000
  C   C18       1.0  0.74315  0.59659  0.31190  1.0000
  C   C19       1.0  0.85498  0.84193  0.99266  1.0000
  C   C20       1.0  0.14506  0.15808  0.00733  1.0000
  C   C21       1.0  0.34769  0.12707  0.60803  1.0000
  C   C22       1.0  0.65233  0.87290  0.39198  1.0000
  C   C23       1.0  0.64993  0.05032  0.91406  1.0000
  C   C24       1.0  0.35005  0.94970  0.08595  1.0000
  C   C25       1.0  0.19563  0.68666  0.30610  1.0000
  C   C26       1.0  0.80436  0.31334  0.69389  1.0000
  C   C27       1.0  0.23743  0.25119  0.56189  1.0000
  C   C28       1.0  0.76259  0.74878  0.43811  1.0000
  C   C29       1.0  0.09684  0.92452  0.37447  1.0000
  C   C30       1.0  0.90314  0.07547  0.62553  1.0000
  C   C31       1.0  0.41073  0.14333  0.69564  1.0000
  C   C32       1.0  0.58928  0.85667  0.30436  1.0000
  C   C33       1.0  0.28698  0.63055  0.39460  1.0000
  C   C34       1.0  0.71300  0.36946  0.60540  1.0000
  C   C35       1.0  0.28528  0.71770  0.46627  1.0000
  C   C36       1.0  0.71470  0.28230  0.53373  1.0000
  C   C37       1.0  0.98511  0.90863  0.22023  1.0000
  C   C38       1.0  0.01490  0.09138  0.77977  1.0000
  C   C39       1.0  0.19112  0.38601  0.60225  1.0000
  C   C40       1.0  0.80890  0.61396  0.39773  1.0000
  Br  Br1       1.0  0.26311  0.51054  0.99879  1.0000
  Br  Br2       1.0  0.73683  0.48947  0.00120  1.0000
  Br  Br3       1.0  0.54314  0.28013  0.27674  1.0000
  Br  Br4       1.0  0.45672  0.71990  0.72327  1.0000
  N   N1        1.0  0.51893  0.04635  0.75946  1.0000
  N   N2        1.0  0.48107  0.95365  0.24056  1.0000
  N   N3        1.0  0.45803  0.26354  0.81883  1.0000
  N   N4        1.0  0.54197  0.73646  0.18118  1.0000
  N   N5        1.0  0.96099  0.84289  0.14706  1.0000
  N   N6        1.0  0.03904  0.15713  0.85292  1.0000
  O   O1        1.0  0.21083  0.60997  0.23594  1.0000
  O   O2        1.0  0.78917  0.39004  0.76406  1.0000
