data_image0
_chemical_formula_structural       Cd4H48C64S4N8O20
_chemical_formula_sum              "Cd4 H48 C64 S4 N8 O20"
_cell_length_a       8.88656
_cell_length_b       8.88496
_cell_length_c       22.838
_cell_angle_alpha    97.8321
_cell_angle_beta     97.8416
_cell_angle_gamma    107.418

_space_group_name_H-M_alt    "P 1"
_space_group_IT_number       1

loop_
  _space_group_symop_operation_xyz
  'x, y, z'

loop_
  _atom_site_type_symbol
  _atom_site_label
  _atom_site_symmetry_multiplicity
  _atom_site_fract_x
  _atom_site_fract_y
  _atom_site_fract_z
  _atom_site_occupancy
  Cd  Cd1       1.0  0.23922  0.33721  0.89487  1.0000
  Cd  Cd2       1.0  0.44267  0.34450  0.10524  1.0000
  Cd  Cd3       1.0  0.59494  0.19286  0.60510  1.0000
  Cd  Cd4       1.0  0.58765  0.98984  0.39481  1.0000
  H   H1        1.0  0.75293  0.19731  0.00308  1.0000
  H   H2        1.0  0.19461  0.75029  0.99697  1.0000
  H   H3        1.0  0.00059  0.94479  0.49674  1.0000
  H   H4        1.0  0.44794  0.50421  0.50307  1.0000
  H   H5        1.0  0.49932  0.95034  0.00757  1.0000
  H   H6        1.0  0.94365  0.49180  0.99262  1.0000
  H   H7        1.0  0.74221  0.69373  0.49240  1.0000
  H   H8        1.0  0.20155  0.24997  0.50746  1.0000
  H   H9        1.0  0.11562  0.65426  0.90852  1.0000
  H   H10       1.0  0.74575  0.20657  0.09165  1.0000
  H   H11       1.0  0.45715  0.49585  0.59152  1.0000
  H   H12       1.0  0.90357  0.86425  0.40833  1.0000
  H   H13       1.0  0.01520  0.82771  0.84661  1.0000
  H   H14       1.0  0.98109  0.16826  0.15361  1.0000
  H   H15       1.0  0.41838  0.73090  0.65351  1.0000
  H   H16       1.0  0.07671  0.76401  0.34629  1.0000
  H   H17       1.0  0.95011  0.73728  0.73314  1.0000
  H   H18       1.0  0.00435  0.21721  0.26709  1.0000
  H   H19       1.0  0.46638  0.75346  0.76696  1.0000
  H   H20       1.0  0.98632  0.69970  0.23282  1.0000
  H   H21       1.0  0.99920  0.49096  0.68868  1.0000
  H   H22       1.0  0.80253  0.31094  0.31149  1.0000
  H   H23       1.0  0.55982  0.55142  0.81134  1.0000
  H   H24       1.0  0.73994  0.74896  0.18852  1.0000
  H   H25       1.0  0.03105  0.28652  0.65751  1.0000
  H   H26       1.0  0.62893  0.37318  0.34258  1.0000
  H   H27       1.0  0.62220  0.37775  0.84236  1.0000
  H   H28       1.0  0.53499  0.77960  0.15754  1.0000
  H   H29       1.0  0.09618  0.04230  0.62253  1.0000
  H   H30       1.0  0.41958  0.47309  0.37754  1.0000
  H   H31       1.0  0.72214  0.16836  0.87730  1.0000
  H   H32       1.0  0.29065  0.84455  0.12263  1.0000
  H   H33       1.0  0.23418  0.92050  0.69737  1.0000
  H   H34       1.0  0.22323  0.53660  0.30272  1.0000
  H   H35       1.0  0.78608  0.97233  0.80249  1.0000
  H   H36       1.0  0.16964  0.98348  0.19746  1.0000
  H   H37       1.0  0.29429  0.05131  0.80707  1.0000
  H   H38       1.0  0.24446  0.48731  0.19304  1.0000
  H   H39       1.0  0.73757  0.99423  0.69284  1.0000
  H   H40       1.0  0.30123  0.04459  0.30710  1.0000
  H   H41       1.0  0.50171  0.28587  0.96725  1.0000
  H   H42       1.0  0.31894  0.53443  0.03273  1.0000
  H   H43       1.0  0.78501  0.06928  0.53267  1.0000
  H   H44       1.0  0.53666  0.25248  0.46729  1.0000
  H   H45       1.0  0.35290  0.13983  0.96701  1.0000
  H   H46       1.0  0.17306  0.38619  0.03322  1.0000
  H   H47       1.0  0.63647  0.92354  0.53301  1.0000
  H   H48       1.0  0.39038  0.10357  0.46674  1.0000
  C   C1        1.0  0.47754  0.63837  0.93961  1.0000
  C   C2        1.0  0.69935  0.53764  0.06043  1.0000
  C   C3        1.0  0.78815  0.44970  0.56039  1.0000
  C   C4        1.0  0.88931  0.22761  0.43954  1.0000
  C   C5        1.0  0.98411  0.13063  0.93387  1.0000
  C   C6        1.0  0.19649  0.05069  0.06616  1.0000
  C   C7        1.0  0.30093  0.94698  0.56605  1.0000
  C   C8        1.0  0.38038  0.73529  0.43388  1.0000
  C   C9        1.0  0.83659  0.02809  0.94949  1.0000
  C   C10       1.0  0.07863  0.88738  0.05047  1.0000
  C   C11       1.0  0.13765  0.82911  0.55040  1.0000
  C   C12       1.0  0.27830  0.58758  0.44954  1.0000
  C   C13       1.0  0.73276  0.07288  0.98296  1.0000
  C   C14       1.0  0.09028  0.75010  0.01709  1.0000
  C   C15       1.0  0.00042  0.84055  0.51692  1.0000
  C   C16       1.0  0.32346  0.48381  0.48296  1.0000
  C   C17       1.0  0.59682  0.94203  0.98446  1.0000
  C   C18       1.0  0.95820  0.61243  0.01565  1.0000
  C   C19       1.0  0.86282  0.70842  0.51549  1.0000
  C   C20       1.0  0.19291  0.34750  0.48441  1.0000
  C   C21       1.0  0.59849  0.79961  0.95145  1.0000
  C   C22       1.0  0.84868  0.64691  0.04863  1.0000
  C   C23       1.0  0.89735  0.59905  0.54856  1.0000
  C   C24       1.0  0.05036  0.34883  0.45140  1.0000
  C   C25       1.0  0.08977  0.62310  0.85967  1.0000
  C   C26       1.0  0.76346  0.22975  0.14050  1.0000
  C   C27       1.0  0.48001  0.51335  0.64037  1.0000
  C   C28       1.0  0.87231  0.83865  0.35949  1.0000
  C   C29       1.0  0.03159  0.71809  0.82481  1.0000
  C   C30       1.0  0.89332  0.20659  0.17539  1.0000
  C   C31       1.0  0.45654  0.64301  0.67528  1.0000
  C   C32       1.0  0.96713  0.78057  0.32455  1.0000
  C   C33       1.0  0.99804  0.66872  0.76249  1.0000
  C   C34       1.0  0.90640  0.23567  0.23771  1.0000
  C   C35       1.0  0.48509  0.65569  0.73758  1.0000
  C   C36       1.0  0.91777  0.74741  0.26223  1.0000
  C   C37       1.0  0.02709  0.53062  0.73736  1.0000
  C   C38       1.0  0.79349  0.28999  0.26281  1.0000
  C   C39       1.0  0.53925  0.54263  0.76267  1.0000
  C   C40       1.0  0.77972  0.77666  0.23718  1.0000
  C   C41       1.0  0.09017  0.44437  0.77553  1.0000
  C   C42       1.0  0.66902  0.31469  0.22460  1.0000
  C   C43       1.0  0.56435  0.41842  0.72445  1.0000
  C   C44       1.0  0.69363  0.83964  0.27545  1.0000
  C   C45       1.0  0.12900  0.29947  0.75145  1.0000
  C   C46       1.0  0.54818  0.37756  0.24866  1.0000
  C   C47       1.0  0.62719  0.29750  0.74848  1.0000
  C   C48       1.0  0.54874  0.87854  0.25143  1.0000
  C   C49       1.0  0.09082  0.23350  0.68983  1.0000
  C   C50       1.0  0.54370  0.40078  0.31026  1.0000
  C   C51       1.0  0.65002  0.29268  0.81006  1.0000
  C   C52       1.0  0.48231  0.83979  0.18985  1.0000
  C   C53       1.0  0.12772  0.09602  0.67012  1.0000
  C   C54       1.0  0.42586  0.45729  0.32997  1.0000
  C   C55       1.0  0.70649  0.17479  0.82974  1.0000
  C   C56       1.0  0.34476  0.87658  0.17019  1.0000
  C   C57       1.0  0.20270  0.02734  0.71174  1.0000
  C   C58       1.0  0.31571  0.49081  0.28836  1.0000
  C   C59       1.0  0.74033  0.06487  0.78814  1.0000
  C   C60       1.0  0.27652  0.95209  0.21180  1.0000
  C   C61       1.0  0.23700  0.09972  0.77221  1.0000
  C   C62       1.0  0.32772  0.46482  0.22789  1.0000
  C   C63       1.0  0.71476  0.07724  0.72770  1.0000
  C   C64       1.0  0.34937  0.98698  0.27224  1.0000
  S   S1        1.0  0.76556  0.82661  0.91883  1.0000
  S   S2        1.0  0.90786  0.84671  0.08114  1.0000
  S   S3        1.0  0.09704  0.65845  0.58117  1.0000
  S   S4        1.0  0.07685  0.51606  0.41887  1.0000
  N   N1        1.0  0.11860  0.49038  0.83593  1.0000
  N   N2        1.0  0.65452  0.28245  0.16421  1.0000
  N   N3        1.0  0.53262  0.40431  0.66406  1.0000
  N   N4        1.0  0.73969  0.86782  0.33583  1.0000
  N   N5        1.0  0.20134  0.23208  0.79139  1.0000
  N   N6        1.0  0.44092  0.41004  0.20871  1.0000
  N   N7        1.0  0.66009  0.19055  0.70854  1.0000
  N   N8        1.0  0.48180  0.95141  0.29138  1.0000
  O   O1        1.0  0.40558  0.20762  0.93991  1.0000
  O   O2        1.0  0.26815  0.46596  0.06019  1.0000
  O   O3        1.0  0.71632  0.01847  0.56005  1.0000
  O   O4        1.0  0.45849  0.15656  0.43980  1.0000
  O   O5        1.0  0.35886  0.61283  0.96701  1.0000
  O   O6        1.0  0.64652  0.39158  0.03301  1.0000
  O   O7        1.0  0.64211  0.39679  0.53294  1.0000
  O   O8        1.0  0.86391  0.10893  0.46694  1.0000
  O   O9        1.0  0.49482  0.53068  0.90020  1.0000
  O   O10       1.0  0.63096  0.59429  0.09982  1.0000
  O   O11       1.0  0.84482  0.38138  0.59981  1.0000
  O   O12       1.0  0.78157  0.24479  0.40010  1.0000
  O   O13       1.0  0.04140  0.27983  0.95907  1.0000
  O   O14       1.0  0.32071  0.08300  0.04108  1.0000
  O   O15       1.0  0.33327  0.07107  0.54088  1.0000
  O   O16       1.0  0.52974  0.79256  0.45893  1.0000
  O   O17       1.0  0.04556  0.06877  0.89375  1.0000
  O   O18       1.0  0.17437  0.15210  0.10621  1.0000
  O   O19       1.0  0.40234  0.92493  0.60613  1.0000
  O   O20       1.0  0.31810  0.79681  0.39392  1.0000
