data_image0
_chemical_formula_structural       Cd4H40C72S4N8O16
_chemical_formula_sum              "Cd4 H40 C72 S4 N8 O16"
_cell_length_a       7.45685
_cell_length_b       9.93776
_cell_length_c       21.7268
_cell_angle_alpha    89.9999
_cell_angle_beta     90.0003
_cell_angle_gamma    103.805

_space_group_name_H-M_alt    "P 1"
_space_group_IT_number       1

loop_
  _space_group_symop_operation_xyz
  'x, y, z'

loop_
  _atom_site_type_symbol
  _atom_site_label
  _atom_site_symmetry_multiplicity
  _atom_site_fract_x
  _atom_site_fract_y
  _atom_site_fract_z
  _atom_site_occupancy
  Cd  Cd1       1.0  0.80876  0.96858  0.55666  1.0000
  Cd  Cd2       1.0  0.19124  0.53142  0.05666  1.0000
  Cd  Cd3       1.0  0.19123  0.03142  0.44334  1.0000
  Cd  Cd4       1.0  0.80876  0.46857  0.94334  1.0000
  H   H1        1.0  0.47362  0.13064  0.59022  1.0000
  H   H2        1.0  0.52639  0.36937  0.09022  1.0000
  H   H3        1.0  0.52639  0.86936  0.40979  1.0000
  H   H4        1.0  0.47362  0.63064  0.90979  1.0000
  H   H5        1.0  0.32440  0.19941  0.68407  1.0000
  H   H6        1.0  0.67560  0.30060  0.18407  1.0000
  H   H7        1.0  0.67559  0.80058  0.31594  1.0000
  H   H8        1.0  0.32441  0.69941  0.81593  1.0000
  H   H9        1.0  0.44800  0.15053  0.78955  1.0000
  H   H10       1.0  0.55200  0.34947  0.28956  1.0000
  H   H11       1.0  0.55200  0.84946  0.21045  1.0000
  H   H12       1.0  0.44800  0.65053  0.71045  1.0000
  H   H13       1.0  0.11944  0.80816  0.80146  1.0000
  H   H14       1.0  0.88056  0.69184  0.30146  1.0000
  H   H15       1.0  0.88055  0.19183  0.19854  1.0000
  H   H16       1.0  0.11945  0.30817  0.69854  1.0000
  H   H17       1.0  0.25941  0.75108  0.70059  1.0000
  H   H18       1.0  0.74059  0.74892  0.20059  1.0000
  H   H19       1.0  0.74059  0.24891  0.29941  1.0000
  H   H20       1.0  0.25942  0.25109  0.79941  1.0000
  H   H21       1.0  0.13125  0.81662  0.60187  1.0000
  H   H22       1.0  0.86875  0.68339  0.10187  1.0000
  H   H23       1.0  0.86875  0.18338  0.39813  1.0000
  H   H24       1.0  0.13125  0.31662  0.89813  1.0000
  H   H25       1.0  0.65425  0.04904  0.84964  1.0000
  H   H26       1.0  0.34575  0.45096  0.34964  1.0000
  H   H27       1.0  0.34575  0.95096  0.15036  1.0000
  H   H28       1.0  0.65424  0.54904  0.65036  1.0000
  H   H29       1.0  0.90452  0.91815  0.85429  1.0000
  H   H30       1.0  0.09548  0.58184  0.35428  1.0000
  H   H31       1.0  0.09548  0.08184  0.14572  1.0000
  H   H32       1.0  0.90452  0.41816  0.64571  1.0000
  H   H33       1.0  0.33573  0.64113  0.42906  1.0000
  H   H34       1.0  0.66427  0.85887  0.92906  1.0000
  H   H35       1.0  0.66427  0.35887  0.57094  1.0000
  H   H36       1.0  0.33573  0.14112  0.07094  1.0000
  H   H37       1.0  0.11530  0.38639  0.42656  1.0000
  H   H38       1.0  0.88469  0.11361  0.92656  1.0000
  H   H39       1.0  0.88470  0.61361  0.57344  1.0000
  H   H40       1.0  0.11529  0.88639  0.07344  1.0000
  C   C1        1.0  0.51994  0.10950  0.63624  1.0000
  C   C2        1.0  0.48006  0.39051  0.13624  1.0000
  C   C3        1.0  0.48006  0.89050  0.36376  1.0000
  C   C4        1.0  0.51994  0.60950  0.86376  1.0000
  C   C5        1.0  0.43773  0.14878  0.68946  1.0000
  C   C6        1.0  0.56228  0.35123  0.18947  1.0000
  C   C7        1.0  0.56228  0.85122  0.31054  1.0000
  C   C8        1.0  0.43772  0.64878  0.81054  1.0000
  C   C9        1.0  0.50258  0.12081  0.74642  1.0000
  C   C10       1.0  0.49742  0.37919  0.24642  1.0000
  C   C11       1.0  0.49742  0.87918  0.25358  1.0000
  C   C12       1.0  0.50258  0.62081  0.75358  1.0000
  C   C13       1.0  0.64666  0.05124  0.75018  1.0000
  C   C14       1.0  0.35334  0.44876  0.25018  1.0000
  C   C15       1.0  0.35335  0.94876  0.24982  1.0000
  C   C16       1.0  0.64665  0.55124  0.74982  1.0000
  C   C17       1.0  0.72166  0.01483  0.69420  1.0000
  C   C18       1.0  0.27834  0.48517  0.19420  1.0000
  C   C19       1.0  0.27834  0.98517  0.30581  1.0000
  C   C20       1.0  0.72166  0.51483  0.80581  1.0000
  C   C21       1.0  0.86844  0.94232  0.69693  1.0000
  C   C22       1.0  0.13157  0.55768  0.19693  1.0000
  C   C23       1.0  0.13157  0.05768  0.30307  1.0000
  C   C24       1.0  0.86844  0.44232  0.80307  1.0000
  C   C25       1.0  0.93159  0.90858  0.75538  1.0000
  C   C26       1.0  0.06840  0.59142  0.25537  1.0000
  C   C27       1.0  0.06841  0.09142  0.24462  1.0000
  C   C28       1.0  0.93160  0.40858  0.74462  1.0000
  C   C29       1.0  0.07386  0.83677  0.75666  1.0000
  C   C30       1.0  0.92615  0.66323  0.25666  1.0000
  C   C31       1.0  0.92615  0.16322  0.24334  1.0000
  C   C32       1.0  0.07386  0.33678  0.74334  1.0000
  C   C33       1.0  0.14788  0.80404  0.70201  1.0000
  C   C34       1.0  0.85213  0.69596  0.20201  1.0000
  C   C35       1.0  0.85212  0.19595  0.29799  1.0000
  C   C36       1.0  0.14788  0.30405  0.79799  1.0000
  C   C37       1.0  0.07770  0.84108  0.64620  1.0000
  C   C38       1.0  0.92230  0.65893  0.14620  1.0000
  C   C39       1.0  0.92230  0.15892  0.35380  1.0000
  C   C40       1.0  0.07770  0.34107  0.85380  1.0000
  C   C41       1.0  0.71514  0.01685  0.80815  1.0000
  C   C42       1.0  0.28486  0.48316  0.30815  1.0000
  C   C43       1.0  0.28487  0.98315  0.19185  1.0000
  C   C44       1.0  0.71513  0.51685  0.69185  1.0000
  C   C45       1.0  0.85193  0.94700  0.81063  1.0000
  C   C46       1.0  0.14807  0.55300  0.31063  1.0000
  C   C47       1.0  0.14808  0.05300  0.18937  1.0000
  C   C48       1.0  0.85192  0.44700  0.68937  1.0000
  C   C49       1.0  0.49828  0.73851  0.54874  1.0000
  C   C50       1.0  0.50173  0.76149  0.04874  1.0000
  C   C51       1.0  0.50171  0.26149  0.45126  1.0000
  C   C52       1.0  0.49828  0.23851  0.95126  1.0000
  C   C53       1.0  0.35952  0.61465  0.52755  1.0000
  C   C54       1.0  0.64048  0.88536  0.02755  1.0000
  C   C55       1.0  0.64047  0.38536  0.47245  1.0000
  C   C56       1.0  0.35952  0.11464  0.97245  1.0000
  C   C57       1.0  0.29570  0.57457  0.46894  1.0000
  C   C58       1.0  0.70430  0.92543  0.96894  1.0000
  C   C59       1.0  0.70429  0.42543  0.53106  1.0000
  C   C60       1.0  0.29570  0.07457  0.03106  1.0000
  C   C61       1.0  0.18033  0.43917  0.46755  1.0000
  C   C62       1.0  0.81967  0.06083  0.96755  1.0000
  C   C63       1.0  0.81967  0.56083  0.53245  1.0000
  C   C64       1.0  0.18032  0.93917  0.03245  1.0000
  C   C65       1.0  0.15784  0.37810  0.52521  1.0000
  C   C66       1.0  0.84216  0.12190  0.02520  1.0000
  C   C67       1.0  0.84216  0.62190  0.47479  1.0000
  C   C68       1.0  0.15783  0.87810  0.97479  1.0000
  C   C69       1.0  0.05316  0.23971  0.54474  1.0000
  C   C70       1.0  0.94685  0.26029  0.04474  1.0000
  C   C71       1.0  0.94684  0.76029  0.45526  1.0000
  C   C72       1.0  0.05315  0.73970  0.95526  1.0000
  S   S1        1.0  0.27629  0.48720  0.58088  1.0000
  S   S2        1.0  0.72372  0.01280  0.08088  1.0000
  S   S3        1.0  0.72370  0.51281  0.41912  1.0000
  S   S4        1.0  0.27628  0.98719  0.91912  1.0000
  N   N1        1.0  0.65809  0.04614  0.63883  1.0000
  N   N2        1.0  0.34192  0.45387  0.13882  1.0000
  N   N3        1.0  0.34192  0.95386  0.36118  1.0000
  N   N4        1.0  0.65809  0.54614  0.86117  1.0000
  N   N5        1.0  0.94206  0.90674  0.64404  1.0000
  N   N6        1.0  0.05794  0.59326  0.14404  1.0000
  N   N7        1.0  0.05794  0.09326  0.35596  1.0000
  N   N8        1.0  0.94206  0.40674  0.85596  1.0000
  O   O1        1.0  0.54446  0.74412  0.60467  1.0000
  O   O2        1.0  0.45556  0.75588  0.10467  1.0000
  O   O3        1.0  0.45553  0.25588  0.39533  1.0000
  O   O4        1.0  0.54445  0.24412  0.89533  1.0000
  O   O5        1.0  0.56865  0.83082  0.50776  1.0000
  O   O6        1.0  0.43135  0.66918  0.00776  1.0000
  O   O7        1.0  0.43135  0.16918  0.49223  1.0000
  O   O8        1.0  0.56865  0.33082  0.99224  1.0000
  O   O9        1.0  0.03667  0.21313  0.60119  1.0000
  O   O10       1.0  0.96334  0.28687  0.10119  1.0000
  O   O11       1.0  0.96333  0.78687  0.39881  1.0000
  O   O12       1.0  0.03666  0.71313  0.89881  1.0000
  O   O13       1.0  0.98109  0.15034  0.50183  1.0000
  O   O14       1.0  0.01892  0.34967  0.00183  1.0000
  O   O15       1.0  0.01891  0.84967  0.49818  1.0000
  O   O16       1.0  0.98108  0.65033  0.99817  1.0000
