data_image0
_chemical_formula_structural       Co4H56C40O16
_chemical_formula_sum              "Co4 H56 C40 O16"
_cell_length_a       6.78229
_cell_length_b       12.4101
_cell_length_c       12.5932
_cell_angle_alpha    90.0631
_cell_angle_beta     103.828
_cell_angle_gamma    89.9511

_space_group_name_H-M_alt    "P 1"
_space_group_IT_number       1

loop_
  _space_group_symop_operation_xyz
  'x, y, z'

loop_
  _atom_site_type_symbol
  _atom_site_label
  _atom_site_symmetry_multiplicity
  _atom_site_fract_x
  _atom_site_fract_y
  _atom_site_fract_z
  _atom_site_occupancy
  Co  Co1       1.0  0.30181  0.07069  0.24163  1.0000
  Co  Co2       1.0  0.69827  0.57151  0.75931  1.0000
  Co  Co3       1.0  0.80654  0.97628  0.24195  1.0000
  Co  Co4       1.0  0.19333  0.47726  0.75764  1.0000
  H   H1        1.0  0.28840  0.74893  0.78342  1.0000
  H   H2        1.0  0.71041  0.24929  0.21615  1.0000
  H   H3        1.0  0.93272  0.89720  0.76256  1.0000
  H   H4        1.0  0.06758  0.39633  0.23609  1.0000
  H   H5        1.0  0.14386  0.90897  0.70477  1.0000
  H   H6        1.0  0.85876  0.40844  0.29569  1.0000
  H   H7        1.0  0.08711  0.99942  0.91782  1.0000
  H   H8        1.0  0.91145  0.50012  0.08284  1.0000
  H   H9        1.0  0.25726  0.04408  0.84135  1.0000
  H   H10       1.0  0.74143  0.54365  0.16003  1.0000
  H   H11       1.0  0.61232  0.99044  0.89784  1.0000
  H   H12       1.0  0.38694  0.49097  0.10238  1.0000
  H   H13       1.0  0.52931  0.87189  0.82196  1.0000
  H   H14       1.0  0.46853  0.37182  0.17740  1.0000
  H   H15       1.0  0.68323  0.86214  0.95689  1.0000
  H   H16       1.0  0.31544  0.36317  0.04212  1.0000
  H   H17       1.0  0.54354  0.69700  0.93743  1.0000
  H   H18       1.0  0.45508  0.19758  0.06214  1.0000
  H   H19       1.0  0.35717  0.62490  0.98557  1.0000
  H   H20       1.0  0.64057  0.12531  0.01319  1.0000
  H   H21       1.0  0.51737  0.71897  0.07256  1.0000
  H   H22       1.0  0.48052  0.22000  0.92698  1.0000
  H   H23       1.0  0.18881  0.79604  0.10398  1.0000
  H   H24       1.0  0.80938  0.29631  0.89557  1.0000
  H   H25       1.0  0.03910  0.70790  0.00749  1.0000
  H   H26       1.0  0.95928  0.20787  0.99159  1.0000
  H   H27       1.0  0.00082  0.84960  0.99514  1.0000
  H   H28       1.0  0.99777  0.34955  0.00441  1.0000
  H   H29       1.0  0.51768  0.61637  0.51562  1.0000
  H   H30       1.0  0.48334  0.11762  0.48453  1.0000
  H   H31       1.0  0.11848  0.51648  0.40240  1.0000
  H   H32       1.0  0.88151  0.01666  0.59773  1.0000
  H   H33       1.0  0.35494  0.50538  0.36924  1.0000
  H   H34       1.0  0.64482  0.00676  0.63083  1.0000
  H   H35       1.0  0.23027  0.63419  0.22920  1.0000
  H   H36       1.0  0.77179  0.13525  0.77110  1.0000
  H   H37       1.0  0.02126  0.66436  0.28402  1.0000
  H   H38       1.0  0.98006  0.16512  0.71568  1.0000
  H   H39       1.0  0.50940  0.76760  0.25733  1.0000
  H   H40       1.0  0.49167  0.26848  0.74300  1.0000
  H   H41       1.0  0.59101  0.68219  0.37180  1.0000
  H   H42       1.0  0.41012  0.18322  0.62827  1.0000
  H   H43       1.0  0.60044  0.82461  0.38876  1.0000
  H   H44       1.0  0.40066  0.32565  0.61175  1.0000
  H   H45       1.0  0.38701  0.90096  0.54101  1.0000
  H   H46       1.0  0.61448  0.40176  0.45942  1.0000
  H   H47       1.0  0.58945  0.80616  0.55868  1.0000
  H   H48       1.0  0.41188  0.30717  0.44172  1.0000
  H   H49       1.0  0.42190  0.80197  0.64612  1.0000
  H   H50       1.0  0.57942  0.30262  0.35424  1.0000
  H   H51       1.0  0.06549  0.73887  0.58313  1.0000
  H   H52       1.0  0.93585  0.23976  0.41717  1.0000
  H   H53       1.0  0.96045  0.70344  0.44498  1.0000
  H   H54       1.0  0.04088  0.20397  0.55517  1.0000
  H   H55       1.0  0.01858  0.83997  0.48123  1.0000
  H   H56       1.0  0.98275  0.34057  0.51951  1.0000
  C   C1        1.0  0.36842  0.90789  0.94931  1.0000
  C   C2        1.0  0.63076  0.40821  0.05080  1.0000
  C   C3        1.0  0.27484  0.79066  0.94816  1.0000
  C   C4        1.0  0.72398  0.29081  0.05150  1.0000
  C   C5        1.0  0.17088  0.77879  0.82296  1.0000
  C   C6        1.0  0.82815  0.27865  0.17660  1.0000
  C   C7        1.0  0.09870  0.89232  0.78122  1.0000
  C   C8        1.0  0.90166  0.39189  0.21857  1.0000
  C   C9        1.0  0.19728  0.97170  0.87272  1.0000
  C   C10       1.0  0.80183  0.47171  0.12787  1.0000
  C   C11       1.0  0.42117  0.95094  0.06657  1.0000
  C   C12       1.0  0.57893  0.45150  0.93368  1.0000
  C   C13       1.0  0.00822  0.69426  0.80117  1.0000
  C   C14       1.0  0.99009  0.19352  0.19834  1.0000
  C   C15       1.0  0.55967  0.90751  0.90409  1.0000
  C   C16       1.0  0.43903  0.40797  0.09559  1.0000
  C   C17       1.0  0.43317  0.70318  0.98802  1.0000
  C   C18       1.0  0.56506  0.20373  0.01134  1.0000
  C   C19       1.0  0.11630  0.78641  0.01692  1.0000
  C   C20       1.0  0.88223  0.28646  0.98254  1.0000
  C   C21       1.0  0.29326  0.75538  0.35924  1.0000
  C   C22       1.0  0.70790  0.25626  0.64106  1.0000
  C   C23       1.0  0.28723  0.74129  0.48358  1.0000
  C   C24       1.0  0.71404  0.24207  0.51671  1.0000
  C   C25       1.0  0.35097  0.61967  0.50041  1.0000
  C   C26       1.0  0.65007  0.12054  0.49971  1.0000
  C   C27       1.0  0.24973  0.56304  0.39212  1.0000
  C   C28       1.0  0.75077  0.06384  0.60795  1.0000
  C   C29       1.0  0.18615  0.65265  0.30565  1.0000
  C   C30       1.0  0.81516  0.15351  0.69445  1.0000
  C   C31       1.0  0.18469  0.85965  0.31396  1.0000
  C   C32       1.0  0.81645  0.36053  0.68638  1.0000
  C   C33       1.0  0.30068  0.57224  0.60028  1.0000
  C   C34       1.0  0.69983  0.07289  0.39963  1.0000
  C   C35       1.0  0.51168  0.75804  0.34428  1.0000
  C   C36       1.0  0.48949  0.25901  0.65602  1.0000
  C   C37       1.0  0.43025  0.81686  0.56146  1.0000
  C   C38       1.0  0.57109  0.31768  0.43890  1.0000
  C   C39       1.0  0.07032  0.75658  0.49834  1.0000
  C   C40       1.0  0.93097  0.25725  0.50203  1.0000
  O   O1        1.0  0.29343  0.01209  0.09626  1.0000
  O   O2        1.0  0.70782  0.51200  0.90440  1.0000
  O   O3        1.0  0.58873  0.91849  0.12879  1.0000
  O   O4        1.0  0.41100  0.41983  0.87132  1.0000
  O   O5        1.0  0.82028  0.71859  0.76918  1.0000
  O   O6        1.0  0.17806  0.21752  0.23110  1.0000
  O   O7        1.0  0.05059  0.59316  0.81651  1.0000
  O   O8        1.0  0.94654  0.09271  0.18232  1.0000
  O   O9        1.0  0.28855  0.94701  0.33496  1.0000
  O   O10       1.0  0.71287  0.44798  0.66530  1.0000
  O   O11       1.0  0.00050  0.85533  0.26038  1.0000
  O   O12       1.0  0.00069  0.35592  0.73995  1.0000
  O   O13       1.0  0.40460  0.59876  0.69726  1.0000
  O   O14       1.0  0.59560  0.09976  0.30289  1.0000
  O   O15       1.0  0.15366  0.50742  0.59498  1.0000
  O   O16       1.0  0.84628  0.00765  0.40475  1.0000
