data_image0
_chemical_formula_structural       Cd6H36C42S6N6Cl6O12
_chemical_formula_sum              "Cd6 H36 C42 S6 N6 Cl6 O12"
_cell_length_a       8.53164
_cell_length_b       14.7834
_cell_length_c       14.7834
_cell_angle_alpha    116.408
_cell_angle_beta     101.073
_cell_angle_gamma    101.072

_space_group_name_H-M_alt    "P 1"
_space_group_IT_number       1

loop_
  _space_group_symop_operation_xyz
  'x, y, z'

loop_
  _atom_site_type_symbol
  _atom_site_label
  _atom_site_symmetry_multiplicity
  _atom_site_fract_x
  _atom_site_fract_y
  _atom_site_fract_z
  _atom_site_occupancy
  Cd  Cd1       1.0  0.56832  0.25054  0.57169  1.0000
  Cd  Cd2       1.0  0.31756  0.32099  0.74944  1.0000
  Cd  Cd3       1.0  0.99650  0.42828  0.67895  1.0000
  Cd  Cd4       1.0  0.81756  0.74944  0.32099  1.0000
  Cd  Cd5       1.0  0.49650  0.67895  0.42828  1.0000
  Cd  Cd6       1.0  0.06833  0.57169  0.25054  1.0000
  H   H1        1.0  0.91784  0.47139  0.00098  1.0000
  H   H2        1.0  0.44555  0.52973  0.52873  1.0000
  H   H3        1.0  0.91669  0.99917  0.47048  1.0000
  H   H4        1.0  0.94555  0.52873  0.52973  1.0000
  H   H5        1.0  0.41669  0.47048  0.99918  1.0000
  H   H6        1.0  0.41784  0.00098  0.47139  1.0000
  H   H7        1.0  0.82580  0.30352  0.83284  1.0000
  H   H8        1.0  0.52169  0.52945  0.69654  1.0000
  H   H9        1.0  0.99291  0.16728  0.47076  1.0000
  H   H10       1.0  0.02170  0.69654  0.52945  1.0000
  H   H11       1.0  0.49291  0.47076  0.16728  1.0000
  H   H12       1.0  0.32580  0.83284  0.30352  1.0000
  H   H13       1.0  0.01624  0.16017  0.01299  1.0000
  H   H14       1.0  0.85595  0.85277  0.83963  1.0000
  H   H15       1.0  0.00326  0.98694  0.14718  1.0000
  H   H16       1.0  0.35596  0.83963  0.85277  1.0000
  H   H17       1.0  0.50326  0.14718  0.98694  1.0000
  H   H18       1.0  0.51623  0.01299  0.16016  1.0000
  H   H19       1.0  0.09540  0.33660  0.17563  1.0000
  H   H20       1.0  0.75859  0.83891  0.66320  1.0000
  H   H21       1.0  0.91990  0.82436  0.16104  1.0000
  H   H22       1.0  0.25859  0.66320  0.83891  1.0000
  H   H23       1.0  0.41990  0.16104  0.82436  1.0000
  H   H24       1.0  0.59540  0.17562  0.33660  1.0000
  H   H25       1.0  0.74019  0.03862  0.61536  1.0000
  H   H26       1.0  0.70091  0.57675  0.96129  1.0000
  H   H27       1.0  0.12526  0.38473  0.42334  1.0000
  H   H28       1.0  0.20091  0.96130  0.57675  1.0000
  H   H29       1.0  0.62526  0.42334  0.38473  1.0000
  H   H30       1.0  0.24019  0.61536  0.03861  1.0000
  H   H31       1.0  0.66262  0.13844  0.69537  1.0000
  H   H32       1.0  0.52363  0.55697  0.86145  1.0000
  H   H33       1.0  0.96751  0.30486  0.44314  1.0000
  H   H34       1.0  0.02363  0.86146  0.55697  1.0000
  H   H35       1.0  0.46751  0.44314  0.30486  1.0000
  H   H36       1.0  0.16262  0.69537  0.13843  1.0000
  C   C1        1.0  0.93733  0.40047  0.00044  1.0000
  C   C2        1.0  0.53613  0.60007  0.59957  1.0000
  C   C3        1.0  0.93686  0.99967  0.40010  1.0000
  C   C4        1.0  0.03613  0.59957  0.60007  1.0000
  C   C5        1.0  0.43686  0.40011  0.99967  1.0000
  C   C6        1.0  0.43733  0.00044  0.40047  1.0000
  C   C7        1.0  0.88587  0.30504  0.90551  1.0000
  C   C8        1.0  0.58031  0.60057  0.69499  1.0000
  C   C9        1.0  0.98051  0.09459  0.39962  1.0000
  C   C10       1.0  0.08031  0.69499  0.60057  1.0000
  C   C11       1.0  0.48051  0.39963  0.09460  1.0000
  C   C12       1.0  0.38587  0.90551  0.30504  1.0000
  C   C13       1.0  0.91308  0.21469  0.90657  1.0000
  C   C14       1.0  0.69807  0.69192  0.78525  1.0000
  C   C15       1.0  0.00663  0.09347  0.30818  1.0000
  C   C16       1.0  0.19807  0.78526  0.69192  1.0000
  C   C17       1.0  0.50663  0.30819  0.09347  1.0000
  C   C18       1.0  0.41308  0.90657  0.21469  1.0000
  C   C19       1.0  0.99073  0.22683  0.00631  1.0000
  C   C20       1.0  0.76365  0.77946  0.77305  1.0000
  C   C21       1.0  0.98452  0.99368  0.22056  1.0000
  C   C22       1.0  0.26366  0.77305  0.77946  1.0000
  C   C23       1.0  0.48452  0.22056  0.99369  1.0000
  C   C24       1.0  0.49073  0.00630  0.22682  1.0000
  C   C25       1.0  0.03610  0.32515  0.09741  1.0000
  C   C26       1.0  0.71059  0.77222  0.67474  1.0000
  C   C27       1.0  0.93878  0.90260  0.22779  1.0000
  C   C28       1.0  0.21059  0.67474  0.77222  1.0000
  C   C29       1.0  0.43878  0.22779  0.90260  1.0000
  C   C30       1.0  0.53609  0.09741  0.32514  1.0000
  C   C31       1.0  0.77723  0.11645  0.68849  1.0000
  C   C32       1.0  0.66016  0.57199  0.88344  1.0000
  C   C33       1.0  0.08900  0.31163  0.42803  1.0000
  C   C34       1.0  0.16017  0.88345  0.57199  1.0000
  C   C35       1.0  0.58900  0.42803  0.31163  1.0000
  C   C36       1.0  0.27723  0.68849  0.11644  1.0000
  C   C37       1.0  0.90546  0.19788  0.67995  1.0000
  C   C38       1.0  0.70701  0.48188  0.80202  1.0000
  C   C39       1.0  0.22555  0.32002  0.51803  1.0000
  C   C40       1.0  0.20702  0.80202  0.48188  1.0000
  C   C41       1.0  0.72555  0.51803  0.32002  1.0000
  C   C42       1.0  0.40546  0.67995  0.19788  1.0000
  S   S1        1.0  0.85833  0.09056  0.79338  1.0000
  S   S2        1.0  0.76745  0.70273  0.90931  1.0000
  S   S3        1.0  0.06514  0.20663  0.29724  1.0000
  S   S4        1.0  0.26745  0.90931  0.70273  1.0000
  S   S5        1.0  0.56514  0.29724  0.20663  1.0000
  S   S6        1.0  0.35832  0.79338  0.09056  1.0000
  N   N1        1.0  0.01095  0.41178  0.09553  1.0000
  N   N2        1.0  0.59860  0.68377  0.58819  1.0000
  N   N3        1.0  0.91541  0.90454  0.31632  1.0000
  N   N4        1.0  0.09860  0.58819  0.68377  1.0000
  N   N5        1.0  0.41542  0.31632  0.90454  1.0000
  N   N6        1.0  0.51095  0.09553  0.41178  1.0000
  Cl  Cl1       1.0  0.37262  0.14490  0.63117  1.0000
  Cl  Cl2       1.0  0.22736  0.48611  0.85501  1.0000
  Cl  Cl3       1.0  0.74145  0.36877  0.51385  1.0000
  Cl  Cl4       1.0  0.72736  0.85501  0.48611  1.0000
  Cl  Cl5       1.0  0.24145  0.51385  0.36877  1.0000
  Cl  Cl6       1.0  0.87262  0.63118  0.14490  1.0000
  O   O1        1.0  0.84686  0.25594  0.64713  1.0000
  O   O2        1.0  0.59030  0.39107  0.74386  1.0000
  O   O3        1.0  0.19949  0.35269  0.60883  1.0000
  O   O4        1.0  0.09031  0.74387  0.39107  1.0000
  O   O5        1.0  0.69949  0.60883  0.35270  1.0000
  O   O6        1.0  0.34686  0.64713  0.25594  1.0000
  O   O7        1.0  0.05668  0.20244  0.70422  1.0000
  O   O8        1.0  0.85375  0.50142  0.79755  1.0000
  O   O9        1.0  0.35260  0.29579  0.49840  1.0000
  O   O10       1.0  0.35375  0.79755  0.50142  1.0000
  O   O11       1.0  0.85260  0.49840  0.29579  1.0000
  O   O12       1.0  0.55668  0.70422  0.20244  1.0000
