data_image0
_chemical_formula_structural       Zn8H44C44S12N4O24
_chemical_formula_sum              "Zn8 H44 C44 S12 N4 O24"
_cell_length_a       6.74837
_cell_length_b       11.5859
_cell_length_c       19.9686
_cell_angle_alpha    90.0001
_cell_angle_beta     89.9999
_cell_angle_gamma    89.8518

_space_group_name_H-M_alt    "P 1"
_space_group_IT_number       1

loop_
  _space_group_symop_operation_xyz
  'x, y, z'

loop_
  _atom_site_type_symbol
  _atom_site_label
  _atom_site_symmetry_multiplicity
  _atom_site_fract_x
  _atom_site_fract_y
  _atom_site_fract_z
  _atom_site_occupancy
  Zn  Zn1       1.0  0.74503  0.05143  0.37810  1.0000
  Zn  Zn2       1.0  0.75497  0.94857  0.87810  1.0000
  Zn  Zn3       1.0  0.25497  0.94857  0.62190  1.0000
  Zn  Zn4       1.0  0.24503  0.05143  0.12190  1.0000
  Zn  Zn5       1.0  0.73958  0.06614  0.62313  1.0000
  Zn  Zn6       1.0  0.76042  0.93386  0.12313  1.0000
  Zn  Zn7       1.0  0.26042  0.93386  0.37687  1.0000
  Zn  Zn8       1.0  0.23958  0.06614  0.87687  1.0000
  H   H1        1.0  0.60141  0.48570  0.45316  1.0000
  H   H2        1.0  0.89859  0.51430  0.95316  1.0000
  H   H3        1.0  0.39860  0.51430  0.54684  1.0000
  H   H4        1.0  0.10140  0.48569  0.04684  1.0000
  H   H5        1.0  0.96479  0.74588  0.30742  1.0000
  H   H6        1.0  0.53521  0.25412  0.80742  1.0000
  H   H7        1.0  0.03521  0.25413  0.69258  1.0000
  H   H8        1.0  0.46479  0.74588  0.19258  1.0000
  H   H9        1.0  0.71722  0.76426  0.33689  1.0000
  H   H10       1.0  0.78278  0.23574  0.83689  1.0000
  H   H11       1.0  0.28278  0.23574  0.66311  1.0000
  H   H12       1.0  0.21722  0.76427  0.16311  1.0000
  H   H13       1.0  0.41211  0.27004  0.45154  1.0000
  H   H14       1.0  0.08788  0.72996  0.95154  1.0000
  H   H15       1.0  0.58788  0.72996  0.54846  1.0000
  H   H16       1.0  0.91211  0.27004  0.04846  1.0000
  H   H17       1.0  0.25870  0.15802  0.48166  1.0000
  H   H18       1.0  0.24130  0.84197  0.98166  1.0000
  H   H19       1.0  0.74130  0.84197  0.51834  1.0000
  H   H20       1.0  0.75870  0.15802  0.01834  1.0000
  H   H21       1.0  0.88235  0.26354  0.45370  1.0000
  H   H22       1.0  0.61765  0.73646  0.95370  1.0000
  H   H23       1.0  0.11765  0.73646  0.54630  1.0000
  H   H24       1.0  0.38235  0.26355  0.04630  1.0000
  H   H25       1.0  0.04138  0.44857  0.42859  1.0000
  H   H26       1.0  0.45861  0.55144  0.92859  1.0000
  H   H27       1.0  0.95862  0.55143  0.57141  1.0000
  H   H28       1.0  0.54138  0.44857  0.07141  1.0000
  H   H29       1.0  0.10008  0.33251  0.22252  1.0000
  H   H30       1.0  0.39992  0.66749  0.72252  1.0000
  H   H31       1.0  0.89992  0.66749  0.77748  1.0000
  H   H32       1.0  0.60008  0.33251  0.27748  1.0000
  H   H33       1.0  0.93740  0.15098  0.25739  1.0000
  H   H34       1.0  0.56261  0.84902  0.75739  1.0000
  H   H35       1.0  0.06261  0.84902  0.74261  1.0000
  H   H36       1.0  0.43740  0.15098  0.24261  1.0000
  H   H37       1.0  0.31422  0.69289  0.35395  1.0000
  H   H38       1.0  0.18578  0.30710  0.85395  1.0000
  H   H39       1.0  0.68578  0.30710  0.64605  1.0000
  H   H40       1.0  0.81422  0.69290  0.14605  1.0000
  H   H41       1.0  0.09378  0.63935  0.39126  1.0000
  H   H42       1.0  0.40623  0.36065  0.89125  1.0000
  H   H43       1.0  0.90623  0.36065  0.60875  1.0000
  H   H44       1.0  0.59378  0.63935  0.10874  1.0000
  C   C1        1.0  0.80696  0.88925  0.26548  1.0000
  C   C2        1.0  0.69304  0.11075  0.76548  1.0000
  C   C3        1.0  0.19304  0.11075  0.73452  1.0000
  C   C4        1.0  0.30696  0.88925  0.23452  1.0000
  C   C5        1.0  0.85516  0.80969  0.32384  1.0000
  C   C6        1.0  0.64484  0.19031  0.82384  1.0000
  C   C7        1.0  0.14484  0.19031  0.67616  1.0000
  C   C8        1.0  0.35516  0.80969  0.17616  1.0000
  C   C9        1.0  0.56498  0.13671  0.50444  1.0000
  C   C10       1.0  0.93502  0.86329  0.00444  1.0000
  C   C11       1.0  0.43502  0.86329  0.49556  1.0000
  C   C12       1.0  0.06498  0.13671  0.99556  1.0000
  C   C13       1.0  0.40097  0.17579  0.45720  1.0000
  C   C14       1.0  0.09903  0.82420  0.95720  1.0000
  C   C15       1.0  0.59903  0.82421  0.54280  1.0000
  C   C16       1.0  0.90097  0.17579  0.04280  1.0000
  C   C17       1.0  0.93370  0.28182  0.40307  1.0000
  C   C18       1.0  0.56630  0.71818  0.90307  1.0000
  C   C19       1.0  0.06630  0.71818  0.59693  1.0000
  C   C20       1.0  0.43369  0.28182  0.09693  1.0000
  C   C21       1.0  0.02559  0.38582  0.38852  1.0000
  C   C22       1.0  0.47440  0.61418  0.88852  1.0000
  C   C23       1.0  0.97441  0.61418  0.61148  1.0000
  C   C24       1.0  0.52559  0.38582  0.11148  1.0000
  C   C25       1.0  0.09257  0.40644  0.32296  1.0000
  C   C26       1.0  0.40743  0.59356  0.82296  1.0000
  C   C27       1.0  0.90743  0.59356  0.67704  1.0000
  C   C28       1.0  0.59257  0.40644  0.17704  1.0000
  C   C29       1.0  0.05704  0.32065  0.27461  1.0000
  C   C30       1.0  0.44296  0.67935  0.77461  1.0000
  C   C31       1.0  0.94296  0.67935  0.72539  1.0000
  C   C32       1.0  0.55704  0.32065  0.22539  1.0000
  C   C33       1.0  0.96532  0.21919  0.29358  1.0000
  C   C34       1.0  0.53468  0.78081  0.79358  1.0000
  C   C35       1.0  0.03468  0.78081  0.70642  1.0000
  C   C36       1.0  0.46533  0.21919  0.20642  1.0000
  C   C37       1.0  0.23940  0.61419  0.37161  1.0000
  C   C38       1.0  0.26060  0.38580  0.87161  1.0000
  C   C39       1.0  0.76060  0.38580  0.62839  1.0000
  C   C40       1.0  0.73940  0.61420  0.12839  1.0000
  C   C41       1.0  0.35995  0.56357  0.42783  1.0000
  C   C42       1.0  0.14005  0.43642  0.92782  1.0000
  C   C43       1.0  0.64006  0.43642  0.57217  1.0000
  C   C44       1.0  0.85994  0.56358  0.07217  1.0000
  S   S1        1.0  0.93566  0.88327  0.39948  1.0000
  S   S2        1.0  0.56434  0.11673  0.89948  1.0000
  S   S3        1.0  0.06433  0.11673  0.60052  1.0000
  S   S4        1.0  0.43566  0.88327  0.10052  1.0000
  S   S5        1.0  0.40798  0.11392  0.37345  1.0000
  S   S6        1.0  0.09202  0.88608  0.87345  1.0000
  S   S7        1.0  0.59202  0.88608  0.62655  1.0000
  S   S8        1.0  0.90798  0.11392  0.12655  1.0000
  S   S9        1.0  0.21899  0.52911  0.29657  1.0000
  S   S10       1.0  0.28100  0.47089  0.79657  1.0000
  S   S11       1.0  0.78101  0.47089  0.70343  1.0000
  S   S12       1.0  0.71899  0.52911  0.20343  1.0000
  N   N1        1.0  0.90382  0.19905  0.35686  1.0000
  N   N2        1.0  0.59618  0.80095  0.85686  1.0000
  N   N3        1.0  0.09618  0.80095  0.64314  1.0000
  N   N4        1.0  0.40382  0.19905  0.14314  1.0000
  O   O1        1.0  0.82900  0.84442  0.20725  1.0000
  O   O2        1.0  0.67099  0.15558  0.70725  1.0000
  O   O3        1.0  0.17099  0.15558  0.79275  1.0000
  O   O4        1.0  0.32901  0.84442  0.29275  1.0000
  O   O5        1.0  0.74418  0.99051  0.27554  1.0000
  O   O6        1.0  0.75582  0.00949  0.77554  1.0000
  O   O7        1.0  0.25582  0.00949  0.72446  1.0000
  O   O8        1.0  0.24418  0.99051  0.22446  1.0000
  O   O9        1.0  0.71257  0.07942  0.48314  1.0000
  O   O10       1.0  0.78744  0.92058  0.98314  1.0000
  O   O11       1.0  0.28744  0.92058  0.51686  1.0000
  O   O12       1.0  0.21256  0.07942  0.01686  1.0000
  O   O13       1.0  0.54480  0.16446  0.56602  1.0000
  O   O14       1.0  0.95520  0.83554  0.06602  1.0000
  O   O15       1.0  0.45520  0.83554  0.43398  1.0000
  O   O16       1.0  0.04480  0.16446  0.93398  1.0000
  O   O17       1.0  0.53194  0.51898  0.41103  1.0000
  O   O18       1.0  0.96807  0.48101  0.91104  1.0000
  O   O19       1.0  0.46807  0.48101  0.58896  1.0000
  O   O20       1.0  0.03193  0.51898  0.08896  1.0000
  O   O21       1.0  0.29432  0.56691  0.48628  1.0000
  O   O22       1.0  0.20569  0.43309  0.98629  1.0000
  O   O23       1.0  0.70569  0.43309  0.51371  1.0000
  O   O24       1.0  0.79432  0.56691  0.01372  1.0000
