data_image0
_chemical_formula_structural       Zn8H56C40N8O36
_chemical_formula_sum              "Zn8 H56 C40 N8 O36"
_cell_length_a       9.40863
_cell_length_b       11.3123
_cell_length_c       12.7523
_cell_angle_alpha    90
_cell_angle_beta     90
_cell_angle_gamma    90

_space_group_name_H-M_alt    "P 1"
_space_group_IT_number       1

loop_
  _space_group_symop_operation_xyz
  'x, y, z'

loop_
  _atom_site_type_symbol
  _atom_site_label
  _atom_site_symmetry_multiplicity
  _atom_site_fract_x
  _atom_site_fract_y
  _atom_site_fract_z
  _atom_site_occupancy
  Zn  Zn1       1.0  0.39165  0.32171  0.42142  1.0000
  Zn  Zn2       1.0  0.89166  0.67829  0.57858  1.0000
  Zn  Zn3       1.0  0.39165  0.17829  0.92142  1.0000
  Zn  Zn4       1.0  0.89165  0.82171  0.07858  1.0000
  Zn  Zn5       1.0  0.90426  0.09834  0.75635  1.0000
  Zn  Zn6       1.0  0.40425  0.90166  0.24365  1.0000
  Zn  Zn7       1.0  0.90425  0.40166  0.25635  1.0000
  Zn  Zn8       1.0  0.40425  0.59834  0.74365  1.0000
  H   H1        1.0  0.48191  0.24096  0.66033  1.0000
  H   H2        1.0  0.98191  0.75904  0.33967  1.0000
  H   H3        1.0  0.48191  0.25904  0.16033  1.0000
  H   H4        1.0  0.98191  0.74096  0.83967  1.0000
  H   H5        1.0  0.55625  0.10262  0.62901  1.0000
  H   H6        1.0  0.05625  0.89738  0.37099  1.0000
  H   H7        1.0  0.55625  0.39738  0.12901  1.0000
  H   H8        1.0  0.05625  0.60262  0.87099  1.0000
  H   H9        1.0  0.35282  0.06073  0.50740  1.0000
  H   H10       1.0  0.85282  0.93927  0.49260  1.0000
  H   H11       1.0  0.35282  0.43927  0.00740  1.0000
  H   H12       1.0  0.85282  0.56073  0.99260  1.0000
  H   H13       1.0  0.30073  0.08477  0.63956  1.0000
  H   H14       1.0  0.80073  0.91523  0.36044  1.0000
  H   H15       1.0  0.30073  0.41524  0.13956  1.0000
  H   H16       1.0  0.80073  0.58477  0.86044  1.0000
  H   H17       1.0  0.61915  0.39165  0.58556  1.0000
  H   H18       1.0  0.11915  0.60835  0.41444  1.0000
  H   H19       1.0  0.61915  0.10835  0.08556  1.0000
  H   H20       1.0  0.11915  0.89165  0.91444  1.0000
  H   H21       1.0  0.73078  0.35663  0.47876  1.0000
  H   H22       1.0  0.23078  0.64337  0.52124  1.0000
  H   H23       1.0  0.73078  0.14337  0.97876  1.0000
  H   H24       1.0  0.23078  0.85663  0.02123  1.0000
  H   H25       1.0  0.67126  0.06836  0.47941  1.0000
  H   H26       1.0  0.17126  0.93164  0.52059  1.0000
  H   H27       1.0  0.67126  0.43164  0.97941  1.0000
  H   H28       1.0  0.17126  0.56836  0.02059  1.0000
  H   H29       1.0  0.72003  0.18396  0.39418  1.0000
  H   H30       1.0  0.22003  0.81604  0.60582  1.0000
  H   H31       1.0  0.72002  0.31604  0.89418  1.0000
  H   H32       1.0  0.22002  0.68396  0.10582  1.0000
  H   H33       1.0  0.22624  0.26636  0.69257  1.0000
  H   H34       1.0  0.72624  0.73364  0.30743  1.0000
  H   H35       1.0  0.22624  0.23364  0.19257  1.0000
  H   H36       1.0  0.72624  0.76636  0.80743  1.0000
  H   H37       1.0  0.09203  0.32178  0.61081  1.0000
  H   H38       1.0  0.59203  0.67822  0.38919  1.0000
  H   H39       1.0  0.09203  0.17822  0.11081  1.0000
  H   H40       1.0  0.59203  0.82178  0.88919  1.0000
  H   H41       1.0  0.03973  0.15554  0.51475  1.0000
  H   H42       1.0  0.53973  0.84446  0.48525  1.0000
  H   H43       1.0  0.03973  0.34446  0.01475  1.0000
  H   H44       1.0  0.53973  0.65554  0.98525  1.0000
  H   H45       1.0  0.16511  0.11011  0.41763  1.0000
  H   H46       1.0  0.66511  0.88989  0.58237  1.0000
  H   H47       1.0  0.16511  0.38988  0.91763  1.0000
  H   H48       1.0  0.66511  0.61011  0.08237  1.0000
  H   H49       1.0  0.41388  0.52123  0.32705  1.0000
  H   H50       1.0  0.91388  0.47877  0.67295  1.0000
  H   H51       1.0  0.41388  0.97877  0.82705  1.0000
  H   H52       1.0  0.91388  0.02123  0.17295  1.0000
  H   H53       1.0  0.56808  0.46331  0.31557  1.0000
  H   H54       1.0  0.06808  0.53670  0.68443  1.0000
  H   H55       1.0  0.56808  0.03669  0.81557  1.0000
  H   H56       1.0  0.06808  0.96331  0.18443  1.0000
  C   C1        1.0  0.49211  0.17533  0.59735  1.0000
  C   C2        1.0  0.99211  0.82467  0.40265  1.0000
  C   C3        1.0  0.49211  0.32467  0.09735  1.0000
  C   C4        1.0  0.99211  0.67533  0.90265  1.0000
  C   C5        1.0  0.34558  0.12784  0.56948  1.0000
  C   C6        1.0  0.84558  0.87216  0.43052  1.0000
  C   C7        1.0  0.34558  0.37216  0.06948  1.0000
  C   C8        1.0  0.84558  0.62784  0.93052  1.0000
  C   C9        1.0  0.67446  0.31850  0.54626  1.0000
  C   C10       1.0  0.17446  0.68150  0.45374  1.0000
  C   C11       1.0  0.67446  0.18150  0.04626  1.0000
  C   C12       1.0  0.17446  0.81850  0.95374  1.0000
  C   C13       1.0  0.78730  0.27178  0.62175  1.0000
  C   C14       1.0  0.28730  0.72822  0.37825  1.0000
  C   C15       1.0  0.78730  0.22822  0.12175  1.0000
  C   C16       1.0  0.28730  0.77178  0.87825  1.0000
  C   C17       1.0  0.62938  0.14464  0.43629  1.0000
  C   C18       1.0  0.12938  0.85536  0.56371  1.0000
  C   C19       1.0  0.62938  0.35536  0.93629  1.0000
  C   C20       1.0  0.12938  0.64464  0.06371  1.0000
  C   C21       1.0  0.52372  0.10234  0.35393  1.0000
  C   C22       1.0  0.02372  0.89766  0.64607  1.0000
  C   C23       1.0  0.52372  0.39766  0.85393  1.0000
  C   C24       1.0  0.02372  0.60234  0.14607  1.0000
  C   C25       1.0  0.20721  0.30525  0.61466  1.0000
  C   C26       1.0  0.70721  0.69475  0.38534  1.0000
  C   C27       1.0  0.20721  0.19475  0.11466  1.0000
  C   C28       1.0  0.70721  0.80525  0.88534  1.0000
  C   C29       1.0  0.28350  0.42351  0.61365  1.0000
  C   C30       1.0  0.78350  0.57649  0.38635  1.0000
  C   C31       1.0  0.28350  0.07649  0.11365  1.0000
  C   C32       1.0  0.78350  0.92351  0.88635  1.0000
  C   C33       1.0  0.13116  0.18448  0.46743  1.0000
  C   C34       1.0  0.63116  0.81552  0.53257  1.0000
  C   C35       1.0  0.13116  0.31551  0.96743  1.0000
  C   C36       1.0  0.63116  0.68448  0.03257  1.0000
  C   C37       1.0  0.08781  0.28341  0.39247  1.0000
  C   C38       1.0  0.58781  0.71659  0.60753  1.0000
  C   C39       1.0  0.08781  0.21659  0.89247  1.0000
  C   C40       1.0  0.58781  0.78341  0.10753  1.0000
  N   N1        1.0  0.56794  0.23274  0.50820  1.0000
  N   N2        1.0  0.06794  0.76726  0.49180  1.0000
  N   N3        1.0  0.56794  0.26726  0.00820  1.0000
  N   N4        1.0  0.06794  0.73274  0.99180  1.0000
  N   N5        1.0  0.25213  0.22338  0.53109  1.0000
  N   N6        1.0  0.75213  0.77662  0.46891  1.0000
  N   N7        1.0  0.25213  0.27662  0.03109  1.0000
  N   N8        1.0  0.75213  0.72338  0.96891  1.0000
  O   O1        1.0  0.79602  0.15879  0.63390  1.0000
  O   O2        1.0  0.29602  0.84121  0.36610  1.0000
  O   O3        1.0  0.79602  0.34121  0.13390  1.0000
  O   O4        1.0  0.29603  0.65879  0.86610  1.0000
  O   O5        1.0  0.86570  0.34406  0.66869  1.0000
  O   O6        1.0  0.36570  0.65594  0.33131  1.0000
  O   O7        1.0  0.86570  0.15594  0.16869  1.0000
  O   O8        1.0  0.36570  0.84406  0.83131  1.0000
  O   O9        1.0  0.42337  0.16978  0.32558  1.0000
  O   O10       1.0  0.92337  0.83022  0.67442  1.0000
  O   O11       1.0  0.42337  0.33022  0.82558  1.0000
  O   O12       1.0  0.92337  0.66978  0.17442  1.0000
  O   O13       1.0  0.54726  0.99913  0.31719  1.0000
  O   O14       1.0  0.04726  0.00087  0.68281  1.0000
  O   O15       1.0  0.54726  0.50087  0.81719  1.0000
  O   O16       1.0  0.04726  0.49913  0.18281  1.0000
  O   O17       1.0  0.37988  0.44588  0.54847  1.0000
  O   O18       1.0  0.87989  0.55412  0.45153  1.0000
  O   O19       1.0  0.37989  0.05412  0.04847  1.0000
  O   O20       1.0  0.87988  0.94588  0.95153  1.0000
  O   O21       1.0  0.24474  0.49716  0.68578  1.0000
  O   O22       1.0  0.74474  0.50284  0.31422  1.0000
  O   O23       1.0  0.24474  0.00284  0.18578  1.0000
  O   O24       1.0  0.74474  0.99716  0.81422  1.0000
  O   O25       1.0  0.18149  0.35444  0.36021  1.0000
  O   O26       1.0  0.68149  0.64556  0.63979  1.0000
  O   O27       1.0  0.18149  0.14556  0.86021  1.0000
  O   O28       1.0  0.68149  0.85444  0.13979  1.0000
  O   O29       1.0  0.95716  0.28556  0.36433  1.0000
  O   O30       1.0  0.45716  0.71444  0.63567  1.0000
  O   O31       1.0  0.95716  0.21444  0.86433  1.0000
  O   O32       1.0  0.45716  0.78556  0.13567  1.0000
  O   O33       1.0  0.46538  0.44350  0.31913  1.0000
  O   O34       1.0  0.96538  0.55650  0.68087  1.0000
  O   O35       1.0  0.46538  0.05650  0.81913  1.0000
  O   O36       1.0  0.96538  0.94350  0.18087  1.0000
