data_image0
_chemical_formula_structural       Ni2H16C8N8O16
_chemical_formula_sum              "Ni2 H16 C8 N8 O16"
_cell_length_a       7.46967
_cell_length_b       8.32907
_cell_length_c       8.30822
_cell_angle_alpha    87.4556
_cell_angle_beta     73.1098
_cell_angle_gamma    72.8889

_space_group_name_H-M_alt    "P 1"
_space_group_IT_number       1

loop_
  _space_group_symop_operation_xyz
  'x, y, z'

loop_
  _atom_site_type_symbol
  _atom_site_label
  _atom_site_symmetry_multiplicity
  _atom_site_fract_x
  _atom_site_fract_y
  _atom_site_fract_z
  _atom_site_occupancy
  Ni  Ni1       1.0  1.00000  0.50000  1.00000  1.0000
  Ni  Ni2       1.0  0.50000  0.00000  0.50000  1.0000
  H   H1        1.0  0.02562  0.17908  0.18764  1.0000
  H   H2        1.0  0.47202  0.81210  0.82193  1.0000
  H   H3        1.0  0.97438  0.82092  0.81236  1.0000
  H   H4        1.0  0.52799  0.18790  0.17808  1.0000
  H   H5        1.0  0.24808  0.88148  0.11885  1.0000
  H   H6        1.0  0.75192  0.11852  0.88115  1.0000
  H   H7        1.0  0.25213  0.30472  0.69652  1.0000
  H   H8        1.0  0.74787  0.69527  0.30348  1.0000
  H   H9        1.0  0.98434  0.59069  0.69770  1.0000
  H   H10       1.0  0.51612  0.30203  0.40914  1.0000
  H   H11       1.0  0.01566  0.40931  0.30229  1.0000
  H   H12       1.0  0.48387  0.69797  0.59085  1.0000
  H   H13       1.0  0.80268  0.51759  0.77418  1.0000
  H   H14       1.0  0.69831  0.22499  0.48222  1.0000
  H   H15       1.0  0.19732  0.48241  0.22582  1.0000
  H   H16       1.0  0.30169  0.77501  0.51778  1.0000
  C   C1        1.0  0.12788  0.13986  0.06316  1.0000
  C   C2        1.0  0.37093  0.93706  0.86092  1.0000
  C   C3        1.0  0.87211  0.86015  0.93685  1.0000
  C   C4        1.0  0.62907  0.06295  0.13908  1.0000
  C   C5        1.0  0.24895  0.97610  0.02436  1.0000
  C   C6        1.0  0.75106  0.02388  0.97564  1.0000
  C   C7        1.0  0.25113  0.21034  0.79050  1.0000
  C   C8        1.0  0.74887  0.78966  0.20950  1.0000
  N   N1        1.0  0.54578  0.50624  0.18425  1.0000
  N   N2        1.0  0.95208  0.81664  0.49376  1.0000
  N   N3        1.0  0.45421  0.49375  0.81575  1.0000
  N   N4        1.0  0.04792  0.18337  0.50624  1.0000
  N   N5        1.0  0.13401  0.25783  0.94692  1.0000
  N   N6        1.0  0.36696  0.05354  0.74299  1.0000
  N   N7        1.0  0.86599  0.74216  0.05308  1.0000
  N   N8        1.0  0.63305  0.94645  0.25702  1.0000
  O   O1        1.0  0.72379  0.42884  0.17267  1.0000
  O   O2        1.0  0.77442  0.82854  0.57198  1.0000
  O   O3        1.0  0.27621  0.57116  0.82733  1.0000
  O   O4        1.0  0.22559  0.17147  0.42802  1.0000
  O   O5        1.0  0.41457  0.44507  0.28056  1.0000
  O   O6        1.0  0.08434  0.71967  0.55404  1.0000
  O   O7        1.0  0.58543  0.55493  0.71944  1.0000
  O   O8        1.0  0.91566  0.28033  0.44596  1.0000
  O   O9        1.0  0.49739  0.63541  0.10706  1.0000
  O   O10       1.0  0.99897  0.89425  0.36465  1.0000
  O   O11       1.0  0.50261  0.36459  0.89294  1.0000
  O   O12       1.0  0.00104  0.10575  0.63535  1.0000
  O   O13       1.0  0.93731  0.50876  0.77827  1.0000
  O   O14       1.0  0.56355  0.22151  0.49124  1.0000
  O   O15       1.0  0.06269  0.49124  0.22172  1.0000
  O   O16       1.0  0.43645  0.77850  0.50876  1.0000
