data_image0
_chemical_formula_structural       Zn2H16C8N8O16
_chemical_formula_sum              "Zn2 H16 C8 N8 O16"
_cell_length_a       7.42024
_cell_length_b       8.58373
_cell_length_c       8.58373
_cell_angle_alpha    85.2372
_cell_angle_beta     72.4067
_cell_angle_gamma    72.4064

_space_group_name_H-M_alt    "P 1"
_space_group_IT_number       1

loop_
  _space_group_symop_operation_xyz
  'x, y, z'

loop_
  _atom_site_type_symbol
  _atom_site_label
  _atom_site_symmetry_multiplicity
  _atom_site_fract_x
  _atom_site_fract_y
  _atom_site_fract_z
  _atom_site_occupancy
  Zn  Zn1       1.0  0.50000  0.50000  1.00000  1.0000
  Zn  Zn2       1.0  1.00000  0.00000  0.50000  1.0000
  H   H1        1.0  0.54204  0.69144  0.66804  1.0000
  H   H2        1.0  0.95797  0.33197  0.30855  1.0000
  H   H3        1.0  0.45796  0.30855  0.33196  1.0000
  H   H4        1.0  0.04203  0.66803  0.69145  1.0000
  H   H5        1.0  0.74999  0.62487  0.37514  1.0000
  H   H6        1.0  0.25001  0.37513  0.62486  1.0000
  H   H7        1.0  0.75000  0.20674  0.79327  1.0000
  H   H8        1.0  0.25000  0.79326  0.20674  1.0000
  H   H9        1.0  0.52543  0.80704  0.90902  1.0000
  H   H10       1.0  0.97457  0.09098  0.19297  1.0000
  H   H11       1.0  0.47457  0.19296  0.09098  1.0000
  H   H12       1.0  0.02543  0.90902  0.80703  1.0000
  H   H13       1.0  0.70171  0.73202  0.98678  1.0000
  H   H14       1.0  0.79829  0.01322  0.26798  1.0000
  H   H15       1.0  0.29829  0.26798  0.01322  1.0000
  H   H16       1.0  0.20171  0.98678  0.73202  1.0000
  C   C1        1.0  0.63581  0.56823  0.62961  1.0000
  C   C2        1.0  0.86417  0.37040  0.43177  1.0000
  C   C3        1.0  0.36418  0.43178  0.37040  1.0000
  C   C4        1.0  0.13583  0.62960  0.56823  1.0000
  C   C5        1.0  0.75000  0.53134  0.46865  1.0000
  C   C6        1.0  0.25001  0.46866  0.53135  1.0000
  C   C7        1.0  0.75000  0.30017  0.69984  1.0000
  C   C8        1.0  0.25000  0.69983  0.30016  1.0000
  N   N1        1.0  0.05978  0.67461  0.00747  1.0000
  N   N2        1.0  0.44022  0.99253  0.32539  1.0000
  N   N3        1.0  0.94022  0.32539  0.99253  1.0000
  N   N4        1.0  0.55978  0.00747  0.67461  1.0000
  N   N5        1.0  0.63765  0.45247  0.74544  1.0000
  N   N6        1.0  0.86235  0.25456  0.54753  1.0000
  N   N7        1.0  0.36235  0.54753  0.25456  1.0000
  N   N8        1.0  0.13765  0.74544  0.45247  1.0000
  O   O1        1.0  0.24116  0.66189  0.93085  1.0000
  O   O2        1.0  0.25884  0.06915  0.33811  1.0000
  O   O3        1.0  0.75884  0.33811  0.06915  1.0000
  O   O4        1.0  0.74116  0.93085  0.66189  1.0000
  O   O5        1.0  0.01206  0.59315  0.13121  1.0000
  O   O6        1.0  0.48793  0.86879  0.40685  1.0000
  O   O7        1.0  0.98794  0.40685  0.86879  1.0000
  O   O8        1.0  0.51207  0.13121  0.59315  1.0000
  O   O9        1.0  0.92884  0.77522  0.95070  1.0000
  O   O10       1.0  0.57116  0.04930  0.22478  1.0000
  O   O11       1.0  0.07116  0.22478  0.04930  1.0000
  O   O12       1.0  0.42884  0.95070  0.77522  1.0000
  O   O13       1.0  0.56932  0.72586  0.98954  1.0000
  O   O14       1.0  0.93068  0.01046  0.27414  1.0000
  O   O15       1.0  0.43068  0.27413  0.01046  1.0000
  O   O16       1.0  0.06932  0.98954  0.72586  1.0000
