data_image0
_chemical_formula_structural       Mn2H16C8N8O16
_chemical_formula_sum              "Mn2 H16 C8 N8 O16"
_cell_length_a       7.22522
_cell_length_b       8.61291
_cell_length_c       8.61289
_cell_angle_alpha    83.8281
_cell_angle_beta     71.0036
_cell_angle_gamma    71.0027

_space_group_name_H-M_alt    "P 1"
_space_group_IT_number       1

loop_
  _space_group_symop_operation_xyz
  'x, y, z'

loop_
  _atom_site_type_symbol
  _atom_site_label
  _atom_site_symmetry_multiplicity
  _atom_site_fract_x
  _atom_site_fract_y
  _atom_site_fract_z
  _atom_site_occupancy
  Mn  Mn1       1.0  0.00000  0.00000  0.50000  1.0000
  Mn  Mn2       1.0  0.50000  0.50000  1.00000  1.0000
  H   H1        1.0  0.03291  0.67670  0.68454  1.0000
  H   H2        1.0  0.46709  0.31547  0.32330  1.0000
  H   H3        1.0  0.96709  0.32330  0.31546  1.0000
  H   H4        1.0  0.53291  0.68453  0.67669  1.0000
  H   H5        1.0  0.25001  0.38332  0.61668  1.0000
  H   H6        1.0  0.74998  0.61668  0.38332  1.0000
  H   H7        1.0  0.25001  0.80544  0.19456  1.0000
  H   H8        1.0  0.75000  0.19456  0.80544  1.0000
  H   H9        1.0  0.78485  0.02353  0.28513  1.0000
  H   H10       1.0  0.71515  0.71487  0.97646  1.0000
  H   H11       1.0  0.21515  0.97647  0.71487  1.0000
  H   H12       1.0  0.28485  0.28513  0.02354  1.0000
  H   H13       1.0  0.96292  0.10731  0.20562  1.0000
  H   H14       1.0  0.53710  0.79437  0.89269  1.0000
  H   H15       1.0  0.03708  0.89269  0.79438  1.0000
  H   H16       1.0  0.46290  0.20563  0.10731  1.0000
  C   C1        1.0  0.13236  0.63926  0.56096  1.0000
  C   C2        1.0  0.36767  0.43905  0.36074  1.0000
  C   C3        1.0  0.86764  0.36074  0.43904  1.0000
  C   C4        1.0  0.63233  0.56095  0.63926  1.0000
  C   C5        1.0  0.25002  0.47761  0.52239  1.0000
  C   C6        1.0  0.74998  0.52239  0.47761  1.0000
  C   C7        1.0  0.25001  0.71108  0.28892  1.0000
  C   C8        1.0  0.75000  0.28892  0.71108  1.0000
  N   N1        1.0  0.56416  0.00939  0.66522  1.0000
  N   N2        1.0  0.93585  0.33477  0.99061  1.0000
  N   N3        1.0  0.43584  0.99061  0.33478  1.0000
  N   N4        1.0  0.06415  0.66523  0.00940  1.0000
  N   N5        1.0  0.13794  0.75830  0.44411  1.0000
  N   N6        1.0  0.36207  0.55589  0.24169  1.0000
  N   N7        1.0  0.86206  0.24170  0.55589  1.0000
  N   N8        1.0  0.63793  0.44411  0.75831  1.0000
  O   O1        1.0  0.75786  0.93214  0.64590  1.0000
  O   O2        1.0  0.74215  0.35408  0.06784  1.0000
  O   O3        1.0  0.24214  0.06786  0.35410  1.0000
  O   O4        1.0  0.25785  0.64591  0.93216  1.0000
  O   O5        1.0  0.43541  0.94887  0.77259  1.0000
  O   O6        1.0  0.06458  0.22741  0.05113  1.0000
  O   O7        1.0  0.56459  0.05113  0.22741  1.0000
  O   O8        1.0  0.93541  0.77259  0.94888  1.0000
  O   O9        1.0  0.50710  0.13333  0.58462  1.0000
  O   O10       1.0  0.99290  0.41538  0.86667  1.0000
  O   O11       1.0  0.49290  0.86667  0.41538  1.0000
  O   O12       1.0  0.00711  0.58462  0.13333  1.0000
  O   O13       1.0  0.91842  0.02752  0.29095  1.0000
  O   O14       1.0  0.58158  0.70905  0.97248  1.0000
  O   O15       1.0  0.08158  0.97248  0.70905  1.0000
  O   O16       1.0  0.41842  0.29096  0.02752  1.0000
