data_image0
_chemical_formula_structural       CdH22C20N8O6
_chemical_formula_sum              "Cd1 H22 C20 N8 O6"
_cell_length_a       5.47524
_cell_length_b       10.0294
_cell_length_c       11.9328
_cell_angle_alpha    63.9642
_cell_angle_beta     79.0031
_cell_angle_gamma    80.6749

_space_group_name_H-M_alt    "P 1"
_space_group_IT_number       1

loop_
  _space_group_symop_operation_xyz
  'x, y, z'

loop_
  _atom_site_type_symbol
  _atom_site_label
  _atom_site_symmetry_multiplicity
  _atom_site_fract_x
  _atom_site_fract_y
  _atom_site_fract_z
  _atom_site_occupancy
  Cd  Cd1       1.0  0.00000  1.00000  1.00000  1.0000
  H   H1        1.0  0.47654  0.62470  0.34801  1.0000
  H   H2        1.0  0.52345  0.37530  0.65200  1.0000
  H   H3        1.0  0.33445  0.37575  0.50308  1.0000
  H   H4        1.0  0.66557  0.62424  0.49692  1.0000
  H   H5        1.0  0.80093  0.41308  0.26735  1.0000
  H   H6        1.0  0.19908  0.58692  0.73265  1.0000
  H   H7        1.0  0.94198  0.66168  0.11107  1.0000
  H   H8        1.0  0.05802  0.33833  0.88893  1.0000
  H   H9        1.0  0.13972  0.00870  0.26473  1.0000
  H   H10       1.0  0.86027  0.99130  0.73527  1.0000
  H   H11       1.0  0.62956  0.31014  0.06345  1.0000
  H   H12       1.0  0.37042  0.68987  0.93654  1.0000
  H   H13       1.0  0.39642  0.41463  0.12823  1.0000
  H   H14       1.0  0.60357  0.58537  0.87177  1.0000
  H   H15       1.0  0.32336  0.35885  0.01613  1.0000
  H   H16       1.0  0.67661  0.64116  0.98387  1.0000
  H   H17       1.0  0.39547  0.01965  0.37457  1.0000
  H   H18       1.0  0.60454  0.98035  0.62542  1.0000
  H   H19       1.0  0.46030  0.20123  0.34857  1.0000
  H   H20       1.0  0.53969  0.79877  0.65143  1.0000
  H   H21       1.0  0.67442  0.09687  0.27815  1.0000
  H   H22       1.0  0.32557  0.90314  0.72185  1.0000
  C   C1        1.0  0.21391  0.66127  0.22051  1.0000
  C   C2        1.0  0.78611  0.33872  0.77949  1.0000
  C   C3        1.0  0.32823  0.57804  0.33106  1.0000
  C   C4        1.0  0.67179  0.42195  0.66894  1.0000
  C   C5        1.0  0.25048  0.44097  0.41728  1.0000
  C   C6        1.0  0.74954  0.55902  0.58272  1.0000
  C   C7        1.0  0.05715  0.38383  0.39453  1.0000
  C   C8        1.0  0.94286  0.61617  0.60547  1.0000
  C   C9        1.0  0.94624  0.46190  0.28400  1.0000
  C   C10       1.0  0.05377  0.53810  0.71600  1.0000
  C   C11       1.0  0.02404  0.59921  0.19800  1.0000
  C   C12       1.0  0.97598  0.40079  0.80199  1.0000
  C   C13       1.0  0.47818  0.85256  0.13804  1.0000
  C   C14       1.0  0.52184  0.14743  0.86197  1.0000
  C   C15       1.0  0.17795  0.11513  0.18293  1.0000
  C   C16       1.0  0.82204  0.88488  0.81707  1.0000
  C   C17       1.0  0.42913  0.32643  0.09465  1.0000
  C   C18       1.0  0.57086  0.67357  0.90535  1.0000
  C   C19       1.0  0.47598  0.12266  0.30583  1.0000
  C   C20       1.0  0.52401  0.87734  0.69416  1.0000
  N   N1        1.0  0.65166  0.91159  0.13494  1.0000
  N   N2        1.0  0.34836  0.08839  0.86506  1.0000
  N   N3        1.0  0.28078  0.80068  0.13350  1.0000
  N   N4        1.0  0.71924  0.19932  0.86650  1.0000
  N   N5        1.0  0.96984  0.24408  0.48744  1.0000
  N   N6        1.0  0.03015  0.75593  0.51256  1.0000
  N   N7        1.0  0.34570  0.18838  0.19553  1.0000
  N   N8        1.0  0.65429  0.81162  0.80446  1.0000
  O   O1        1.0  0.78913  0.19781  0.46873  1.0000
  O   O2        1.0  0.21085  0.80220  0.53127  1.0000
  O   O3        1.0  0.07615  0.17554  0.58370  1.0000
  O   O4        1.0  0.92384  0.82445  0.41630  1.0000
  O   O5        1.0  0.06662  0.16151  0.08734  1.0000
  O   O6        1.0  0.93335  0.83849  0.91267  1.0000
