data_image0
_chemical_formula_structural       CdH16C16SO10
_chemical_formula_sum              "Cd1 H16 C16 S1 O10"
_cell_length_a       5.25653
_cell_length_b       6.59173
_cell_length_c       13.8859
_cell_angle_alpha    81.9037
_cell_angle_beta     79.0909
_cell_angle_gamma    66.5077

_space_group_name_H-M_alt    "P 1"
_space_group_IT_number       1

loop_
  _space_group_symop_operation_xyz
  'x, y, z'

loop_
  _atom_site_type_symbol
  _atom_site_label
  _atom_site_symmetry_multiplicity
  _atom_site_fract_x
  _atom_site_fract_y
  _atom_site_fract_z
  _atom_site_occupancy
  Cd  Cd1       1.0  0.57119  0.50017  0.49998  1.0000
  H   H1        1.0  0.01872  0.12444  0.57484  1.0000
  H   H2        1.0  0.71820  0.87568  0.42512  1.0000
  H   H3        1.0  0.00338  0.35728  0.61066  1.0000
  H   H4        1.0  0.97173  0.64275  0.38945  1.0000
  H   H5        1.0  0.78904  0.95353  0.71898  1.0000
  H   H6        1.0  0.46099  0.04672  0.28094  1.0000
  H   H7        1.0  0.63838  0.96358  0.61267  1.0000
  H   H8        1.0  0.21426  0.03680  0.38728  1.0000
  H   H9        1.0  0.32210  0.13233  0.74454  1.0000
  H   H10       1.0  0.19867  0.86795  0.25552  1.0000
  H   H11       1.0  0.88504  0.25129  0.86096  1.0000
  H   H12       1.0  0.99739  0.74857  0.13912  1.0000
  H   H13       1.0  0.99343  0.56799  0.94230  1.0000
  H   H14       1.0  0.50328  0.43165  0.05772  1.0000
  H   H15       1.0  0.42988  0.44656  0.82226  1.0000
  H   H16       1.0  0.69814  0.55353  0.17766  1.0000
  C   C1        1.0  0.77068  0.85133  0.66630  1.0000
  C   C2        1.0  0.28793  0.14902  0.33364  1.0000
  C   C3        1.0  0.06059  0.73276  0.61169  1.0000
  C   C4        1.0  0.40509  0.26722  0.38825  1.0000
  C   C5        1.0  0.40570  0.78004  0.77619  1.0000
  C   C6        1.0  0.96146  0.22014  0.22384  1.0000
  C   C7        1.0  0.25096  0.00725  0.78605  1.0000
  C   C8        1.0  0.04402  0.99289  0.21397  1.0000
  C   C9        1.0  0.00278  0.07504  0.85215  1.0000
  C   C10       1.0  0.92985  0.92490  0.14788  1.0000
  C   C11       1.0  0.91100  0.91692  0.90795  1.0000
  C   C12       1.0  0.73573  0.08283  0.09206  1.0000
  C   C13       1.0  0.06414  0.69020  0.89741  1.0000
  C   C14       1.0  0.65155  0.30961  0.10258  1.0000
  C   C15       1.0  0.30934  0.62228  0.83074  1.0000
  C   C16       1.0  0.76196  0.37776  0.16924  1.0000
  S   S1        1.0  0.61263  0.99972  0.00000  1.0000
  O   O1        1.0  0.65512  0.69577  0.71511  1.0000
  O   O2        1.0  0.06549  0.30456  0.28490  1.0000
  O   O3        1.0  0.17505  0.52160  0.61569  1.0000
  O   O4        1.0  0.31267  0.47841  0.38432  1.0000
  O   O5        1.0  0.18402  0.85318  0.56110  1.0000
  O   O6        1.0  0.59826  0.14670  0.43884  1.0000
  O   O7        1.0  0.89415  0.28023  0.59101  1.0000
  O   O8        1.0  0.76578  0.71975  0.40907  1.0000
  O   O9        1.0  0.39403  0.19557  0.96294  1.0000
  O   O10       1.0  0.55349  0.80351  0.03709  1.0000
