data_image0
_chemical_formula_structural       Hg2H28C28I4N8O4
_chemical_formula_sum              "Hg2 H28 C28 I4 N8 O4"
_cell_length_a       5.09567
_cell_length_b       8.625
_cell_length_c       20.9659
_cell_angle_alpha    99.3232
_cell_angle_beta     90
_cell_angle_gamma    90

_space_group_name_H-M_alt    "P 1"
_space_group_IT_number       1

loop_
  _space_group_symop_operation_xyz
  'x, y, z'

loop_
  _atom_site_type_symbol
  _atom_site_label
  _atom_site_symmetry_multiplicity
  _atom_site_fract_x
  _atom_site_fract_y
  _atom_site_fract_z
  _atom_site_occupancy
  Hg  Hg1       1.0  0.01423  0.75000  0.75000  1.0000
  Hg  Hg2       1.0  0.98577  0.25000  0.25000  1.0000
  H   H1        1.0  0.35883  0.13033  0.51955  1.0000
  H   H2        1.0  0.35883  0.36967  0.98045  1.0000
  H   H3        1.0  0.64117  0.86967  0.48045  1.0000
  H   H4        1.0  0.64117  0.63033  0.01955  1.0000
  H   H5        1.0  0.65780  0.78184  0.62420  1.0000
  H   H6        1.0  0.65780  0.71816  0.87580  1.0000
  H   H7        1.0  0.34220  0.21816  0.37580  1.0000
  H   H8        1.0  0.34220  0.28184  0.12420  1.0000
  H   H9        1.0  0.33435  0.64564  0.54583  1.0000
  H   H10       1.0  0.33435  0.85437  0.95417  1.0000
  H   H11       1.0  0.66565  0.35436  0.45417  1.0000
  H   H12       1.0  0.66565  0.14564  0.04583  1.0000
  H   H13       1.0  0.41677  0.23784  0.64111  1.0000
  H   H14       1.0  0.41677  0.26216  0.85889  1.0000
  H   H15       1.0  0.58323  0.76216  0.35889  1.0000
  H   H16       1.0  0.58323  0.73784  0.14111  1.0000
  H   H17       1.0  0.73215  0.39472  0.71667  1.0000
  H   H18       1.0  0.73215  0.10528  0.78333  1.0000
  H   H19       1.0  0.26785  0.60528  0.28333  1.0000
  H   H20       1.0  0.26785  0.89471  0.21667  1.0000
  H   H21       1.0  0.94749  0.37112  0.56187  1.0000
  H   H22       1.0  0.94749  0.12888  0.93813  1.0000
  H   H23       1.0  0.05251  0.62888  0.43813  1.0000
  H   H24       1.0  0.05251  0.87112  0.06187  1.0000
  H   H25       1.0  0.14989  0.39986  0.49620  1.0000
  H   H26       1.0  0.14989  0.10014  0.00380  1.0000
  H   H27       1.0  0.85011  0.60014  0.50380  1.0000
  H   H28       1.0  0.85011  0.89986  0.99620  1.0000
  C   C1        1.0  0.59728  0.66134  0.62633  1.0000
  C   C2        1.0  0.59728  0.83866  0.87367  1.0000
  C   C3        1.0  0.40272  0.33866  0.37367  1.0000
  C   C4        1.0  0.40272  0.16134  0.12633  1.0000
  C   C5        1.0  0.41712  0.58371  0.58259  1.0000
  C   C6        1.0  0.41712  0.91629  0.91741  1.0000
  C   C7        1.0  0.58288  0.41629  0.41741  1.0000
  C   C8        1.0  0.58288  0.08371  0.08259  1.0000
  C   C9        1.0  0.34663  0.42893  0.58688  1.0000
  C   C10       1.0  0.34663  0.07107  0.91313  1.0000
  C   C11       1.0  0.65337  0.57107  0.41312  1.0000
  C   C12       1.0  0.65337  0.92893  0.08687  1.0000
  C   C13       1.0  0.46216  0.35847  0.63551  1.0000
  C   C14       1.0  0.46216  0.14154  0.86449  1.0000
  C   C15       1.0  0.53784  0.64153  0.36449  1.0000
  C   C16       1.0  0.53784  0.85846  0.13551  1.0000
  C   C17       1.0  0.63913  0.44482  0.67769  1.0000
  C   C18       1.0  0.63913  0.05518  0.82231  1.0000
  C   C19       1.0  0.36087  0.55518  0.32231  1.0000
  C   C20       1.0  0.36087  0.94482  0.17769  1.0000
  C   C21       1.0  0.14476  0.34806  0.54085  1.0000
  C   C22       1.0  0.14476  0.15195  0.95916  1.0000
  C   C23       1.0  0.85524  0.65195  0.45916  1.0000
  C   C24       1.0  0.85524  0.84806  0.04084  1.0000
  C   C25       1.0  0.96521  0.08717  0.50949  1.0000
  C   C26       1.0  0.96521  0.41283  0.99051  1.0000
  C   C27       1.0  0.03479  0.91283  0.49051  1.0000
  C   C28       1.0  0.03479  0.58717  0.00949  1.0000
  I   I1        1.0  0.12363  0.98236  0.68126  1.0000
  I   I2        1.0  0.12363  0.51764  0.81874  1.0000
  I   I3        1.0  0.87637  0.01764  0.31874  1.0000
  I   I4        1.0  0.87637  0.48236  0.18126  1.0000
  N   N1        1.0  0.70665  0.59311  0.67297  1.0000
  N   N2        1.0  0.70664  0.90689  0.82703  1.0000
  N   N3        1.0  0.29336  0.40689  0.32703  1.0000
  N   N4        1.0  0.29335  0.09311  0.17297  1.0000
  N   N5        1.0  0.17471  0.17929  0.52525  1.0000
  N   N6        1.0  0.17471  0.32071  0.97475  1.0000
  N   N7        1.0  0.82529  0.82071  0.47475  1.0000
  N   N8        1.0  0.82529  0.67929  0.02525  1.0000
  O   O1        1.0  0.73435  0.13491  0.50997  1.0000
  O   O2        1.0  0.73435  0.36509  0.99003  1.0000
  O   O3        1.0  0.26565  0.86509  0.49003  1.0000
  O   O4        1.0  0.26565  0.63491  0.00997  1.0000
