data_image0
_chemical_formula_structural       Cd2H20C28N4O10
_chemical_formula_sum              "Cd2 H20 C28 N4 O10"
_cell_length_a       8.6804
_cell_length_b       8.71836
_cell_length_c       9.95038
_cell_angle_alpha    69.3425
_cell_angle_beta     83.6819
_cell_angle_gamma    69.9133

_space_group_name_H-M_alt    "P 1"
_space_group_IT_number       1

loop_
  _space_group_symop_operation_xyz
  'x, y, z'

loop_
  _atom_site_type_symbol
  _atom_site_label
  _atom_site_symmetry_multiplicity
  _atom_site_fract_x
  _atom_site_fract_y
  _atom_site_fract_z
  _atom_site_occupancy
  Cd  Cd1       1.0  0.71114  0.54849  0.07691  1.0000
  Cd  Cd2       1.0  0.28886  0.45150  0.92309  1.0000
  H   H1        1.0  0.07908  0.28835  0.18416  1.0000
  H   H2        1.0  0.92091  0.71165  0.81584  1.0000
  H   H3        1.0  0.40615  0.84703  0.15856  1.0000
  H   H4        1.0  0.59385  0.15297  0.84144  1.0000
  H   H5        1.0  0.31114  0.97663  0.35458  1.0000
  H   H6        1.0  0.68886  0.02337  0.64542  1.0000
  H   H7        1.0  0.47916  0.83884  0.58402  1.0000
  H   H8        1.0  0.52084  0.16117  0.41598  1.0000
  H   H9        1.0  0.73738  0.59330  0.60223  1.0000
  H   H10       1.0  0.26263  0.40670  0.39776  1.0000
  H   H11       1.0  0.94245  0.39733  0.48766  1.0000
  H   H12       1.0  0.05755  0.60267  0.51234  1.0000
  H   H13       1.0  0.83304  0.27994  0.73867  1.0000
  H   H14       1.0  0.16696  0.72006  0.26133  1.0000
  H   H15       1.0  0.93548  0.08019  0.59417  1.0000
  H   H16       1.0  0.06452  0.91982  0.40583  1.0000
  H   H17       1.0  0.20443  0.84483  0.65669  1.0000
  H   H18       1.0  0.79557  0.15517  0.34331  1.0000
  H   H19       1.0  0.28771  0.03649  0.97559  1.0000
  H   H20       1.0  0.71229  0.96351  0.02441  1.0000
  C   C1        1.0  0.47470  0.79464  0.25908  1.0000
  C   C2        1.0  0.52530  0.20536  0.74092  1.0000
  C   C3        1.0  0.42231  0.86489  0.36908  1.0000
  C   C4        1.0  0.57769  0.13511  0.63092  1.0000
  C   C5        1.0  0.51646  0.79034  0.49469  1.0000
  C   C6        1.0  0.48354  0.20967  0.50531  1.0000
  C   C7        1.0  0.66096  0.65177  0.50554  1.0000
  C   C8        1.0  0.33905  0.34823  0.49446  1.0000
  C   C9        1.0  0.70782  0.59252  0.38871  1.0000
  C   C10       1.0  0.29218  0.40748  0.61129  1.0000
  C   C11       1.0  0.86486  0.45782  0.39112  1.0000
  C   C12       1.0  0.13514  0.54218  0.60888  1.0000
  C   C13       1.0  0.99456  0.28586  0.95435  1.0000
  C   C14       1.0  0.00544  0.71414  0.04565  1.0000
  C   C15       1.0  0.05461  0.17050  0.86504  1.0000
  C   C16       1.0  0.94539  0.82950  0.13496  1.0000
  C   C17       1.0  0.95473  0.18254  0.75780  1.0000
  C   C18       1.0  0.04527  0.81746  0.24220  1.0000
  C   C19       1.0  0.01133  0.06977  0.67933  1.0000
  C   C20       1.0  0.98867  0.93023  0.32067  1.0000
  C   C21       1.0  0.16335  0.93908  0.71234  1.0000
  C   C22       1.0  0.83665  0.06091  0.28767  1.0000
  C   C23       1.0  0.26297  0.92415  0.82085  1.0000
  C   C24       1.0  0.73703  0.07584  0.17915  1.0000
  C   C25       1.0  0.20968  0.04401  0.89349  1.0000
  C   C26       1.0  0.79032  0.95599  0.10651  1.0000
  C   C27       1.0  0.41883  0.77323  0.86855  1.0000
  C   C28       1.0  0.58116  0.22676  0.13145  1.0000
  N   N1        1.0  0.61334  0.66209  0.26843  1.0000
  N   N2        1.0  0.38666  0.33791  0.73157  1.0000
  N   N3        1.0  0.91272  0.41542  0.27793  1.0000
  N   N4        1.0  0.08727  0.58458  0.72207  1.0000
  O   O1        1.0  0.06305  0.29372  0.28742  1.0000
  O   O2        1.0  0.93695  0.70628  0.71258  1.0000
  O   O3        1.0  0.84368  0.37424  0.94610  1.0000
  O   O4        1.0  0.15632  0.62576  0.05390  1.0000
  O   O5        1.0  0.10181  0.28506  0.03445  1.0000
  O   O6        1.0  0.89819  0.71494  0.96555  1.0000
  O   O7        1.0  0.44098  0.63904  0.83546  1.0000
  O   O8        1.0  0.55902  0.36095  0.16454  1.0000
  O   O9        1.0  0.52030  0.78990  0.94175  1.0000
  O   O10       1.0  0.47970  0.21010  0.05825  1.0000
