data_image0
_chemical_formula_structural       Cd2H36C40N8O14
_chemical_formula_sum              "Cd2 H36 C40 N8 O14"
_cell_length_a       7.92649
_cell_length_b       11.264
_cell_length_c       15.3109
_cell_angle_alpha    107.108
_cell_angle_beta     96.3419
_cell_angle_gamma    109.436

_space_group_name_H-M_alt    "P 1"
_space_group_IT_number       1

loop_
  _space_group_symop_operation_xyz
  'x, y, z'

loop_
  _atom_site_type_symbol
  _atom_site_label
  _atom_site_symmetry_multiplicity
  _atom_site_fract_x
  _atom_site_fract_y
  _atom_site_fract_z
  _atom_site_occupancy
  Cd  Cd1       1.0  0.74391  0.59121  0.15485  1.0000
  Cd  Cd2       1.0  0.25609  0.40879  0.84516  1.0000
  H   H1        1.0  0.41030  0.76241  0.69824  1.0000
  H   H2        1.0  0.58971  0.23758  0.30175  1.0000
  H   H3        1.0  0.92467  0.31954  0.67772  1.0000
  H   H4        1.0  0.07535  0.68049  0.32228  1.0000
  H   H5        1.0  0.67425  0.27414  0.10886  1.0000
  H   H6        1.0  0.32577  0.72585  0.89115  1.0000
  H   H7        1.0  0.56113  0.06740  0.96534  1.0000
  H   H8        1.0  0.43890  0.93259  0.03465  1.0000
  H   H9        1.0  0.71381  0.32522  0.80343  1.0000
  H   H10       1.0  0.28620  0.67477  0.19657  1.0000
  H   H11       1.0  0.82087  0.52122  0.95242  1.0000
  H   H12       1.0  0.17914  0.47877  0.04758  1.0000
  H   H13       1.0  0.56125  0.08953  0.71851  1.0000
  H   H14       1.0  0.43873  0.91047  0.28149  1.0000
  H   H15       1.0  0.91644  0.90970  0.26677  1.0000
  H   H16       1.0  0.08355  0.09031  0.73323  1.0000
  H   H17       1.0  0.92447  0.08382  0.41571  1.0000
  H   H18       1.0  0.07551  0.91618  0.58429  1.0000
  H   H19       1.0  0.50473  0.76771  0.46595  1.0000
  H   H20       1.0  0.49527  0.23231  0.53406  1.0000
  H   H21       1.0  0.50849  0.60857  0.31310  1.0000
  H   H22       1.0  0.49152  0.39145  0.68691  1.0000
  H   H23       1.0  0.62726  0.99234  0.58617  1.0000
  H   H24       1.0  0.37271  0.00768  0.41383  1.0000
  H   H25       1.0  0.16916  0.98925  0.14186  1.0000
  H   H26       1.0  0.83085  0.01073  0.85813  1.0000
  H   H27       1.0  0.69460  0.82066  0.91216  1.0000
  H   H28       1.0  0.30540  0.17932  0.08784  1.0000
  H   H29       1.0  0.66053  0.43030  0.45976  1.0000
  H   H30       1.0  0.33947  0.56969  0.54024  1.0000
  H   H31       1.0  0.17852  0.53629  0.37988  1.0000
  H   H32       1.0  0.82147  0.46371  0.62012  1.0000
  H   H33       1.0  0.50266  0.40042  0.19574  1.0000
  H   H34       1.0  0.49736  0.59959  0.80426  1.0000
  H   H35       1.0  0.39700  0.38467  0.09249  1.0000
  H   H36       1.0  0.60301  0.61532  0.90751  1.0000
  C   C1        1.0  0.68111  0.28128  0.03967  1.0000
  C   C2        1.0  0.31888  0.71871  0.96033  1.0000
  C   C3        1.0  0.61763  0.16643  0.95989  1.0000
  C   C4        1.0  0.38238  0.83356  0.04010  1.0000
  C   C5        1.0  0.62350  0.17915  0.87155  1.0000
  C   C6        1.0  0.37649  0.82083  0.12844  1.0000
  C   C7        1.0  0.70158  0.30968  0.86966  1.0000
  C   C8        1.0  0.29841  0.69032  0.13033  1.0000
  C   C9        1.0  0.76260  0.41923  0.95268  1.0000
  C   C10       1.0  0.23739  0.58076  0.04731  1.0000
  C   C11       1.0  0.55598  0.06634  0.78300  1.0000
  C   C12       1.0  0.44401  0.93365  0.21700  1.0000
  C   C13       1.0  0.82657  0.88368  0.31295  1.0000
  C   C14       1.0  0.17343  0.11632  0.68706  1.0000
  C   C15       1.0  0.83207  0.97911  0.39574  1.0000
  C   C16       1.0  0.16793  0.02091  0.60426  1.0000
  C   C17       1.0  0.71810  0.93912  0.45451  1.0000
  C   C18       1.0  0.28189  0.06090  0.54549  1.0000
  C   C19       1.0  0.59912  0.80312  0.42405  1.0000
  C   C20       1.0  0.40089  0.19692  0.57597  1.0000
  C   C21       1.0  0.60069  0.71432  0.33943  1.0000
  C   C22       1.0  0.39930  0.28570  0.66058  1.0000
  C   C23       1.0  0.72012  0.03157  0.54428  1.0000
  C   C24       1.0  0.27989  0.96844  0.45573  1.0000
  C   C25       1.0  0.85024  0.77667  0.06320  1.0000
  C   C26       1.0  0.14974  0.22332  0.93680  1.0000
  C   C27       1.0  0.92484  0.89185  0.03021  1.0000
  C   C28       1.0  0.07516  0.10814  0.96978  1.0000
  C   C29       1.0  0.09573  0.99475  0.07986  1.0000
  C   C30       1.0  0.90426  0.00523  0.92014  1.0000
  C   C31       1.0  0.82893  0.89838  0.95034  1.0000
  C   C32       1.0  0.17106  0.10159  0.04965  1.0000
  C   C33       1.0  0.81116  0.46504  0.31523  1.0000
  C   C34       1.0  0.18886  0.53497  0.68478  1.0000
  C   C35       1.0  0.90952  0.48138  0.41006  1.0000
  C   C36       1.0  0.09047  0.51862  0.58994  1.0000
  C   C37       1.0  0.80928  0.46033  0.47786  1.0000
  C   C38       1.0  0.19072  0.53968  0.52214  1.0000
  C   C39       1.0  0.10100  0.52101  0.43287  1.0000
  C   C40       1.0  0.89900  0.47898  0.56713  1.0000
  N   N1        1.0  0.75016  0.40681  0.03683  1.0000
  N   N2        1.0  0.24983  0.59317  0.96317  1.0000
  N   N3        1.0  0.49836  0.94353  0.78056  1.0000
  N   N4        1.0  0.50162  0.05646  0.21943  1.0000
  N   N5        1.0  0.71344  0.75274  0.28462  1.0000
  N   N6        1.0  0.28657  0.24726  0.71539  1.0000
  N   N7        1.0  0.83399  0.15560  0.57373  1.0000
  N   N8        1.0  0.16602  0.84443  0.42628  1.0000
  O   O1        1.0  0.44593  0.85235  0.68982  1.0000
  O   O2        1.0  0.55407  0.14765  0.31017  1.0000
  O   O3        1.0  0.82036  0.22912  0.65991  1.0000
  O   O4        1.0  0.17963  0.77091  0.34008  1.0000
  O   O5        1.0  0.95020  0.77393  0.13348  1.0000
  O   O6        1.0  0.04977  0.22606  0.86652  1.0000
  O   O7        1.0  0.69073  0.68482  0.02212  1.0000
  O   O8        1.0  0.30926  0.31518  0.97787  1.0000
  O   O9        1.0  0.89841  0.53993  0.27288  1.0000
  O   O10       1.0  0.10161  0.46008  0.72712  1.0000
  O   O11       1.0  0.64607  0.38004  0.28196  1.0000
  O   O12       1.0  0.35396  0.61996  0.71803  1.0000
  O   O13       1.0  0.45634  0.44750  0.15912  1.0000
  O   O14       1.0  0.54367  0.55251  0.84088  1.0000
