data_image0
_chemical_formula_structural       Nd2H8C6O16
_chemical_formula_sum              "Nd2 H8 C6 O16"
_cell_length_a       6.07792
_cell_length_b       7.77785
_cell_length_c       8.27746
_cell_angle_alpha    96.4693
_cell_angle_beta     93.2983
_cell_angle_gamma    110.096

_space_group_name_H-M_alt    "P 1"
_space_group_IT_number       1

loop_
  _space_group_symop_operation_xyz
  'x, y, z'

loop_
  _atom_site_type_symbol
  _atom_site_label
  _atom_site_symmetry_multiplicity
  _atom_site_fract_x
  _atom_site_fract_y
  _atom_site_fract_z
  _atom_site_occupancy
  Nd  Nd1       1.0  0.50106  0.81484  0.78252  1.0000
  Nd  Nd2       1.0  0.49893  0.18515  0.21748  1.0000
  H   H1        1.0  0.07121  0.87206  0.62761  1.0000
  H   H2        1.0  0.92878  0.12794  0.37239  1.0000
  H   H3        1.0  0.19341  0.82184  0.46808  1.0000
  H   H4        1.0  0.80657  0.17814  0.53192  1.0000
  H   H5        1.0  0.50812  0.17069  0.64914  1.0000
  H   H6        1.0  0.49187  0.82930  0.35086  1.0000
  H   H7        1.0  0.68706  0.23368  0.81074  1.0000
  H   H8        1.0  0.31292  0.76631  0.18924  1.0000
  C   C1        1.0  0.38664  0.50578  0.03538  1.0000
  C   C2        1.0  0.61337  0.49423  0.96463  1.0000
  C   C3        1.0  0.05962  0.98348  0.92252  1.0000
  C   C4        1.0  0.94040  0.01652  0.07748  1.0000
  C   C5        1.0  0.58946  0.57357  0.45686  1.0000
  C   C6        1.0  0.41054  0.42642  0.54313  1.0000
  O   O1        1.0  0.32702  0.64195  0.00466  1.0000
  O   O2        1.0  0.67297  0.35806  0.99534  1.0000
  O   O3        1.0  0.27109  0.98877  0.94594  1.0000
  O   O4        1.0  0.72892  0.01123  0.05406  1.0000
  O   O5        1.0  0.62453  0.74289  0.51019  1.0000
  O   O6        1.0  0.37548  0.25711  0.48981  1.0000
  O   O7        1.0  0.28131  0.38352  0.11928  1.0000
  O   O8        1.0  0.71871  0.61650  0.88072  1.0000
  O   O9        1.0  0.93984  0.95464  0.78659  1.0000
  O   O10       1.0  0.06016  0.04536  0.21341  1.0000
  O   O11       1.0  0.68279  0.51707  0.34105  1.0000
  O   O12       1.0  0.31721  0.48293  0.65895  1.0000
  O   O13       1.0  0.18656  0.81819  0.58649  1.0000
  O   O14       1.0  0.81343  0.18180  0.41352  1.0000
  O   O15       1.0  0.63453  0.14200  0.70900  1.0000
  O   O16       1.0  0.36547  0.85801  0.29102  1.0000
