data_image0
_chemical_formula_structural       H28Pb2C36Br4N8
_chemical_formula_sum              "H28 Pb2 C36 Br4 N8"
_cell_length_a       4.22755
_cell_length_b       13.9119
_cell_length_c       16.2269
_cell_angle_alpha    104.428
_cell_angle_beta     90.0002
_cell_angle_gamma    90.0003

_space_group_name_H-M_alt    "P 1"
_space_group_IT_number       1

loop_
  _space_group_symop_operation_xyz
  'x, y, z'

loop_
  _atom_site_type_symbol
  _atom_site_label
  _atom_site_symmetry_multiplicity
  _atom_site_fract_x
  _atom_site_fract_y
  _atom_site_fract_z
  _atom_site_occupancy
  H   H1        1.0  0.74450  0.47178  0.19860  1.0000
  H   H2        1.0  0.74452  0.02822  0.30140  1.0000
  H   H3        1.0  0.25549  0.52822  0.80139  1.0000
  H   H4        1.0  0.25547  0.97178  0.69860  1.0000
  H   H5        1.0  0.84421  0.65247  0.26532  1.0000
  H   H6        1.0  0.84423  0.84753  0.23467  1.0000
  H   H7        1.0  0.15578  0.34753  0.73467  1.0000
  H   H8        1.0  0.15578  0.15247  0.76532  1.0000
  H   H9        1.0  0.30731  0.61823  0.48281  1.0000
  H   H10       1.0  0.30731  0.88177  0.01719  1.0000
  H   H11       1.0  0.69268  0.38177  0.51719  1.0000
  H   H12       1.0  0.69268  0.11823  0.98281  1.0000
  H   H13       1.0  0.22515  0.43959  0.40671  1.0000
  H   H14       1.0  0.22515  0.06041  0.09329  1.0000
  H   H15       1.0  0.77487  0.56041  0.59329  1.0000
  H   H16       1.0  0.77487  0.93959  0.90670  1.0000
  H   H17       1.0  0.50236  0.77650  0.48622  1.0000
  H   H18       1.0  0.50236  0.72350  0.01379  1.0000
  H   H19       1.0  0.49762  0.22350  0.51378  1.0000
  H   H20       1.0  0.49761  0.27650  0.98622  1.0000
  H   H21       1.0  0.21838  0.92873  0.35592  1.0000
  H   H22       1.0  0.21838  0.57127  0.14408  1.0000
  H   H23       1.0  0.78161  0.07127  0.64408  1.0000
  H   H24       1.0  0.78160  0.42872  0.85592  1.0000
  H   H25       1.0  0.63877  0.90027  0.56722  1.0000
  H   H26       1.0  0.63875  0.59972  0.93278  1.0000
  H   H27       1.0  0.36121  0.09972  0.43278  1.0000
  H   H28       1.0  0.36122  0.40028  0.06722  1.0000
  Pb  Pb1       1.0  0.42716  0.24999  0.25002  1.0000
  Pb  Pb2       1.0  0.57301  0.75000  0.74999  1.0000
  C   C1        1.0  0.65005  0.50763  0.26142  1.0000
  C   C2        1.0  0.65005  0.99237  0.23858  1.0000
  C   C3        1.0  0.34994  0.49237  0.73858  1.0000
  C   C4        1.0  0.34994  0.00763  0.76142  1.0000
  C   C5        1.0  0.70774  0.60743  0.29873  1.0000
  C   C6        1.0  0.70774  0.89257  0.20128  1.0000
  C   C7        1.0  0.29226  0.39257  0.70127  1.0000
  C   C8        1.0  0.29227  0.10743  0.79872  1.0000
  C   C9        1.0  0.58749  0.64932  0.38061  1.0000
  C   C10       1.0  0.58746  0.85067  0.11939  1.0000
  C   C11       1.0  0.41252  0.35067  0.61939  1.0000
  C   C12       1.0  0.41252  0.14933  0.88061  1.0000
  C   C13       1.0  0.40812  0.58813  0.41977  1.0000
  C   C14       1.0  0.40812  0.91187  0.08023  1.0000
  C   C15       1.0  0.59187  0.41187  0.58023  1.0000
  C   C16       1.0  0.59190  0.08813  0.91977  1.0000
  C   C17       1.0  0.36251  0.48921  0.37778  1.0000
  C   C18       1.0  0.36249  0.01078  0.12222  1.0000
  C   C19       1.0  0.63750  0.51078  0.62222  1.0000
  C   C20       1.0  0.63751  0.98922  0.87778  1.0000
  C   C21       1.0  0.64482  0.75179  0.42802  1.0000
  C   C22       1.0  0.64480  0.74820  0.07198  1.0000
  C   C23       1.0  0.35517  0.24821  0.57197  1.0000
  C   C24       1.0  0.35517  0.25179  0.92802  1.0000
  C   C25       1.0  0.91627  0.90258  0.45451  1.0000
  C   C26       1.0  0.91627  0.59742  0.04549  1.0000
  C   C27       1.0  0.08372  0.09742  0.54549  1.0000
  C   C28       1.0  0.08373  0.40258  0.95451  1.0000
  C   C29       1.0  0.12195  0.96126  0.41907  1.0000
  C   C30       1.0  0.12197  0.53874  0.08093  1.0000
  C   C31       1.0  0.87803  0.03874  0.58093  1.0000
  C   C32       1.0  0.87801  0.46126  0.91908  1.0000
  C   C33       1.0  0.79654  0.94318  0.53711  1.0000
  C   C34       1.0  0.79654  0.55682  0.96289  1.0000
  C   C35       1.0  0.20345  0.05682  0.46289  1.0000
  C   C36       1.0  0.20344  0.44318  0.03711  1.0000
  Br  Br1       1.0  0.91557  0.24842  0.38174  1.0000
  Br  Br2       1.0  0.91560  0.25158  0.11827  1.0000
  Br  Br3       1.0  0.08444  0.75159  0.61828  1.0000
  Br  Br4       1.0  0.08446  0.74842  0.88172  1.0000
  N   N1        1.0  0.48232  0.44887  0.30008  1.0000
  N   N2        1.0  0.48230  0.05114  0.19993  1.0000
  N   N3        1.0  0.51769  0.55114  0.69993  1.0000
  N   N4        1.0  0.51770  0.94887  0.80007  1.0000
  N   N5        1.0  0.85270  0.80710  0.40409  1.0000
  N   N6        1.0  0.85270  0.69291  0.09590  1.0000
  N   N7        1.0  0.14729  0.19290  0.59590  1.0000
  N   N8        1.0  0.14728  0.30710  0.90410  1.0000
