data_image0
_chemical_formula_structural       H28Pb2C36N8Cl4
_chemical_formula_sum              "H28 Pb2 C36 N8 Cl4"
_cell_length_a       4.09768
_cell_length_b       13.9042
_cell_length_c       15.8543
_cell_angle_alpha    104.123
_cell_angle_beta     90.0002
_cell_angle_gamma    90

_space_group_name_H-M_alt    "P 1"
_space_group_IT_number       1

loop_
  _space_group_symop_operation_xyz
  'x, y, z'

loop_
  _atom_site_type_symbol
  _atom_site_label
  _atom_site_symmetry_multiplicity
  _atom_site_fract_x
  _atom_site_fract_y
  _atom_site_fract_z
  _atom_site_occupancy
  H   H1        1.0  0.74545  0.47039  0.19920  1.0000
  H   H2        1.0  0.74545  0.02961  0.30080  1.0000
  H   H3        1.0  0.25455  0.52961  0.80080  1.0000
  H   H4        1.0  0.25456  0.97039  0.69920  1.0000
  H   H5        1.0  0.84362  0.65159  0.26549  1.0000
  H   H6        1.0  0.84362  0.84841  0.23451  1.0000
  H   H7        1.0  0.15638  0.34841  0.73451  1.0000
  H   H8        1.0  0.15638  0.15159  0.76549  1.0000
  H   H9        1.0  0.28956  0.61860  0.48850  1.0000
  H   H10       1.0  0.28957  0.88139  0.01150  1.0000
  H   H11       1.0  0.71043  0.38139  0.51150  1.0000
  H   H12       1.0  0.71043  0.11861  0.98850  1.0000
  H   H13       1.0  0.20832  0.43912  0.41220  1.0000
  H   H14       1.0  0.20832  0.06088  0.08780  1.0000
  H   H15       1.0  0.79168  0.56088  0.58780  1.0000
  H   H16       1.0  0.79168  0.93912  0.91220  1.0000
  H   H17       1.0  0.48573  0.77715  0.48941  1.0000
  H   H18       1.0  0.48573  0.72285  0.01059  1.0000
  H   H19       1.0  0.51427  0.22285  0.51059  1.0000
  H   H20       1.0  0.51428  0.27715  0.98941  1.0000
  H   H21       1.0  0.21520  0.92776  0.35206  1.0000
  H   H22       1.0  0.21519  0.57224  0.14795  1.0000
  H   H23       1.0  0.78480  0.07224  0.64794  1.0000
  H   H24       1.0  0.78481  0.42776  0.85205  1.0000
  H   H25       1.0  0.64801  0.89898  0.57343  1.0000
  H   H26       1.0  0.64802  0.60102  0.92656  1.0000
  H   H27       1.0  0.35199  0.10102  0.42657  1.0000
  H   H28       1.0  0.35199  0.39898  0.07343  1.0000
  Pb  Pb1       1.0  0.41184  0.25000  0.25000  1.0000
  Pb  Pb2       1.0  0.58816  0.75000  0.75000  1.0000
  C   C1        1.0  0.64685  0.50661  0.26306  1.0000
  C   C2        1.0  0.64685  0.99339  0.23694  1.0000
  C   C3        1.0  0.35314  0.49339  0.73695  1.0000
  C   C4        1.0  0.35315  0.00661  0.76306  1.0000
  C   C5        1.0  0.70381  0.60657  0.30010  1.0000
  C   C6        1.0  0.70381  0.89343  0.19990  1.0000
  C   C7        1.0  0.29619  0.39343  0.69990  1.0000
  C   C8        1.0  0.29620  0.10658  0.80010  1.0000
  C   C9        1.0  0.57814  0.64880  0.38345  1.0000
  C   C10       1.0  0.57815  0.85120  0.11656  1.0000
  C   C11       1.0  0.42185  0.35121  0.61656  1.0000
  C   C12       1.0  0.42185  0.14879  0.88344  1.0000
  C   C13       1.0  0.39398  0.58790  0.42426  1.0000
  C   C14       1.0  0.39397  0.91210  0.07574  1.0000
  C   C15       1.0  0.60603  0.41210  0.57574  1.0000
  C   C16       1.0  0.60603  0.08790  0.92426  1.0000
  C   C17       1.0  0.34929  0.48878  0.38229  1.0000
  C   C18       1.0  0.34929  0.01122  0.11771  1.0000
  C   C19       1.0  0.65071  0.51122  0.61771  1.0000
  C   C20       1.0  0.65071  0.98878  0.88229  1.0000
  C   C21       1.0  0.63590  0.75152  0.43070  1.0000
  C   C22       1.0  0.63590  0.74847  0.06930  1.0000
  C   C23       1.0  0.36409  0.24847  0.56931  1.0000
  C   C24       1.0  0.36410  0.25153  0.93070  1.0000
  C   C25       1.0  0.91795  0.90176  0.45576  1.0000
  C   C26       1.0  0.91795  0.59824  0.04424  1.0000
  C   C27       1.0  0.08204  0.09824  0.54424  1.0000
  C   C28       1.0  0.08206  0.40176  0.95576  1.0000
  C   C29       1.0  0.12004  0.96079  0.41687  1.0000
  C   C30       1.0  0.12005  0.53921  0.08312  1.0000
  C   C31       1.0  0.87996  0.03921  0.58313  1.0000
  C   C32       1.0  0.87995  0.46079  0.91687  1.0000
  C   C33       1.0  0.80108  0.94262  0.54069  1.0000
  C   C34       1.0  0.80109  0.55737  0.95931  1.0000
  C   C35       1.0  0.19892  0.05738  0.45931  1.0000
  C   C36       1.0  0.19892  0.44262  0.04069  1.0000
  N   N1        1.0  0.47440  0.44817  0.30323  1.0000
  N   N2        1.0  0.47439  0.05183  0.19677  1.0000
  N   N3        1.0  0.52561  0.55183  0.69677  1.0000
  N   N4        1.0  0.52561  0.94817  0.80323  1.0000
  N   N5        1.0  0.85355  0.80571  0.40583  1.0000
  N   N6        1.0  0.85356  0.69429  0.09417  1.0000
  N   N7        1.0  0.14644  0.19429  0.59417  1.0000
  N   N8        1.0  0.14645  0.30571  0.90583  1.0000
  Cl  Cl1       1.0  0.89823  0.24680  0.37682  1.0000
  Cl  Cl2       1.0  0.89823  0.25320  0.12318  1.0000
  Cl  Cl3       1.0  0.10178  0.75320  0.62318  1.0000
  Cl  Cl4       1.0  0.10178  0.74680  0.87682  1.0000
