data_image0
_chemical_formula_structural       H28Pb2C36I4N8
_chemical_formula_sum              "H28 Pb2 C36 I4 N8"
_cell_length_a       4.41589
_cell_length_b       14.0575
_cell_length_c       16.6187
_cell_angle_alpha    105.695
_cell_angle_beta     90.0405
_cell_angle_gamma    90

_space_group_name_H-M_alt    "P 1"
_space_group_IT_number       1

loop_
  _space_group_symop_operation_xyz
  'x, y, z'

loop_
  _atom_site_type_symbol
  _atom_site_label
  _atom_site_symmetry_multiplicity
  _atom_site_fract_x
  _atom_site_fract_y
  _atom_site_fract_z
  _atom_site_occupancy
  H   H1        1.0  0.21091  0.52993  0.80433  1.0000
  H   H2        1.0  0.21068  0.97006  0.69557  1.0000
  H   H3        1.0  0.78909  0.47006  0.19567  1.0000
  H   H4        1.0  0.78926  0.02993  0.30443  1.0000
  H   H5        1.0  0.12927  0.34846  0.73965  1.0000
  H   H6        1.0  0.12899  0.15150  0.76025  1.0000
  H   H7        1.0  0.87071  0.65153  0.26033  1.0000
  H   H8        1.0  0.87098  0.84850  0.23975  1.0000
  H   H9        1.0  0.67464  0.37673  0.53136  1.0000
  H   H10       1.0  0.67478  0.12331  0.96871  1.0000
  H   H11       1.0  0.32532  0.62327  0.46863  1.0000
  H   H12       1.0  0.32518  0.87669  0.03129  1.0000
  H   H13       1.0  0.73674  0.55579  0.60473  1.0000
  H   H14       1.0  0.73685  0.94430  0.89533  1.0000
  H   H15       1.0  0.26321  0.44422  0.39527  1.0000
  H   H16       1.0  0.26322  0.05571  0.10465  1.0000
  H   H17       1.0  0.49711  0.21970  0.52729  1.0000
  H   H18       1.0  0.49721  0.28035  0.97276  1.0000
  H   H19       1.0  0.50291  0.78030  0.47270  1.0000
  H   H20       1.0  0.50284  0.71966  0.02722  1.0000
  H   H21       1.0  0.76711  0.07132  0.63904  1.0000
  H   H22       1.0  0.76687  0.42867  0.86087  1.0000
  H   H23       1.0  0.23289  0.92868  0.36095  1.0000
  H   H24       1.0  0.23310  0.57133  0.13913  1.0000
  H   H25       1.0  0.37649  0.09664  0.44308  1.0000
  H   H26       1.0  0.37651  0.40340  0.05702  1.0000
  H   H27       1.0  0.62355  0.90335  0.55692  1.0000
  H   H28       1.0  0.62342  0.59659  0.94298  1.0000
  Pb  Pb1       1.0  0.52570  0.75000  0.74995  1.0000
  Pb  Pb2       1.0  0.47460  0.25002  0.25008  1.0000
  C   C1        1.0  0.31065  0.49262  0.74387  1.0000
  C   C2        1.0  0.31049  0.00739  0.75606  1.0000
  C   C3        1.0  0.68934  0.50738  0.25613  1.0000
  C   C4        1.0  0.68947  0.99261  0.24393  1.0000
  C   C5        1.0  0.26329  0.39219  0.70760  1.0000
  C   C6        1.0  0.26310  0.10781  0.79235  1.0000
  C   C7        1.0  0.73670  0.60781  0.29239  1.0000
  C   C8        1.0  0.73686  0.89219  0.20765  1.0000
  C   C9        1.0  0.39219  0.34817  0.62897  1.0000
  C   C10       1.0  0.39206  0.15185  0.87103  1.0000
  C   C11       1.0  0.60780  0.65183  0.37102  1.0000
  C   C12       1.0  0.60791  0.84815  0.12897  1.0000
  C   C13       1.0  0.56843  0.40800  0.59203  1.0000
  C   C14       1.0  0.56844  0.09204  0.90801  1.0000
  C   C15       1.0  0.43154  0.59200  0.40797  1.0000
  C   C16       1.0  0.43154  0.90796  0.09199  1.0000
  C   C17       1.0  0.60256  0.50757  0.63256  1.0000
  C   C18       1.0  0.60257  0.99249  0.86745  1.0000
  C   C19       1.0  0.39742  0.49243  0.36743  1.0000
  C   C20       1.0  0.39745  0.00752  0.13254  1.0000
  C   C21       1.0  0.34680  0.24523  0.58172  1.0000
  C   C22       1.0  0.34670  0.25479  0.91830  1.0000
  C   C23       1.0  0.65321  0.75477  0.41828  1.0000
  C   C24       1.0  0.65327  0.74520  0.08169  1.0000
  C   C25       1.0  0.08273  0.09577  0.54851  1.0000
  C   C26       1.0  0.08262  0.40422  0.95150  1.0000
  C   C27       1.0  0.91730  0.90423  0.45149  1.0000
  C   C28       1.0  0.91731  0.59576  0.04851  1.0000
  C   C29       1.0  0.86940  0.03872  0.57806  1.0000
  C   C30       1.0  0.86924  0.46127  0.92190  1.0000
  C   C31       1.0  0.13062  0.96128  0.42194  1.0000
  C   C32       1.0  0.13070  0.53872  0.07811  1.0000
  C   C33       1.0  0.21192  0.05520  0.46880  1.0000
  C   C34       1.0  0.21190  0.44482  0.03126  1.0000
  C   C35       1.0  0.78812  0.94479  0.53120  1.0000
  C   C36       1.0  0.78803  0.55517  0.96875  1.0000
  I   I1        1.0  0.04183  0.74501  0.61015  1.0000
  I   I2        1.0  0.04230  0.75499  0.88973  1.0000
  I   I3        1.0  0.95830  0.25502  0.38990  1.0000
  I   I4        1.0  0.95781  0.24504  0.11030  1.0000
  N   N1        1.0  0.47512  0.55012  0.70710  1.0000
  N   N2        1.0  0.47509  0.94992  0.79288  1.0000
  N   N3        1.0  0.52488  0.44988  0.29291  1.0000
  N   N4        1.0  0.52492  0.05009  0.20711  1.0000
  N   N5        1.0  0.13936  0.19045  0.60077  1.0000
  N   N6        1.0  0.13912  0.30955  0.89924  1.0000
  N   N7        1.0  0.86066  0.80955  0.39923  1.0000
  N   N8        1.0  0.86078  0.69043  0.10077  1.0000
