data_image0
_chemical_formula_structural       Co2H16C24N16
_chemical_formula_sum              "Co2 H16 C24 N16"
_cell_length_a       6.90257
_cell_length_b       9.60361
_cell_length_c       10.3458
_cell_angle_alpha    109.901
_cell_angle_beta     102.979
_cell_angle_gamma    104.844

_space_group_name_H-M_alt    "P 1"
_space_group_IT_number       1

loop_
  _space_group_symop_operation_xyz
  'x, y, z'

loop_
  _atom_site_type_symbol
  _atom_site_label
  _atom_site_symmetry_multiplicity
  _atom_site_fract_x
  _atom_site_fract_y
  _atom_site_fract_z
  _atom_site_occupancy
  Co  Co1       1.0  0.09671  0.88686  0.39561  1.0000
  Co  Co2       1.0  0.90329  0.11314  0.60439  1.0000
  H   H1        1.0  0.16242  0.95958  0.13667  1.0000
  H   H2        1.0  0.83758  0.04042  0.86333  1.0000
  H   H3        1.0  0.01533  0.79615  0.86747  1.0000
  H   H4        1.0  0.98467  0.20385  0.13253  1.0000
  H   H5        1.0  0.76447  0.50958  0.76561  1.0000
  H   H6        1.0  0.23554  0.49043  0.23440  1.0000
  H   H7        1.0  0.56687  0.28506  0.82276  1.0000
  H   H8        1.0  0.43313  0.71494  0.17724  1.0000
  H   H9        1.0  0.48351  0.19426  0.00766  1.0000
  H   H10       1.0  0.51649  0.80574  0.99234  1.0000
  H   H11       1.0  0.52142  0.26246  0.27875  1.0000
  H   H12       1.0  0.47858  0.73755  0.72125  1.0000
  H   H13       1.0  0.69274  0.46822  0.53771  1.0000
  H   H14       1.0  0.30726  0.53178  0.46230  1.0000
  H   H15       1.0  0.93191  0.73898  0.59397  1.0000
  H   H16       1.0  0.06809  0.26103  0.40603  1.0000
  C   C1        1.0  0.04887  0.83810  0.08981  1.0000
  C   C2        1.0  0.95112  0.16189  0.91018  1.0000
  C   C3        1.0  0.96357  0.74369  0.93796  1.0000
  C   C4        1.0  0.03644  0.25632  0.06205  1.0000
  C   C5        1.0  0.82782  0.58710  0.88232  1.0000
  C   C6        1.0  0.17218  0.41290  0.11768  1.0000
  C   C7        1.0  0.63356  0.36623  0.93869  1.0000
  C   C8        1.0  0.36645  0.63378  0.06131  1.0000
  C   C9        1.0  0.58721  0.31634  0.04127  1.0000
  C   C10       1.0  0.41279  0.68366  0.95874  1.0000
  C   C11       1.0  0.62787  0.38161  0.30569  1.0000
  C   C12       1.0  0.37213  0.61839  0.69431  1.0000
  C   C13       1.0  0.72224  0.49617  0.44882  1.0000
  C   C14       1.0  0.27777  0.50383  0.55118  1.0000
  C   C15       1.0  0.85921  0.64914  0.48184  1.0000
  C   C16       1.0  0.14079  0.35086  0.51816  1.0000
  C   C17       1.0  0.77283  0.52511  0.98034  1.0000
  C   C18       1.0  0.22717  0.47488  0.01966  1.0000
  C   C19       1.0  0.67328  0.42172  0.19371  1.0000
  C   C20       1.0  0.32672  0.57827  0.80628  1.0000
  C   C21       1.0  0.86344  0.62862  0.13079  1.0000
  C   C22       1.0  0.13656  0.37137  0.86921  1.0000
  C   C23       1.0  0.81260  0.57833  0.23650  1.0000
  C   C24       1.0  0.18741  0.42167  0.76351  1.0000
  N   N1        1.0  0.83674  0.99631  0.39486  1.0000
  N   N2        1.0  0.16326  0.00368  0.60514  1.0000
  N   N3        1.0  0.77136  0.02948  0.29524  1.0000
  N   N4        1.0  0.22863  0.97052  0.70475  1.0000
  N   N5        1.0  0.71113  0.05465  0.19338  1.0000
  N   N6        1.0  0.28887  0.94535  0.80663  1.0000
  N   N7        1.0  0.35822  0.78207  0.42318  1.0000
  N   N8        1.0  0.64178  0.21793  0.57682  1.0000
  N   N9        1.0  0.52942  0.85820  0.51254  1.0000
  N   N10       1.0  0.47057  0.14180  0.48746  1.0000
  N   N11       1.0  0.70094  0.93163  0.60673  1.0000
  N   N12       1.0  0.29906  0.06837  0.39327  1.0000
  N   N13       1.0  0.00199  0.78211  0.18558  1.0000
  N   N14       1.0  0.99801  0.21790  0.81442  1.0000
  N   N15       1.0  0.90498  0.69129  0.37830  1.0000
  N   N16       1.0  0.09502  0.30870  0.62170  1.0000
