data_image0
_chemical_formula_structural       K2Er2H54C62N2O18
_chemical_formula_sum              "K2 Er2 H54 C62 N2 O18"
_cell_length_a       7.20467
_cell_length_b       10.9454
_cell_length_c       19.8332
_cell_angle_alpha    79.9774
_cell_angle_beta     84.4269
_cell_angle_gamma    79.2994

_space_group_name_H-M_alt    "P 1"
_space_group_IT_number       1

loop_
  _space_group_symop_operation_xyz
  'x, y, z'

loop_
  _atom_site_type_symbol
  _atom_site_label
  _atom_site_symmetry_multiplicity
  _atom_site_fract_x
  _atom_site_fract_y
  _atom_site_fract_z
  _atom_site_occupancy
  K   K1        1.0  0.18573  0.58531  0.77162  1.0000
  K   K2        1.0  0.81427  0.41469  0.22839  1.0000
  Er  Er1       1.0  0.72247  0.46111  0.76102  1.0000
  Er  Er2       1.0  0.27753  0.53889  0.23898  1.0000
  H   H1        1.0  0.35194  0.85186  0.65876  1.0000
  H   H2        1.0  0.64806  0.14814  0.34124  1.0000
  H   H3        1.0  0.42710  0.02333  0.57818  1.0000
  H   H4        1.0  0.57291  0.97666  0.42182  1.0000
  H   H5        1.0  0.71747  0.05202  0.52019  1.0000
  H   H6        1.0  0.28254  0.94797  0.47982  1.0000
  H   H7        1.0  0.01173  0.91385  0.53089  1.0000
  H   H8        1.0  0.98828  0.08615  0.46912  1.0000
  H   H9        1.0  0.08579  0.72212  0.60273  1.0000
  H   H10       1.0  0.91422  0.27788  0.39728  1.0000
  H   H11       1.0  0.17208  0.37537  0.67352  1.0000
  H   H12       1.0  0.82791  0.62465  0.32647  1.0000
  H   H13       1.0  0.10780  0.33511  0.56849  1.0000
  H   H14       1.0  0.89219  0.66491  0.43151  1.0000
  H   H15       1.0  0.31467  0.30508  0.47040  1.0000
  H   H16       1.0  0.68533  0.69493  0.52960  1.0000
  H   H17       1.0  0.64063  0.30948  0.45759  1.0000
  H   H18       1.0  0.35937  0.69052  0.54241  1.0000
  H   H19       1.0  0.83979  0.33978  0.53688  1.0000
  H   H20       1.0  0.16021  0.66022  0.46312  1.0000
  H   H21       1.0  0.90091  0.71219  0.91446  1.0000
  H   H22       1.0  0.09909  0.28782  0.08555  1.0000
  H   H23       1.0  0.75334  0.78385  0.01449  1.0000
  H   H24       1.0  0.24665  0.21617  0.98551  1.0000
  H   H25       1.0  0.45391  0.75875  0.06860  1.0000
  H   H26       1.0  0.54607  0.24126  0.93140  1.0000
  H   H27       1.0  0.22148  0.67006  0.02952  1.0000
  H   H28       1.0  0.77851  0.32996  0.97047  1.0000
  H   H29       1.0  0.23702  0.56701  0.93495  1.0000
  H   H30       1.0  0.76297  0.43301  0.06504  1.0000
  H   H31       1.0  0.76379  0.05199  0.90389  1.0000
  H   H32       1.0  0.23621  0.94800  0.09610  1.0000
  H   H33       1.0  0.01595  0.90007  0.94450  1.0000
  H   H34       1.0  0.98405  0.09992  0.05550  1.0000
  H   H35       1.0  0.34231  0.90465  0.92905  1.0000
  H   H36       1.0  0.65770  0.09534  0.07094  1.0000
  H   H37       1.0  0.48998  0.07177  0.87093  1.0000
  H   H38       1.0  0.51002  0.92823  0.12906  1.0000
  H   H39       1.0  0.35656  0.26603  0.81239  1.0000
  H   H40       1.0  0.64343  0.73397  0.18761  1.0000
  H   H41       1.0  0.14824  0.02621  0.69460  1.0000
  H   H42       1.0  0.85177  0.97379  0.30540  1.0000
  H   H43       1.0  0.99413  0.17314  0.70196  1.0000
  H   H44       1.0  0.00587  0.82686  0.29804  1.0000
  H   H45       1.0  0.98436  0.09773  0.63036  1.0000
  H   H46       1.0  0.01564  0.90226  0.36964  1.0000
  H   H47       1.0  0.58198  0.00429  0.75209  1.0000
  H   H48       1.0  0.41803  0.99571  0.24791  1.0000
  H   H49       1.0  0.62575  0.09975  0.67195  1.0000
  H   H50       1.0  0.37427  0.90024  0.32805  1.0000
  H   H51       1.0  0.64872  0.15453  0.75012  1.0000
  H   H52       1.0  0.35128  0.84546  0.24988  1.0000
  H   H53       1.0  0.80005  0.85308  0.78618  1.0000
  H   H54       1.0  0.19996  0.14691  0.21383  1.0000
  C   C1        1.0  0.61442  0.73173  0.66664  1.0000
  C   C2        1.0  0.38559  0.26826  0.33337  1.0000
  C   C3        1.0  0.49932  0.84517  0.63811  1.0000
  C   C4        1.0  0.50069  0.15482  0.36189  1.0000
  C   C5        1.0  0.54490  0.94615  0.59056  1.0000
  C   C6        1.0  0.45510  0.05384  0.40944  1.0000
  C   C7        1.0  0.71865  0.96406  0.55596  1.0000
  C   C8        1.0  0.28135  0.03593  0.44404  1.0000
  C   C9        1.0  0.89191  0.88285  0.56298  1.0000
  C   C10       1.0  0.10811  0.11714  0.43703  1.0000
  C   C11       1.0  0.93756  0.76800  0.60546  1.0000
  C   C12       1.0  0.06245  0.23200  0.39454  1.0000
  C   C13       1.0  0.82349  0.69811  0.65362  1.0000
  C   C14       1.0  0.17651  0.30188  0.34638  1.0000
  C   C15       1.0  0.46449  0.37765  0.66127  1.0000
  C   C16       1.0  0.53551  0.62235  0.33873  1.0000
  C   C17       1.0  0.29372  0.36355  0.63639  1.0000
  C   C18       1.0  0.70628  0.63646  0.36361  1.0000
  C   C19       1.0  0.25639  0.33916  0.57295  1.0000
  C   C20       1.0  0.74360  0.66085  0.42705  1.0000
  C   C21       1.0  0.37801  0.32127  0.51507  1.0000
  C   C22       1.0  0.62199  0.67874  0.48493  1.0000
  C   C23       1.0  0.57208  0.32345  0.50802  1.0000
  C   C24       1.0  0.42792  0.67656  0.49197  1.0000
  C   C25       1.0  0.69135  0.34162  0.55509  1.0000
  C   C26       1.0  0.30864  0.65838  0.44491  1.0000
  C   C27       1.0  0.65361  0.36551  0.62355  1.0000
  C   C28       1.0  0.34638  0.63449  0.37645  1.0000
  C   C29       1.0  0.69902  0.61910  0.88558  1.0000
  C   C30       1.0  0.30098  0.38090  0.11442  1.0000
  C   C31       1.0  0.75871  0.69112  0.92961  1.0000
  C   C32       1.0  0.24128  0.30889  0.07039  1.0000
  C   C33       1.0  0.66999  0.73408  0.98867  1.0000
  C   C34       1.0  0.33000  0.26594  0.01133  1.0000
  C   C35       1.0  0.49099  0.72254  0.02032  1.0000
  C   C36       1.0  0.50899  0.27747  0.97968  1.0000
  C   C37       1.0  0.35410  0.66721  0.99744  1.0000
  C   C38       1.0  0.64589  0.33280  0.00256  1.0000
  C   C39       1.0  0.36203  0.60651  0.94096  1.0000
  C   C40       1.0  0.63797  0.39350  0.05904  1.0000
  C   C41       1.0  0.51174  0.57829  0.89139  1.0000
  C   C42       1.0  0.48826  0.42172  0.10861  1.0000
  C   C43       1.0  0.89956  0.19593  0.84831  1.0000
  C   C44       1.0  0.10043  0.80407  0.15169  1.0000
  C   C45       1.0  0.90431  0.07638  0.88982  1.0000
  C   C46       1.0  0.09568  0.92361  0.11018  1.0000
  C   C47       1.0  0.05557  0.98588  0.91411  1.0000
  C   C48       1.0  0.94443  0.01412  0.08589  1.0000
  C   C49       1.0  0.24935  0.98835  0.90560  1.0000
  C   C50       1.0  0.75064  0.01165  0.09440  1.0000
  C   C51       1.0  0.33582  0.08731  0.87082  1.0000
  C   C52       1.0  0.66417  0.91269  0.12917  1.0000
  C   C53       1.0  0.25729  0.20388  0.83559  1.0000
  C   C54       1.0  0.74270  0.79611  0.16441  1.0000
  C   C55       1.0  0.06691  0.25596  0.82285  1.0000
  C   C56       1.0  0.93308  0.74404  0.17715  1.0000
  C   C57       1.0  0.00707  0.08105  0.68553  1.0000
  C   C58       1.0  0.99293  0.91894  0.31448  1.0000
  C   C59       1.0  0.67014  0.07117  0.72461  1.0000
  C   C60       1.0  0.32987  0.92882  0.27539  1.0000
  C   C61       1.0  0.92121  0.89449  0.75874  1.0000
  C   C62       1.0  0.07876  0.10552  0.24126  1.0000
  N   N1        1.0  0.86774  0.01085  0.72388  1.0000
  N   N2        1.0  0.13227  0.98914  0.27612  1.0000
  O   O1        1.0  0.46315  0.40357  0.72248  1.0000
  O   O2        1.0  0.53685  0.59643  0.27752  1.0000
  O   O3        1.0  0.78915  0.37995  0.65758  1.0000
  O   O4        1.0  0.21085  0.62005  0.34242  1.0000
  O   O5        1.0  0.53875  0.64915  0.70877  1.0000
  O   O6        1.0  0.46125  0.35085  0.29123  1.0000
  O   O7        1.0  0.90116  0.59548  0.68959  1.0000
  O   O8        1.0  0.09885  0.40451  0.31042  1.0000
  O   O9        1.0  0.81228  0.58343  0.83569  1.0000
  O   O10       1.0  0.18772  0.41657  0.16432  1.0000
  O   O11       1.0  0.48971  0.51129  0.84629  1.0000
  O   O12       1.0  0.51029  0.48872  0.15371  1.0000
  O   O13       1.0  0.02751  0.36588  0.78606  1.0000
  O   O14       1.0  0.97248  0.63412  0.21394  1.0000
  O   O15       1.0  0.73950  0.26213  0.82994  1.0000
  O   O16       1.0  0.26049  0.73786  0.17006  1.0000
  O   O17       1.0  0.08674  0.83620  0.76111  1.0000
  O   O18       1.0  0.91329  0.16378  0.23889  1.0000
