data_image0
_chemical_formula_structural       Cd4H40C32N40
_chemical_formula_sum              "Cd4 H40 C32 N40"
_cell_length_a       6.48217
_cell_length_b       10.4498
_cell_length_c       18.9736
_cell_angle_alpha    90.0002
_cell_angle_beta     90
_cell_angle_gamma    90.4083

_space_group_name_H-M_alt    "P 1"
_space_group_IT_number       1

loop_
  _space_group_symop_operation_xyz
  'x, y, z'

loop_
  _atom_site_type_symbol
  _atom_site_label
  _atom_site_symmetry_multiplicity
  _atom_site_fract_x
  _atom_site_fract_y
  _atom_site_fract_z
  _atom_site_occupancy
  Cd  Cd1       1.0  0.74574  0.06070  0.53813  1.0000
  Cd  Cd2       1.0  0.25426  0.43929  0.03814  1.0000
  Cd  Cd3       1.0  0.25426  0.93930  0.46186  1.0000
  Cd  Cd4       1.0  0.74574  0.56070  0.96187  1.0000
  H   H1        1.0  0.81807  0.39792  0.53431  1.0000
  H   H2        1.0  0.18193  0.10208  0.03431  1.0000
  H   H3        1.0  0.18193  0.60208  0.46569  1.0000
  H   H4        1.0  0.81807  0.89792  0.96569  1.0000
  H   H5        1.0  0.53956  0.56328  0.59584  1.0000
  H   H6        1.0  0.46044  0.93673  0.09584  1.0000
  H   H7        1.0  0.46044  0.43672  0.40416  1.0000
  H   H8        1.0  0.53955  0.06327  0.90416  1.0000
  H   H9        1.0  0.29469  0.18557  0.59936  1.0000
  H   H10       1.0  0.70531  0.31443  0.09936  1.0000
  H   H11       1.0  0.70531  0.81443  0.40064  1.0000
  H   H12       1.0  0.29469  0.68557  0.90064  1.0000
  H   H13       1.0  0.07723  0.35307  0.65370  1.0000
  H   H14       1.0  0.92276  0.14693  0.15370  1.0000
  H   H15       1.0  0.92277  0.64693  0.34630  1.0000
  H   H16       1.0  0.07724  0.85307  0.84630  1.0000
  H   H17       1.0  0.10202  0.50402  0.61081  1.0000
  H   H18       1.0  0.89798  0.99598  0.11081  1.0000
  H   H19       1.0  0.89798  0.49598  0.38919  1.0000
  H   H20       1.0  0.10202  0.00402  0.88919  1.0000
  H   H21       1.0  0.32886  0.42459  0.74689  1.0000
  H   H22       1.0  0.67114  0.07541  0.24689  1.0000
  H   H23       1.0  0.67114  0.57541  0.25311  1.0000
  H   H24       1.0  0.32886  0.92459  0.75311  1.0000
  H   H25       1.0  0.35322  0.57628  0.70422  1.0000
  H   H26       1.0  0.64677  0.92372  0.20422  1.0000
  H   H27       1.0  0.64677  0.42372  0.29578  1.0000
  H   H28       1.0  0.35323  0.07628  0.79578  1.0000
  H   H29       1.0  0.92604  0.66969  0.68085  1.0000
  H   H30       1.0  0.07396  0.83032  0.18086  1.0000
  H   H31       1.0  0.07396  0.33032  0.31915  1.0000
  H   H32       1.0  0.92604  0.16968  0.81915  1.0000
  H   H33       1.0  0.66930  0.71089  0.79574  1.0000
  H   H34       1.0  0.33070  0.78911  0.29574  1.0000
  H   H35       1.0  0.33070  0.28912  0.20426  1.0000
  H   H36       1.0  0.66930  0.21088  0.70426  1.0000
  H   H37       1.0  0.11835  0.43954  0.85227  1.0000
  H   H38       1.0  0.88165  0.06046  0.35228  1.0000
  H   H39       1.0  0.88165  0.56046  0.14773  1.0000
  H   H40       1.0  0.11835  0.93954  0.64772  1.0000
  C   C1        1.0  0.66924  0.37705  0.55777  1.0000
  C   C2        1.0  0.33075  0.12295  0.05777  1.0000
  C   C3        1.0  0.33075  0.62295  0.44223  1.0000
  C   C4        1.0  0.66925  0.87705  0.94223  1.0000
  C   C5        1.0  0.53251  0.46065  0.58788  1.0000
  C   C6        1.0  0.46748  0.03935  0.08788  1.0000
  C   C7        1.0  0.46748  0.53935  0.41212  1.0000
  C   C8        1.0  0.53251  0.96065  0.91212  1.0000
  C   C9        1.0  0.40237  0.26391  0.59030  1.0000
  C   C10       1.0  0.59763  0.23609  0.09030  1.0000
  C   C11       1.0  0.59763  0.73609  0.40971  1.0000
  C   C12       1.0  0.40238  0.76391  0.90970  1.0000
  C   C13       1.0  0.18192  0.43445  0.64445  1.0000
  C   C14       1.0  0.81808  0.06555  0.14445  1.0000
  C   C15       1.0  0.81808  0.56555  0.35555  1.0000
  C   C16       1.0  0.18192  0.93445  0.85555  1.0000
  C   C17       1.0  0.24828  0.49533  0.71430  1.0000
  C   C18       1.0  0.75172  0.00467  0.21430  1.0000
  C   C19       1.0  0.75172  0.50467  0.28570  1.0000
  C   C20       1.0  0.24828  0.99533  0.78570  1.0000
  C   C21       1.0  0.92845  0.63069  0.73382  1.0000
  C   C22       1.0  0.07155  0.86931  0.23381  1.0000
  C   C23       1.0  0.07155  0.36931  0.26618  1.0000
  C   C24       1.0  0.92845  0.13069  0.76618  1.0000
  C   C25       1.0  0.80151  0.64862  0.79102  1.0000
  C   C26       1.0  0.19850  0.85137  0.29102  1.0000
  C   C27       1.0  0.19850  0.35138  0.20898  1.0000
  C   C28       1.0  0.80150  0.14862  0.70898  1.0000
  C   C29       1.0  0.02896  0.50771  0.82229  1.0000
  C   C30       1.0  0.97103  0.99229  0.32229  1.0000
  C   C31       1.0  0.97103  0.49229  0.17771  1.0000
  C   C32       1.0  0.02897  0.00771  0.67771  1.0000
  N   N1        1.0  0.58617  0.25492  0.55939  1.0000
  N   N2        1.0  0.41383  0.24508  0.05939  1.0000
  N   N3        1.0  0.41383  0.74508  0.44061  1.0000
  N   N4        1.0  0.58617  0.75492  0.94061  1.0000
  N   N5        1.0  0.36413  0.38748  0.60806  1.0000
  N   N6        1.0  0.63586  0.11253  0.10806  1.0000
  N   N7        1.0  0.63586  0.61253  0.39194  1.0000
  N   N8        1.0  0.36414  0.88748  0.89194  1.0000
  N   N9        1.0  0.07234  0.54101  0.75466  1.0000
  N   N10       1.0  0.92766  0.95899  0.25466  1.0000
  N   N11       1.0  0.92766  0.45899  0.24534  1.0000
  N   N12       1.0  0.07234  0.04101  0.74534  1.0000
  N   N13       1.0  0.86643  0.57167  0.84588  1.0000
  N   N14       1.0  0.13356  0.92833  0.34588  1.0000
  N   N15       1.0  0.13356  0.42833  0.15412  1.0000
  N   N16       1.0  0.86644  0.07167  0.65412  1.0000
  N   N17       1.0  0.55268  0.05466  0.42777  1.0000
  N   N18       1.0  0.44732  0.44533  0.92777  1.0000
  N   N19       1.0  0.44732  0.94532  0.57223  1.0000
  N   N20       1.0  0.55268  0.55467  0.07223  1.0000
  N   N21       1.0  0.54633  0.13903  0.38464  1.0000
  N   N22       1.0  0.45367  0.36097  0.88464  1.0000
  N   N23       1.0  0.45367  0.86098  0.61535  1.0000
  N   N24       1.0  0.54633  0.63903  0.11535  1.0000
  N   N25       1.0  0.54461  0.21878  0.34129  1.0000
  N   N26       1.0  0.45539  0.28122  0.84129  1.0000
  N   N27       1.0  0.45539  0.78122  0.65871  1.0000
  N   N28       1.0  0.54461  0.71878  0.15871  1.0000
  N   N29       1.0  0.04904  0.12891  0.48106  1.0000
  N   N30       1.0  0.95097  0.37110  0.98106  1.0000
  N   N31       1.0  0.95097  0.87110  0.51894  1.0000
  N   N32       1.0  0.04904  0.62890  0.01894  1.0000
  N   N33       1.0  0.07843  0.23792  0.46289  1.0000
  N   N34       1.0  0.92157  0.26208  0.96289  1.0000
  N   N35       1.0  0.92157  0.76208  0.53711  1.0000
  N   N36       1.0  0.07844  0.73792  0.03711  1.0000
  N   N37       1.0  0.10645  0.34412  0.44595  1.0000
  N   N38       1.0  0.89356  0.15588  0.94595  1.0000
  N   N39       1.0  0.89356  0.65588  0.55405  1.0000
  N   N40       1.0  0.10645  0.84412  0.05405  1.0000
