data_image0
_chemical_formula_structural       Na4B4H44C16O32
_chemical_formula_sum              "Na4 B4 H44 C16 O32"
_cell_length_a       7.64783
_cell_length_b       10.997
_cell_length_c       10.9971
_cell_angle_alpha    76.3885
_cell_angle_beta     94.2721
_cell_angle_gamma    94.2726

_space_group_name_H-M_alt    "P 1"
_space_group_IT_number       1

loop_
  _space_group_symop_operation_xyz
  'x, y, z'

loop_
  _atom_site_type_symbol
  _atom_site_label
  _atom_site_symmetry_multiplicity
  _atom_site_fract_x
  _atom_site_fract_y
  _atom_site_fract_z
  _atom_site_occupancy
  Na  Na1       1.0  0.56888  0.91132  0.39711  1.0000
  Na  Na2       1.0  0.93112  0.60289  0.08869  1.0000
  Na  Na3       1.0  0.43113  0.08869  0.60289  1.0000
  Na  Na4       1.0  0.06888  0.39712  0.91131  1.0000
  B   B1        1.0  0.59373  0.16629  0.14241  1.0000
  B   B2        1.0  0.90628  0.85758  0.83371  1.0000
  B   B3        1.0  0.40627  0.83372  0.85758  1.0000
  B   B4        1.0  0.09372  0.14242  0.16629  1.0000
  H   H1        1.0  0.67920  0.69387  0.42782  1.0000
  H   H2        1.0  0.82076  0.57218  0.30613  1.0000
  H   H3        1.0  0.32078  0.30611  0.57218  1.0000
  H   H4        1.0  0.17922  0.42781  0.69387  1.0000
  H   H5        1.0  0.68465  0.37867  0.74553  1.0000
  H   H6        1.0  0.81534  0.25449  0.62136  1.0000
  H   H7        1.0  0.31534  0.62133  0.25448  1.0000
  H   H8        1.0  0.18466  0.74551  0.37865  1.0000
  H   H9        1.0  0.52996  0.17614  0.31284  1.0000
  H   H10       1.0  0.97005  0.68715  0.82386  1.0000
  H   H11       1.0  0.47005  0.82387  0.68716  1.0000
  H   H12       1.0  0.02995  0.31285  0.17614  1.0000
  H   H13       1.0  0.51433  0.33917  0.14566  1.0000
  H   H14       1.0  0.98567  0.85433  0.66083  1.0000
  H   H15       1.0  0.48566  0.66084  0.85433  1.0000
  H   H16       1.0  0.01434  0.14567  0.33917  1.0000
  H   H17       1.0  0.62761  0.11926  0.97979  1.0000
  H   H18       1.0  0.87240  0.02021  0.88074  1.0000
  H   H19       1.0  0.37239  0.88074  0.02021  1.0000
  H   H20       1.0  0.12761  0.97980  0.11926  1.0000
  H   H21       1.0  0.22436  0.89236  0.50557  1.0000
  H   H22       1.0  0.27565  0.49443  0.10764  1.0000
  H   H23       1.0  0.77564  0.10764  0.49444  1.0000
  H   H24       1.0  0.72436  0.50558  0.89237  1.0000
  H   H25       1.0  0.22452  0.00815  0.39169  1.0000
  H   H26       1.0  0.27549  0.60832  0.99185  1.0000
  H   H27       1.0  0.77548  0.99184  0.60831  1.0000
  H   H28       1.0  0.72451  0.39169  0.00815  1.0000
  H   H29       1.0  0.55958  0.78395  0.17242  1.0000
  H   H30       1.0  0.94042  0.82757  0.21605  1.0000
  H   H31       1.0  0.44042  0.21606  0.82757  1.0000
  H   H32       1.0  0.05959  0.17243  0.78395  1.0000
  H   H33       1.0  0.56737  0.93265  0.13960  1.0000
  H   H34       1.0  0.93264  0.86040  0.06736  1.0000
  H   H35       1.0  0.43264  0.06736  0.86040  1.0000
  H   H36       1.0  0.06736  0.13961  0.93264  1.0000
  H   H37       1.0  0.92241  0.95274  0.32755  1.0000
  H   H38       1.0  0.57759  0.67245  0.04725  1.0000
  H   H39       1.0  0.07759  0.04725  0.67245  1.0000
  H   H40       1.0  0.42242  0.32756  0.95274  1.0000
  H   H41       1.0  0.92624  0.82682  0.42960  1.0000
  H   H42       1.0  0.57377  0.57040  0.17317  1.0000
  H   H43       1.0  0.07376  0.17317  0.57041  1.0000
  H   H44       1.0  0.42624  0.42960  0.82682  1.0000
  C   C1        1.0  0.59081  0.62559  0.66603  1.0000
  C   C2        1.0  0.90917  0.33396  0.37443  1.0000
  C   C3        1.0  0.40920  0.37441  0.33397  1.0000
  C   C4        1.0  0.09082  0.66603  0.62558  1.0000
  C   C5        1.0  0.67305  0.54623  0.59516  1.0000
  C   C6        1.0  0.82692  0.40483  0.45378  1.0000
  C   C7        1.0  0.32696  0.45377  0.40484  1.0000
  C   C8        1.0  0.17306  0.59515  0.54623  1.0000
  C   C9        1.0  0.71079  0.59829  0.47070  1.0000
  C   C10       1.0  0.78918  0.52929  0.40171  1.0000
  C   C11       1.0  0.28921  0.40170  0.52930  1.0000
  C   C12       1.0  0.21080  0.47069  0.59829  1.0000
  C   C13       1.0  0.71254  0.42160  0.64874  1.0000
  C   C14       1.0  0.78742  0.35127  0.57841  1.0000
  C   C15       1.0  0.28746  0.57840  0.35127  1.0000
  C   C16       1.0  0.21256  0.64872  0.42159  1.0000
  O   O1        1.0  0.56129  0.73767  0.61224  1.0000
  O   O2        1.0  0.93870  0.38775  0.26234  1.0000
  O   O3        1.0  0.43872  0.26233  0.38775  1.0000
  O   O4        1.0  0.06130  0.61223  0.73767  1.0000
  O   O5        1.0  0.55386  0.57469  0.78056  1.0000
  O   O6        1.0  0.94613  0.21944  0.42533  1.0000
  O   O7        1.0  0.44614  0.42532  0.21944  1.0000
  O   O8        1.0  0.05387  0.78055  0.57468  1.0000
  O   O9        1.0  0.57958  0.11719  0.26780  1.0000
  O   O10       1.0  0.92045  0.73220  0.88281  1.0000
  O   O11       1.0  0.42043  0.88282  0.73220  1.0000
  O   O12       1.0  0.07955  0.26781  0.11719  1.0000
  O   O13       1.0  0.55665  0.28922  0.08595  1.0000
  O   O14       1.0  0.94335  0.91405  0.71077  1.0000
  O   O15       1.0  0.44335  0.71078  0.91405  1.0000
  O   O16       1.0  0.05665  0.08595  0.28922  1.0000
  O   O17       1.0  0.64862  0.08929  0.07203  1.0000
  O   O18       1.0  0.85139  0.92797  0.91070  1.0000
  O   O19       1.0  0.35138  0.91071  0.92797  1.0000
  O   O20       1.0  0.14862  0.07204  0.08929  1.0000
  O   O21       1.0  0.30234  0.96033  0.45900  1.0000
  O   O22       1.0  0.19766  0.54100  0.03967  1.0000
  O   O23       1.0  0.69766  0.03966  0.54100  1.0000
  O   O24       1.0  0.80234  0.45901  0.96034  1.0000
  O   O25       1.0  0.49337  0.85697  0.17689  1.0000
  O   O26       1.0  0.00664  0.82312  0.14304  1.0000
  O   O27       1.0  0.50663  0.14304  0.82310  1.0000
  O   O28       1.0  0.99337  0.17689  0.85696  1.0000
  O   O29       1.0  0.86041  0.86851  0.35163  1.0000
  O   O30       1.0  0.63960  0.64837  0.13149  1.0000
  O   O31       1.0  0.13960  0.13148  0.64837  1.0000
  O   O32       1.0  0.36041  0.35163  0.86851  1.0000
