data_image0
_chemical_formula_structural       Cd4H48C24S4O24
_chemical_formula_sum              "Cd4 H48 C24 S4 O24"
_cell_length_a       7.63559
_cell_length_b       10.048
_cell_length_c       13.1444
_cell_angle_alpha    89.9988
_cell_angle_beta     89.9989
_cell_angle_gamma    94.3167

_space_group_name_H-M_alt    "P 1"
_space_group_IT_number       1

loop_
  _space_group_symop_operation_xyz
  'x, y, z'

loop_
  _atom_site_type_symbol
  _atom_site_label
  _atom_site_symmetry_multiplicity
  _atom_site_fract_x
  _atom_site_fract_y
  _atom_site_fract_z
  _atom_site_occupancy
  Cd  Cd1       1.0  0.34783  0.67115  0.39677  1.0000
  Cd  Cd2       1.0  0.15215  0.82885  0.89675  1.0000
  Cd  Cd3       1.0  0.65215  0.32885  0.60324  1.0000
  Cd  Cd4       1.0  0.84785  0.17114  0.10324  1.0000
  H   H1        1.0  0.39577  0.32445  0.96245  1.0000
  H   H2        1.0  0.10424  0.17552  0.46245  1.0000
  H   H3        1.0  0.60424  0.67553  0.03755  1.0000
  H   H4        1.0  0.89572  0.82448  0.53754  1.0000
  H   H5        1.0  0.45656  0.18874  0.03584  1.0000
  H   H6        1.0  0.04346  0.31125  0.53584  1.0000
  H   H7        1.0  0.54343  0.81125  0.96415  1.0000
  H   H8        1.0  0.95653  0.68876  0.46415  1.0000
  H   H9        1.0  0.49300  0.33646  0.19127  1.0000
  H   H10       1.0  0.00701  0.16356  0.69129  1.0000
  H   H11       1.0  0.50701  0.66351  0.80872  1.0000
  H   H12       1.0  0.99299  0.83649  0.30871  1.0000
  H   H13       1.0  0.43617  0.47436  0.11799  1.0000
  H   H14       1.0  0.06384  0.02565  0.61801  1.0000
  H   H15       1.0  0.56382  0.52561  0.88202  1.0000
  H   H16       1.0  0.93616  0.97439  0.38200  1.0000
  H   H17       1.0  0.72592  0.57608  0.20126  1.0000
  H   H18       1.0  0.77411  0.92392  0.70126  1.0000
  H   H19       1.0  0.27406  0.42391  0.79875  1.0000
  H   H20       1.0  0.22592  0.07609  0.29873  1.0000
  H   H21       1.0  0.81862  0.42742  0.24197  1.0000
  H   H22       1.0  0.68138  0.07258  0.74197  1.0000
  H   H23       1.0  0.18137  0.57257  0.75802  1.0000
  H   H24       1.0  0.31864  0.92742  0.25803  1.0000
  H   H25       1.0  0.07069  0.48517  0.11274  1.0000
  H   H26       1.0  0.42934  0.01482  0.61273  1.0000
  H   H27       1.0  0.92931  0.51483  0.88727  1.0000
  H   H28       1.0  0.57068  0.98518  0.38726  1.0000
  H   H29       1.0  0.98765  0.64366  0.10024  1.0000
  H   H30       1.0  0.51239  0.85633  0.60025  1.0000
  H   H31       1.0  0.01234  0.35635  0.89977  1.0000
  H   H32       1.0  0.48764  0.14365  0.39976  1.0000
  H   H33       1.0  0.10952  0.55860  0.60411  1.0000
  H   H34       1.0  0.39049  0.94141  0.10412  1.0000
  H   H35       1.0  0.89047  0.44140  0.39588  1.0000
  H   H36       1.0  0.60952  0.05859  0.89589  1.0000
  H   H37       1.0  0.22584  0.69316  0.62465  1.0000
  H   H38       1.0  0.27418  0.80685  0.12465  1.0000
  H   H39       1.0  0.77416  0.30685  0.37535  1.0000
  H   H40       1.0  0.72584  0.19315  0.87534  1.0000
  H   H41       1.0  0.40113  0.39782  0.40306  1.0000
  H   H42       1.0  0.09887  0.10218  0.90307  1.0000
  H   H43       1.0  0.59886  0.60218  0.59693  1.0000
  H   H44       1.0  0.90114  0.89780  0.09693  1.0000
  H   H45       1.0  0.58209  0.46482  0.37550  1.0000
  H   H46       1.0  0.91790  0.03520  0.87550  1.0000
  H   H47       1.0  0.41789  0.53520  0.62451  1.0000
  H   H48       1.0  0.08210  0.96479  0.12450  1.0000
  C   C1        1.0  0.39430  0.28383  0.04006  1.0000
  C   C2        1.0  0.10573  0.21618  0.54006  1.0000
  C   C3        1.0  0.60571  0.71616  0.95995  1.0000
  C   C4        1.0  0.89425  0.78384  0.45993  1.0000
  C   C5        1.0  0.49387  0.37753  0.11412  1.0000
  C   C6        1.0  0.00615  0.12247  0.61413  1.0000
  C   C7        1.0  0.50613  0.62245  0.88587  1.0000
  C   C8        1.0  0.99384  0.87755  0.38587  1.0000
  C   C9        1.0  0.81367  0.49886  0.17971  1.0000
  C   C10       1.0  0.68635  0.00112  0.67972  1.0000
  C   C11       1.0  0.18634  0.50113  0.82029  1.0000
  C   C12       1.0  0.31367  0.99888  0.32028  1.0000
  C   C13       1.0  0.99576  0.55906  0.15223  1.0000
  C   C14       1.0  0.50423  0.94093  0.65222  1.0000
  C   C15       1.0  0.00422  0.44094  0.84779  1.0000
  C   C16       1.0  0.49578  0.05907  0.34777  1.0000
  C   C17       1.0  0.10904  0.60307  0.24205  1.0000
  C   C18       1.0  0.39096  0.89695  0.74204  1.0000
  C   C19       1.0  0.89096  0.39691  0.75797  1.0000
  C   C20       1.0  0.60907  0.10307  0.25796  1.0000
  C   C21       1.0  0.20537  0.25132  0.07207  1.0000
  C   C22       1.0  0.29466  0.24870  0.57207  1.0000
  C   C23       1.0  0.79463  0.74865  0.92794  1.0000
  C   C24       1.0  0.70533  0.75135  0.42794  1.0000
  S   S1        1.0  0.71869  0.40857  0.07079  1.0000
  S   S2        1.0  0.78131  0.09145  0.57078  1.0000
  S   S3        1.0  0.28130  0.59144  0.92923  1.0000
  S   S4        1.0  0.21868  0.90856  0.42924  1.0000
  O   O1        1.0  0.24285  0.68475  0.22394  1.0000
  O   O2        1.0  0.25716  0.81526  0.72393  1.0000
  O   O3        1.0  0.75714  0.31525  0.77608  1.0000
  O   O4        1.0  0.74285  0.18475  0.27607  1.0000
  O   O5        1.0  0.07587  0.55783  0.33127  1.0000
  O   O6        1.0  0.42413  0.94218  0.83126  1.0000
  O   O7        1.0  0.92412  0.44218  0.66875  1.0000
  O   O8        1.0  0.57588  0.05783  0.16874  1.0000
  O   O9        1.0  0.21492  0.61269  0.57979  1.0000
  O   O10       1.0  0.28510  0.88732  0.07979  1.0000
  O   O11       1.0  0.78508  0.38732  0.42022  1.0000
  O   O12       1.0  0.71491  0.11268  0.92021  1.0000
  O   O13       1.0  0.45650  0.46898  0.35796  1.0000
  O   O14       1.0  0.04346  0.03102  0.85796  1.0000
  O   O15       1.0  0.54348  0.53103  0.64203  1.0000
  O   O16       1.0  0.95653  0.96897  0.14203  1.0000
  O   O17       1.0  0.15641  0.26513  0.16253  1.0000
  O   O18       1.0  0.34361  0.23484  0.66252  1.0000
  O   O19       1.0  0.84360  0.73484  0.83744  1.0000
  O   O20       1.0  0.65638  0.76517  0.33744  1.0000
  O   O21       1.0  0.09759  0.20821  0.00134  1.0000
  O   O22       1.0  0.40242  0.29177  0.50133  1.0000
  O   O23       1.0  0.90240  0.79178  0.99865  1.0000
  O   O24       1.0  0.59757  0.70822  0.49864  1.0000
