data_image0
_chemical_formula_structural       Ag6H28C28N10O22
_chemical_formula_sum              "Ag6 H28 C28 N10 O22"
_cell_length_a       8.35756
_cell_length_b       11.438
_cell_length_c       11.925
_cell_angle_alpha    94.364
_cell_angle_beta     110.522
_cell_angle_gamma    111.42

_space_group_name_H-M_alt    "P 1"
_space_group_IT_number       1

loop_
  _space_group_symop_operation_xyz
  'x, y, z'

loop_
  _atom_site_type_symbol
  _atom_site_label
  _atom_site_symmetry_multiplicity
  _atom_site_fract_x
  _atom_site_fract_y
  _atom_site_fract_z
  _atom_site_occupancy
  Ag  Ag1       1.0  0.02106  0.03332  0.11933  1.0000
  Ag  Ag2       1.0  0.36819  0.46646  0.38066  1.0000
  Ag  Ag3       1.0  0.97894  0.96668  0.88067  1.0000
  Ag  Ag4       1.0  0.63181  0.53354  0.61934  1.0000
  Ag  Ag5       1.0  0.87067  0.25016  0.25003  1.0000
  Ag  Ag6       1.0  0.12933  0.74984  0.74997  1.0000
  H   H1        1.0  0.42120  0.04466  0.87608  1.0000
  H   H2        1.0  0.00019  0.45532  0.62385  1.0000
  H   H3        1.0  0.57880  0.95534  0.12393  1.0000
  H   H4        1.0  0.99981  0.54468  0.37615  1.0000
  H   H5        1.0  0.59271  0.20779  0.94018  1.0000
  H   H6        1.0  0.94478  0.29225  0.55964  1.0000
  H   H7        1.0  0.40729  0.79221  0.05982  1.0000
  H   H8        1.0  0.05522  0.70774  0.44036  1.0000
  H   H9        1.0  0.25033  0.97602  0.64526  1.0000
  H   H10       1.0  0.12888  0.52396  0.85485  1.0000
  H   H11       1.0  0.74967  0.02398  0.35474  1.0000
  H   H12       1.0  0.87112  0.47604  0.14515  1.0000
  H   H13       1.0  0.76947  0.30912  0.79335  1.0000
  H   H14       1.0  0.16683  0.19089  0.70659  1.0000
  H   H15       1.0  0.23053  0.69088  0.20665  1.0000
  H   H16       1.0  0.83317  0.80911  0.29341  1.0000
  H   H17       1.0  0.60665  0.26814  0.53292  1.0000
  H   H18       1.0  0.30569  0.23183  0.96706  1.0000
  H   H19       1.0  0.39335  0.73186  0.46708  1.0000
  H   H20       1.0  0.69431  0.76817  0.03294  1.0000
  H   H21       1.0  0.18860  0.95519  0.40226  1.0000
  H   H22       1.0  0.33157  0.54487  0.09786  1.0000
  H   H23       1.0  0.81140  0.04481  0.59774  1.0000
  H   H24       1.0  0.66843  0.45513  0.90214  1.0000
  H   H25       1.0  0.31932  0.09826  0.36699  1.0000
  H   H26       1.0  0.35435  0.40170  0.13303  1.0000
  H   H27       1.0  0.68068  0.90174  0.63301  1.0000
  H   H28       1.0  0.64566  0.59830  0.86697  1.0000
  C   C1        1.0  0.70878  0.07263  0.92221  1.0000
  C   C2        1.0  0.21397  0.42756  0.57796  1.0000
  C   C3        1.0  0.29122  0.92736  0.07779  1.0000
  C   C4        1.0  0.78603  0.57244  0.42204  1.0000
  C   C5        1.0  0.55096  0.11750  0.87632  1.0000
  C   C6        1.0  0.05700  0.38253  0.62368  1.0000
  C   C7        1.0  0.44904  0.88250  0.12369  1.0000
  C   C8        1.0  0.94300  0.61747  0.37632  1.0000
  C   C9        1.0  0.36982  0.06024  0.64968  1.0000
  C   C10       1.0  0.15958  0.43966  0.85034  1.0000
  C   C11       1.0  0.63018  0.93976  0.35033  1.0000
  C   C12       1.0  0.84042  0.56034  0.14966  1.0000
  C   C13       1.0  0.63875  0.23740  0.72232  1.0000
  C   C14       1.0  0.17885  0.26257  0.77766  1.0000
  C   C15       1.0  0.36125  0.76260  0.27768  1.0000
  C   C16       1.0  0.82115  0.73743  0.22234  1.0000
  C   C17       1.0  0.56083  0.21701  0.59682  1.0000
  C   C18       1.0  0.24714  0.28302  0.90317  1.0000
  C   C19       1.0  0.43917  0.78299  0.40318  1.0000
  C   C20       1.0  0.75286  0.71698  0.09683  1.0000
  C   C21       1.0  0.25159  0.06108  0.42831  1.0000
  C   C22       1.0  0.26256  0.43897  0.07173  1.0000
  C   C23       1.0  0.74841  0.93892  0.57169  1.0000
  C   C24       1.0  0.73744  0.56103  0.92827  1.0000
  C   C25       1.0  0.09431  0.10617  0.41481  1.0000
  C   C26       1.0  0.07378  0.39394  0.08521  1.0000
  C   C27       1.0  0.90569  0.89383  0.58519  1.0000
  C   C28       1.0  0.92623  0.60606  0.91479  1.0000
  N   N1        1.0  0.51649  0.13926  0.75289  1.0000
  N   N2        1.0  0.12390  0.36063  0.74709  1.0000
  N   N3        1.0  0.48351  0.86074  0.24711  1.0000
  N   N4        1.0  0.87610  0.63937  0.25291  1.0000
  N   N5        1.0  0.39440  0.10576  0.55375  1.0000
  N   N6        1.0  0.23508  0.39428  0.94626  1.0000
  N   N7        1.0  0.60560  0.89424  0.44625  1.0000
  N   N8        1.0  0.76492  0.60572  0.05374  1.0000
  N   N9        1.0  0.52099  0.25011  0.25008  1.0000
  N   N10       1.0  0.47901  0.74989  0.74992  1.0000
  O   O1        1.0  0.76417  0.06805  0.03491  1.0000
  O   O2        1.0  0.16101  0.43189  0.46517  1.0000
  O   O3        1.0  0.23583  0.93195  0.96508  1.0000
  O   O4        1.0  0.83899  0.56811  0.53483  1.0000
  O   O5        1.0  0.76693  0.04380  0.84423  1.0000
  O   O6        1.0  0.37899  0.45657  0.65593  1.0000
  O   O7        1.0  0.23308  0.95621  0.15577  1.0000
  O   O8        1.0  0.62101  0.54343  0.34407  1.0000
  O   O9        1.0  0.07804  0.14756  0.50806  1.0000
  O   O10       1.0  0.92276  0.35247  0.99201  1.0000
  O   O11       1.0  0.92195  0.85244  0.49194  1.0000
  O   O12       1.0  0.07724  0.64753  0.00799  1.0000
  O   O13       1.0  0.98541  0.09294  0.30246  1.0000
  O   O14       1.0  0.09054  0.40732  0.19760  1.0000
  O   O15       1.0  0.01458  0.90706  0.69754  1.0000
  O   O16       1.0  0.90946  0.59268  0.80240  1.0000
  O   O17       1.0  0.55391  0.25725  0.15345  1.0000
  O   O18       1.0  0.64366  0.24318  0.34674  1.0000
  O   O19       1.0  0.44609  0.74275  0.84655  1.0000
  O   O20       1.0  0.35634  0.75682  0.65326  1.0000
  O   O21       1.0  0.37005  0.24989  0.25007  1.0000
  O   O22       1.0  0.62995  0.75011  0.74993  1.0000
