data_image0
_chemical_formula_structural       Li4B4H56C24O12F16
_chemical_formula_sum              "Li4 B4 H56 C24 O12 F16"
_cell_length_a       7.16864
_cell_length_b       10.9433
_cell_length_c       13.4842
_cell_angle_alpha    91.2848
_cell_angle_beta     90.0001
_cell_angle_gamma    90

_space_group_name_H-M_alt    "P 1"
_space_group_IT_number       1

loop_
  _space_group_symop_operation_xyz
  'x, y, z'

loop_
  _atom_site_type_symbol
  _atom_site_label
  _atom_site_symmetry_multiplicity
  _atom_site_fract_x
  _atom_site_fract_y
  _atom_site_fract_z
  _atom_site_occupancy
  Li  Li1       1.0  0.96648  0.50868  0.66575  1.0000
  Li  Li2       1.0  0.46648  0.99132  0.83425  1.0000
  Li  Li3       1.0  0.03352  0.49132  0.33425  1.0000
  Li  Li4       1.0  0.53352  0.00868  0.16575  1.0000
  B   B1        1.0  0.12363  0.69373  0.49564  1.0000
  B   B2        1.0  0.62363  0.80627  0.00437  1.0000
  B   B3        1.0  0.87637  0.30627  0.50436  1.0000
  B   B4        1.0  0.37637  0.19373  0.99564  1.0000
  H   H1        1.0  0.49712  0.39455  0.62050  1.0000
  H   H2        1.0  0.99712  0.10545  0.87950  1.0000
  H   H3        1.0  0.50289  0.60545  0.37950  1.0000
  H   H4        1.0  0.00288  0.89455  0.12050  1.0000
  H   H5        1.0  0.33872  0.47489  0.54224  1.0000
  H   H6        1.0  0.83872  0.02511  0.95776  1.0000
  H   H7        1.0  0.66128  0.52511  0.45776  1.0000
  H   H8        1.0  0.16127  0.97489  0.04224  1.0000
  H   H9        1.0  0.30286  0.31571  0.56430  1.0000
  H   H10       1.0  0.80286  0.18429  0.93570  1.0000
  H   H11       1.0  0.69714  0.68429  0.43570  1.0000
  H   H12       1.0  0.19714  0.81571  0.06430  1.0000
  H   H13       1.0  0.37768  0.32886  0.78044  1.0000
  H   H14       1.0  0.87768  0.17114  0.71956  1.0000
  H   H15       1.0  0.62232  0.67114  0.21956  1.0000
  H   H16       1.0  0.12232  0.82886  0.28043  1.0000
  H   H17       1.0  0.17464  0.26269  0.72528  1.0000
  H   H18       1.0  0.67464  0.23731  0.77472  1.0000
  H   H19       1.0  0.82536  0.73731  0.27472  1.0000
  H   H20       1.0  0.32536  0.76269  0.22528  1.0000
  H   H21       1.0  0.11032  0.33116  0.89996  1.0000
  H   H22       1.0  0.61032  0.16884  0.60004  1.0000
  H   H23       1.0  0.88968  0.66884  0.10004  1.0000
  H   H24       1.0  0.38968  0.83116  0.39996  1.0000
  H   H25       1.0  0.18937  0.48201  0.87314  1.0000
  H   H26       1.0  0.68937  0.01799  0.62686  1.0000
  H   H27       1.0  0.81063  0.51798  0.12686  1.0000
  H   H28       1.0  0.31063  0.98202  0.37314  1.0000
  H   H29       1.0  0.91102  0.57183  0.90704  1.0000
  H   H30       1.0  0.41102  0.92817  0.59296  1.0000
  H   H31       1.0  0.08898  0.42817  0.09296  1.0000
  H   H32       1.0  0.58898  0.07183  0.40704  1.0000
  H   H33       1.0  0.76905  0.43931  0.92848  1.0000
  H   H34       1.0  0.26905  0.06069  0.57152  1.0000
  H   H35       1.0  0.23095  0.56069  0.07152  1.0000
  H   H36       1.0  0.73095  0.93931  0.42848  1.0000
  H   H37       1.0  0.57980  0.48336  0.77935  1.0000
  H   H38       1.0  0.07980  0.01664  0.72065  1.0000
  H   H39       1.0  0.42020  0.51664  0.22065  1.0000
  H   H40       1.0  0.92020  0.98336  0.27935  1.0000
  H   H41       1.0  0.59220  0.61785  0.85714  1.0000
  H   H42       1.0  0.09220  0.88215  0.64286  1.0000
  H   H43       1.0  0.40780  0.38215  0.14286  1.0000
  H   H44       1.0  0.90780  0.11785  0.35714  1.0000
  H   H45       1.0  0.59423  0.77173  0.73485  1.0000
  H   H46       1.0  0.09423  0.72827  0.76515  1.0000
  H   H47       1.0  0.40577  0.22827  0.26515  1.0000
  H   H48       1.0  0.90577  0.27173  0.23485  1.0000
  H   H49       1.0  0.51887  0.65219  0.65139  1.0000
  H   H50       1.0  0.01887  0.84781  0.84861  1.0000
  H   H51       1.0  0.48113  0.34781  0.34861  1.0000
  H   H52       1.0  0.98113  0.15219  0.15139  1.0000
  H   H53       1.0  0.72203  0.73992  0.62226  1.0000
  H   H54       1.0  0.22203  0.76008  0.87774  1.0000
  H   H55       1.0  0.27797  0.26008  0.37774  1.0000
  H   H56       1.0  0.77797  0.23992  0.12226  1.0000
  C   C1        1.0  0.35062  0.40326  0.59727  1.0000
  C   C2        1.0  0.85062  0.09674  0.90273  1.0000
  C   C3        1.0  0.64938  0.59674  0.40273  1.0000
  C   C4        1.0  0.14938  0.90326  0.09727  1.0000
  C   C5        1.0  0.23483  0.34865  0.75538  1.0000
  C   C6        1.0  0.73483  0.15135  0.74461  1.0000
  C   C7        1.0  0.76517  0.65135  0.24462  1.0000
  C   C8        1.0  0.26517  0.84865  0.25538  1.0000
  C   C9        1.0  0.12211  0.39905  0.84131  1.0000
  C   C10       1.0  0.62211  0.10095  0.65869  1.0000
  C   C11       1.0  0.87789  0.60095  0.15869  1.0000
  C   C12       1.0  0.37789  0.89904  0.34131  1.0000
  C   C13       1.0  0.82781  0.49856  0.87112  1.0000
  C   C14       1.0  0.32781  0.00144  0.62888  1.0000
  C   C15       1.0  0.17219  0.50144  0.12888  1.0000
  C   C16       1.0  0.67219  0.99856  0.37112  1.0000
  C   C17       1.0  0.67426  0.55414  0.81035  1.0000
  C   C18       1.0  0.17426  0.94586  0.68965  1.0000
  C   C19       1.0  0.32574  0.44586  0.18965  1.0000
  C   C20       1.0  0.82574  0.05414  0.31035  1.0000
  C   C21       1.0  0.64148  0.69970  0.68241  1.0000
  C   C22       1.0  0.14148  0.80030  0.81759  1.0000
  C   C23       1.0  0.35852  0.30030  0.31759  1.0000
  C   C24       1.0  0.85852  0.19970  0.18241  1.0000
  O   O1        1.0  0.23548  0.43911  0.67995  1.0000
  O   O2        1.0  0.73548  0.06089  0.82005  1.0000
  O   O3        1.0  0.76452  0.56089  0.32005  1.0000
  O   O4        1.0  0.26452  0.93911  0.17995  1.0000
  O   O5        1.0  0.94231  0.42978  0.80293  1.0000
  O   O6        1.0  0.44231  0.07022  0.69707  1.0000
  O   O7        1.0  0.05769  0.57022  0.19707  1.0000
  O   O8        1.0  0.55769  0.92978  0.30293  1.0000
  O   O9        1.0  0.76363  0.61678  0.73112  1.0000
  O   O10       1.0  0.26363  0.88322  0.76888  1.0000
  O   O11       1.0  0.23637  0.38322  0.26888  1.0000
  O   O12       1.0  0.73637  0.11678  0.23112  1.0000
  F   F1        1.0  0.01761  0.62743  0.56620  1.0000
  F   F2        1.0  0.51762  0.87257  0.93380  1.0000
  F   F3        1.0  0.98239  0.37257  0.43380  1.0000
  F   F4        1.0  0.48239  0.12743  0.06620  1.0000
  F   F5        1.0  0.15702  0.61559  0.41075  1.0000
  F   F6        1.0  0.65702  0.88441  0.08926  1.0000
  F   F7        1.0  0.84297  0.38441  0.58926  1.0000
  F   F8        1.0  0.34298  0.11559  0.91074  1.0000
  F   F9        1.0  0.29622  0.72690  0.53719  1.0000
  F   F10       1.0  0.79622  0.77310  0.96282  1.0000
  F   F11       1.0  0.70378  0.27310  0.46282  1.0000
  F   F12       1.0  0.20378  0.22690  0.03718  1.0000
  F   F13       1.0  0.02173  0.79685  0.46697  1.0000
  F   F14       1.0  0.52172  0.70316  0.03303  1.0000
  F   F15       1.0  0.97827  0.20315  0.53303  1.0000
  F   F16       1.0  0.47828  0.29685  0.96697  1.0000
