data_image0
_chemical_formula_structural       Cd2H44C36S2N12O18
_chemical_formula_sum              "Cd2 H44 C36 S2 N12 O18"
_cell_length_a       6.48732
_cell_length_b       9.76027
_cell_length_c       19.4313
_cell_angle_alpha    90.0005
_cell_angle_beta     89.9994
_cell_angle_gamma    98.7437

_space_group_name_H-M_alt    "P 1"
_space_group_IT_number       1

loop_
  _space_group_symop_operation_xyz
  'x, y, z'

loop_
  _atom_site_type_symbol
  _atom_site_label
  _atom_site_symmetry_multiplicity
  _atom_site_fract_x
  _atom_site_fract_y
  _atom_site_fract_z
  _atom_site_occupancy
  Cd  Cd1       1.0  0.44580  0.83119  0.26264  1.0000
  Cd  Cd2       1.0  0.55420  0.16880  0.76263  1.0000
  H   H1        1.0  0.68900  0.97291  0.64692  1.0000
  H   H2        1.0  0.31101  0.02710  0.14692  1.0000
  H   H3        1.0  0.57641  0.87316  0.53048  1.0000
  H   H4        1.0  0.42357  0.12684  0.03049  1.0000
  H   H5        1.0  0.26897  0.94803  0.47346  1.0000
  H   H6        1.0  0.73101  0.05197  0.97346  1.0000
  H   H7        1.0  0.23457  0.22867  0.64381  1.0000
  H   H8        1.0  0.76544  0.77134  0.14381  1.0000
  H   H9        1.0  0.75506  0.46390  0.58281  1.0000
  H   H10       1.0  0.24494  0.53612  0.08281  1.0000
  H   H11       1.0  0.47235  0.60988  0.57862  1.0000
  H   H12       1.0  0.52766  0.39015  0.07863  1.0000
  H   H13       1.0  0.20387  0.57877  0.48740  1.0000
  H   H14       1.0  0.79614  0.42125  0.98740  1.0000
  H   H15       1.0  0.49790  0.24955  0.40174  1.0000
  H   H16       1.0  0.50208  0.75045  0.90174  1.0000
  H   H17       1.0  0.65416  0.24063  0.23374  1.0000
  H   H18       1.0  0.34582  0.75937  0.73373  1.0000
  H   H19       1.0  0.32833  0.30419  0.18445  1.0000
  H   H20       1.0  0.67167  0.69581  0.68445  1.0000
  H   H21       1.0  0.25322  0.54876  0.20038  1.0000
  H   H22       1.0  0.74678  0.45123  0.70038  1.0000
  H   H23       1.0  0.79356  0.65606  0.31537  1.0000
  H   H24       1.0  0.20644  0.34394  0.81537  1.0000
  H   H25       1.0  0.94066  0.29790  0.30151  1.0000
  H   H26       1.0  0.05933  0.70210  0.80150  1.0000
  H   H27       1.0  0.18177  0.29027  0.36103  1.0000
  H   H28       1.0  0.81822  0.70973  0.86102  1.0000
  H   H29       1.0  0.77645  0.19047  0.44845  1.0000
  H   H30       1.0  0.22353  0.80953  0.94845  1.0000
  H   H31       1.0  0.01340  0.07778  0.47564  1.0000
  H   H32       1.0  0.98659  0.92221  0.97563  1.0000
  H   H33       1.0  0.99711  0.83028  0.25024  1.0000
  H   H34       1.0  0.00289  0.16971  0.75024  1.0000
  H   H35       1.0  0.07317  0.76161  0.18046  1.0000
  H   H36       1.0  0.92683  0.23839  0.68046  1.0000
  H   H37       1.0  0.26981  0.07976  0.29353  1.0000
  H   H38       1.0  0.73020  0.92023  0.79352  1.0000
  H   H39       1.0  0.51035  0.07941  0.31852  1.0000
  H   H40       1.0  0.48966  0.92058  0.81852  1.0000
  H   H41       1.0  0.25470  0.71325  0.38575  1.0000
  H   H42       1.0  0.74530  0.28675  0.88574  1.0000
  H   H43       1.0  0.49352  0.73921  0.40210  1.0000
  H   H44       1.0  0.50648  0.26080  0.90210  1.0000
  C   C1        1.0  0.55844  0.00464  0.61902  1.0000
  C   C2        1.0  0.44155  0.99536  0.11902  1.0000
  C   C3        1.0  0.49304  0.94857  0.55534  1.0000
  C   C4        1.0  0.50696  0.05143  0.05534  1.0000
  C   C5        1.0  0.32177  0.99063  0.52341  1.0000
  C   C6        1.0  0.67822  0.00937  0.02341  1.0000
  C   C7        1.0  0.21917  0.09108  0.55541  1.0000
  C   C8        1.0  0.78082  0.90892  0.05541  1.0000
  C   C9        1.0  0.30017  0.14619  0.61841  1.0000
  C   C10       1.0  0.69984  0.85382  0.11841  1.0000
  C   C11       1.0  0.93047  0.23060  0.54092  1.0000
  C   C12       1.0  0.06953  0.76940  0.04092  1.0000
  C   C13       1.0  0.64276  0.34532  0.49307  1.0000
  C   C14       1.0  0.35724  0.65469  0.99307  1.0000
  C   C15       1.0  0.63838  0.44989  0.54246  1.0000
  C   C16       1.0  0.36162  0.55013  0.04247  1.0000
  C   C17       1.0  0.48064  0.53204  0.53888  1.0000
  C   C18       1.0  0.51936  0.46798  0.03889  1.0000
  C   C19       1.0  0.32891  0.51635  0.48744  1.0000
  C   C20       1.0  0.67109  0.48366  0.98744  1.0000
  C   C21       1.0  0.33772  0.41445  0.43693  1.0000
  C   C22       1.0  0.66228  0.58556  0.93693  1.0000
  C   C23       1.0  0.49323  0.32983  0.44034  1.0000
  C   C24       1.0  0.50677  0.67017  0.94034  1.0000
  C   C25       1.0  0.05238  0.46768  0.35988  1.0000
  C   C26       1.0  0.94762  0.53233  0.85988  1.0000
  C   C27       1.0  0.74937  0.44244  0.28000  1.0000
  C   C28       1.0  0.25062  0.55756  0.77999  1.0000
  C   C29       1.0  0.61773  0.34507  0.24045  1.0000
  C   C30       1.0  0.38227  0.65493  0.74045  1.0000
  C   C31       1.0  0.43639  0.38071  0.21246  1.0000
  C   C32       1.0  0.56361  0.61929  0.71246  1.0000
  C   C33       1.0  0.39288  0.51482  0.22126  1.0000
  C   C34       1.0  0.60712  0.48518  0.72125  1.0000
  C   C35       1.0  0.69572  0.57609  0.28641  1.0000
  C   C36       1.0  0.30428  0.42390  0.78640  1.0000
  S   S1        1.0  0.89220  0.02440  0.34410  1.0000
  S   S2        1.0  0.10780  0.97559  0.84409  1.0000
  N   N1        1.0  0.52323  0.60969  0.25663  1.0000
  N   N2        1.0  0.47678  0.39031  0.75663  1.0000
  N   N3        1.0  0.92224  0.39963  0.31032  1.0000
  N   N4        1.0  0.07776  0.60036  0.81032  1.0000
  N   N5        1.0  0.19164  0.38608  0.38363  1.0000
  N   N6        1.0  0.80835  0.61391  0.88362  1.0000
  N   N7        1.0  0.78966  0.25390  0.49129  1.0000
  N   N8        1.0  0.21034  0.74610  0.99129  1.0000
  N   N9        1.0  0.04792  0.13005  0.52173  1.0000
  N   N10       1.0  0.95207  0.86994  0.02173  1.0000
  N   N11       1.0  0.46307  0.10179  0.64914  1.0000
  N   N12       1.0  0.53693  0.89822  0.14914  1.0000
  O   O1        1.0  0.95093  0.29338  0.59715  1.0000
  O   O2        1.0  0.04909  0.70663  0.09715  1.0000
  O   O3        1.0  0.09901  0.77470  0.23059  1.0000
  O   O4        1.0  0.90100  0.22530  0.73059  1.0000
  O   O5        1.0  0.40884  0.05555  0.28016  1.0000
  O   O6        1.0  0.59116  0.94444  0.78015  1.0000
  O   O7        1.0  0.04277  0.58798  0.37972  1.0000
  O   O8        1.0  0.95724  0.41201  0.87972  1.0000
  O   O9        1.0  0.81209  0.91302  0.29349  1.0000
  O   O10       1.0  0.18791  0.08697  0.79349  1.0000
  O   O11       1.0  0.38280  0.78450  0.38272  1.0000
  O   O12       1.0  0.61720  0.21550  0.88272  1.0000
  O   O13       1.0  0.71656  0.09462  0.36903  1.0000
  O   O14       1.0  0.28343  0.90537  0.86902  1.0000
  O   O15       1.0  0.04521  0.13195  0.30699  1.0000
  O   O16       1.0  0.95479  0.86804  0.80698  1.0000
  O   O17       1.0  0.99441  0.96697  0.40262  1.0000
  O   O18       1.0  0.00557  0.03302  0.90262  1.0000
