data_image0
_chemical_formula_structural       Li4B4H48C24O12F16
_chemical_formula_sum              "Li4 B4 H48 C24 O12 F16"
_cell_length_a       8.18977
_cell_length_b       8.8365
_cell_length_c       13.776
_cell_angle_alpha    94.3876
_cell_angle_beta     90.0007
_cell_angle_gamma    89.9998

_space_group_name_H-M_alt    "P 1"
_space_group_IT_number       1

loop_
  _space_group_symop_operation_xyz
  'x, y, z'

loop_
  _atom_site_type_symbol
  _atom_site_label
  _atom_site_symmetry_multiplicity
  _atom_site_fract_x
  _atom_site_fract_y
  _atom_site_fract_z
  _atom_site_occupancy
  Li  Li1       1.0  0.94379  0.14264  0.73408  1.0000
  Li  Li2       1.0  0.44379  0.35736  0.76592  1.0000
  Li  Li3       1.0  0.05622  0.85736  0.26591  1.0000
  Li  Li4       1.0  0.55622  0.64264  0.23409  1.0000
  B   B1        1.0  0.65339  0.10413  0.85617  1.0000
  B   B2        1.0  0.15338  0.39587  0.64383  1.0000
  B   B3        1.0  0.34663  0.89587  0.14383  1.0000
  B   B4        1.0  0.84663  0.60414  0.35617  1.0000
  H   H1        1.0  0.55124  0.33983  0.52389  1.0000
  H   H2        1.0  0.05124  0.16017  0.97611  1.0000
  H   H3        1.0  0.44876  0.66017  0.47611  1.0000
  H   H4        1.0  0.94876  0.83982  0.02389  1.0000
  H   H5        1.0  0.76969  0.33390  0.52889  1.0000
  H   H6        1.0  0.26969  0.16610  0.97111  1.0000
  H   H7        1.0  0.23030  0.66611  0.47110  1.0000
  H   H8        1.0  0.73030  0.83389  0.02889  1.0000
  H   H9        1.0  0.54785  0.09930  0.61664  1.0000
  H   H10       1.0  0.04785  0.40070  0.88337  1.0000
  H   H11       1.0  0.45215  0.90071  0.38337  1.0000
  H   H12       1.0  0.95214  0.59929  0.11664  1.0000
  H   H13       1.0  0.62334  0.08129  0.49417  1.0000
  H   H14       1.0  0.12335  0.41871  0.00583  1.0000
  H   H15       1.0  0.37665  0.91871  0.50583  1.0000
  H   H16       1.0  0.87665  0.58128  0.99417  1.0000
  H   H17       1.0  0.72377  0.86046  0.63760  1.0000
  H   H18       1.0  0.22376  0.63954  0.86240  1.0000
  H   H19       1.0  0.27623  0.13954  0.36239  1.0000
  H   H20       1.0  0.77623  0.36045  0.13760  1.0000
  H   H21       1.0  0.77586  0.87235  0.51182  1.0000
  H   H22       1.0  0.27586  0.62765  0.98817  1.0000
  H   H23       1.0  0.22413  0.12765  0.48817  1.0000
  H   H24       1.0  0.72413  0.37235  0.01183  1.0000
  H   H25       1.0  0.99577  0.74200  0.60201  1.0000
  H   H26       1.0  0.49576  0.75801  0.89799  1.0000
  H   H27       1.0  0.00422  0.25800  0.39798  1.0000
  H   H28       1.0  0.50423  0.24199  0.10202  1.0000
  H   H29       1.0  0.06497  0.91067  0.55163  1.0000
  H   H30       1.0  0.56496  0.58933  0.94837  1.0000
  H   H31       1.0  0.93503  0.08933  0.44836  1.0000
  H   H32       1.0  0.43503  0.41067  0.05164  1.0000
  H   H33       1.0  0.27172  0.97834  0.68243  1.0000
  H   H34       1.0  0.77171  0.52166  0.81758  1.0000
  H   H35       1.0  0.72827  0.02165  0.31757  1.0000
  H   H36       1.0  0.22829  0.47835  0.18243  1.0000
  H   H37       1.0  0.22731  0.79176  0.71949  1.0000
  H   H38       1.0  0.72730  0.70824  0.78051  1.0000
  H   H39       1.0  0.77269  0.20824  0.28051  1.0000
  H   H40       1.0  0.27269  0.29177  0.21949  1.0000
  H   H41       1.0  0.12400  0.90774  0.87900  1.0000
  H   H42       1.0  0.62399  0.59226  0.62100  1.0000
  H   H43       1.0  0.87600  0.09226  0.12099  1.0000
  H   H44       1.0  0.37601  0.40774  0.37901  1.0000
  H   H45       1.0  0.33068  0.96473  0.85992  1.0000
  H   H46       1.0  0.83068  0.53527  0.64008  1.0000
  H   H47       1.0  0.66932  0.03526  0.14007  1.0000
  H   H48       1.0  0.16933  0.46474  0.35992  1.0000
  C   C1        1.0  0.65687  0.30151  0.56572  1.0000
  C   C2        1.0  0.15688  0.19849  0.93429  1.0000
  C   C3        1.0  0.34313  0.69849  0.43429  1.0000
  C   C4        1.0  0.84312  0.80150  0.06571  1.0000
  C   C5        1.0  0.64818  0.13147  0.56872  1.0000
  C   C6        1.0  0.14818  0.36854  0.93128  1.0000
  C   C7        1.0  0.35182  0.86854  0.43128  1.0000
  C   C8        1.0  0.85182  0.63146  0.06872  1.0000
  C   C9        1.0  0.80899  0.91111  0.58727  1.0000
  C   C10       1.0  0.30898  0.58890  0.91273  1.0000
  C   C11       1.0  0.19101  0.08890  0.41272  1.0000
  C   C12       1.0  0.69101  0.41110  0.08727  1.0000
  C   C13       1.0  0.98317  0.86625  0.60631  1.0000
  C   C14       1.0  0.48316  0.63375  0.89369  1.0000
  C   C15       1.0  0.01682  0.13374  0.39369  1.0000
  C   C16       1.0  0.51683  0.36625  0.10631  1.0000
  C   C17       1.0  0.19218  0.91220  0.72838  1.0000
  C   C18       1.0  0.69218  0.58781  0.77162  1.0000
  C   C19       1.0  0.80782  0.08780  0.27162  1.0000
  C   C20       1.0  0.30782  0.41220  0.22838  1.0000
  C   C21       1.0  0.20474  0.97291  0.83315  1.0000
  C   C22       1.0  0.70473  0.52709  0.66686  1.0000
  C   C23       1.0  0.79526  0.02708  0.16685  1.0000
  C   C24       1.0  0.29527  0.47292  0.33315  1.0000
  O   O1        1.0  0.80033  0.07387  0.60157  1.0000
  O   O2        1.0  0.30032  0.42613  0.89843  1.0000
  O   O3        1.0  0.19967  0.92613  0.39842  1.0000
  O   O4        1.0  0.69967  0.57386  0.10158  1.0000
  O   O5        1.0  0.02444  0.93111  0.70168  1.0000
  O   O6        1.0  0.52443  0.56890  0.79832  1.0000
  O   O7        1.0  0.97556  0.06888  0.29832  1.0000
  O   O8        1.0  0.47557  0.43110  0.20168  1.0000
  O   O9        1.0  0.15320  0.12817  0.83735  1.0000
  O   O10       1.0  0.65320  0.37184  0.66265  1.0000
  O   O11       1.0  0.84680  0.87183  0.16265  1.0000
  O   O12       1.0  0.34681  0.62817  0.33735  1.0000
  F   F1        1.0  0.79627  0.19260  0.83816  1.0000
  F   F2        1.0  0.29626  0.30739  0.66183  1.0000
  F   F3        1.0  0.20374  0.80740  0.16182  1.0000
  F   F4        1.0  0.70374  0.69261  0.33817  1.0000
  F   F5        1.0  0.51682  0.17616  0.81413  1.0000
  F   F6        1.0  0.01681  0.32383  0.68587  1.0000
  F   F7        1.0  0.48319  0.82384  0.18588  1.0000
  F   F8        1.0  0.98319  0.67617  0.31413  1.0000
  F   F9        1.0  0.63138  0.10044  0.95631  1.0000
  F   F10       1.0  0.13136  0.39954  0.54369  1.0000
  F   F11       1.0  0.36866  0.89955  0.04369  1.0000
  F   F12       1.0  0.86867  0.60046  0.45631  1.0000
  F   F13       1.0  0.67112  0.95764  0.81018  1.0000
  F   F14       1.0  0.17110  0.54235  0.68981  1.0000
  F   F15       1.0  0.32890  0.04235  0.18982  1.0000
  F   F16       1.0  0.82891  0.45765  0.31019  1.0000
