data_image0
_chemical_formula_structural       Ag2H28C28N10O6
_chemical_formula_sum              "Ag2 H28 C28 N10 O6"
_cell_length_a       5.0683
_cell_length_b       10.4619
_cell_length_c       14.6788
_cell_angle_alpha    90.0027
_cell_angle_beta     91.0618
_cell_angle_gamma    90.0029

_space_group_name_H-M_alt    "P 1"
_space_group_IT_number       1

loop_
  _space_group_symop_operation_xyz
  'x, y, z'

loop_
  _atom_site_type_symbol
  _atom_site_label
  _atom_site_symmetry_multiplicity
  _atom_site_fract_x
  _atom_site_fract_y
  _atom_site_fract_z
  _atom_site_occupancy
  Ag  Ag1       1.0  0.50001  0.38748  0.25001  1.0000
  Ag  Ag2       1.0  0.49999  0.61251  0.75001  1.0000
  H   H1        1.0  0.77820  0.21446  0.11511  1.0000
  H   H2        1.0  0.22183  0.21440  0.38489  1.0000
  H   H3        1.0  0.22184  0.78559  0.88490  1.0000
  H   H4        1.0  0.77814  0.78556  0.61511  1.0000
  H   H5        1.0  0.12185  0.44770  0.08924  1.0000
  H   H6        1.0  0.87827  0.44763  0.41073  1.0000
  H   H7        1.0  0.87821  0.55236  0.91075  1.0000
  H   H8        1.0  0.12172  0.55234  0.58928  1.0000
  H   H9        1.0  0.03007  0.36801  0.92913  1.0000
  H   H10       1.0  0.97006  0.36796  0.57084  1.0000
  H   H11       1.0  0.96999  0.63205  0.07086  1.0000
  H   H12       1.0  0.02995  0.63199  0.42917  1.0000
  H   H13       1.0  0.32463  0.20549  0.86350  1.0000
  H   H14       1.0  0.67546  0.20546  0.63648  1.0000
  H   H15       1.0  0.67542  0.79456  0.13650  1.0000
  H   H16       1.0  0.32455  0.79448  0.36352  1.0000
  H   H17       1.0  0.86989  0.97216  0.84337  1.0000
  H   H18       1.0  0.13007  0.97215  0.65662  1.0000
  H   H19       1.0  0.13007  0.02787  0.15663  1.0000
  H   H20       1.0  0.86987  0.02780  0.34337  1.0000
  H   H21       1.0  0.75705  0.12927  0.81116  1.0000
  H   H22       1.0  0.24296  0.12926  0.68883  1.0000
  H   H23       1.0  0.24292  0.87076  0.18884  1.0000
  H   H24       1.0  0.75701  0.87068  0.31118  1.0000
  H   H25       1.0  0.52582  0.01038  0.84319  1.0000
  H   H26       1.0  0.47417  0.01036  0.65682  1.0000
  H   H27       1.0  0.47415  0.98967  0.15683  1.0000
  H   H28       1.0  0.52579  0.98958  0.34318  1.0000
  C   C1        1.0  0.61308  0.24652  0.07257  1.0000
  C   C2        1.0  0.38700  0.24646  0.42742  1.0000
  C   C3        1.0  0.38698  0.75353  0.92743  1.0000
  C   C4        1.0  0.61300  0.75349  0.57259  1.0000
  C   C5        1.0  0.24855  0.37844  0.05621  1.0000
  C   C6        1.0  0.75154  0.37839  0.44377  1.0000
  C   C7        1.0  0.75149  0.62161  0.94379  1.0000
  C   C8        1.0  0.24846  0.62158  0.55624  1.0000
  C   C9        1.0  0.20000  0.33393  0.96842  1.0000
  C   C10       1.0  0.80011  0.33387  0.53155  1.0000
  C   C11       1.0  0.80005  0.66613  0.03157  1.0000
  C   C12       1.0  0.19989  0.66608  0.46845  1.0000
  C   C13       1.0  0.36409  0.24090  0.93215  1.0000
  C   C14       1.0  0.63601  0.24086  0.56783  1.0000
  C   C15       1.0  0.63596  0.75915  0.06784  1.0000
  C   C16       1.0  0.36401  0.75909  0.43217  1.0000
  C   C17       1.0  0.57432  0.19334  0.98542  1.0000
  C   C18       1.0  0.42573  0.19328  0.51456  1.0000
  C   C19       1.0  0.42571  0.80671  0.01458  1.0000
  C   C20       1.0  0.57425  0.80667  0.48543  1.0000
  C   C21       1.0  0.75022  0.09087  0.95367  1.0000
  C   C22       1.0  0.24982  0.09084  0.54632  1.0000
  C   C23       1.0  0.24980  0.90917  0.04633  1.0000
  C   C24       1.0  0.75016  0.90912  0.45368  1.0000
  C   C25       1.0  0.72610  0.04734  0.85683  1.0000
  C   C26       1.0  0.27389  0.04732  0.64316  1.0000
  C   C27       1.0  0.27387  0.95270  0.14316  1.0000
  C   C28       1.0  0.72606  0.95263  0.35684  1.0000
  N   N1        1.0  0.45460  0.33596  0.10743  1.0000
  N   N2        1.0  0.54547  0.33590  0.39255  1.0000
  N   N3        1.0  0.54545  0.66409  0.89257  1.0000
  N   N4        1.0  0.45452  0.66407  0.60745  1.0000
  N   N5        1.0  0.91627  0.04656  0.01510  1.0000
  N   N6        1.0  0.08375  0.04651  0.48490  1.0000
  N   N7        1.0  0.08377  0.95349  0.98490  1.0000
  N   N8        1.0  0.91623  0.95344  0.51510  1.0000
  N   N9        1.0  1.00000  0.59259  0.25000  1.0000
  N   N10       1.0  0.99997  0.40741  0.75000  1.0000
  O   O1        1.0  0.18633  0.65151  0.21222  1.0000
  O   O2        1.0  0.81361  0.65145  0.28779  1.0000
  O   O3        1.0  0.81360  0.34851  0.78777  1.0000
  O   O4        1.0  0.18632  0.34852  0.71221  1.0000
  O   O5        1.0  0.00004  0.46957  0.24999  1.0000
  O   O6        1.0  0.99998  0.53042  0.75002  1.0000
