data_image0
_chemical_formula_structural       Cd4H32C24N24O24
_chemical_formula_sum              "Cd4 H32 C24 N24 O24"
_cell_length_a       6.6722
_cell_length_b       10.946
_cell_length_c       15.3482
_cell_angle_alpha    90.0001
_cell_angle_beta     90.0003
_cell_angle_gamma    89.9998

_space_group_name_H-M_alt    "P 1"
_space_group_IT_number       1

loop_
  _space_group_symop_operation_xyz
  'x, y, z'

loop_
  _atom_site_type_symbol
  _atom_site_label
  _atom_site_symmetry_multiplicity
  _atom_site_fract_x
  _atom_site_fract_y
  _atom_site_fract_z
  _atom_site_occupancy
  Cd  Cd1       1.0  1.00000  0.00000  0.00000  1.0000
  Cd  Cd2       1.0  0.50000  0.00000  0.50000  1.0000
  Cd  Cd3       1.0  1.00000  0.50000  0.50000  1.0000
  Cd  Cd4       1.0  0.50000  0.50000  1.00000  1.0000
  H   H1        1.0  0.80807  0.26129  0.04403  1.0000
  H   H2        1.0  0.69192  0.73871  0.54403  1.0000
  H   H3        1.0  0.19191  0.76129  0.45597  1.0000
  H   H4        1.0  0.30806  0.23871  0.95597  1.0000
  H   H5        1.0  0.19192  0.73871  0.95597  1.0000
  H   H6        1.0  0.30808  0.26130  0.45597  1.0000
  H   H7        1.0  0.80809  0.23871  0.54404  1.0000
  H   H8        1.0  0.69195  0.76128  0.04403  1.0000
  H   H9        1.0  0.66387  0.40529  0.79913  1.0000
  H   H10       1.0  0.83612  0.59471  0.29913  1.0000
  H   H11       1.0  0.33613  0.90529  0.70087  1.0000
  H   H12       1.0  0.16388  0.09471  0.20087  1.0000
  H   H13       1.0  0.33613  0.59471  0.20087  1.0000
  H   H14       1.0  0.16387  0.40529  0.70087  1.0000
  H   H15       1.0  0.66388  0.09472  0.29913  1.0000
  H   H16       1.0  0.83613  0.90530  0.79913  1.0000
  H   H17       1.0  0.23821  0.88802  0.85479  1.0000
  H   H18       1.0  0.26179  0.11198  0.35479  1.0000
  H   H19       1.0  0.76179  0.38801  0.64521  1.0000
  H   H20       1.0  0.73821  0.61197  0.14521  1.0000
  H   H21       1.0  0.76179  0.11198  0.14521  1.0000
  H   H22       1.0  0.73821  0.88802  0.64521  1.0000
  H   H23       1.0  0.23821  0.61197  0.35479  1.0000
  H   H24       1.0  0.26179  0.38801  0.85479  1.0000
  H   H25       1.0  0.32769  0.01910  0.86138  1.0000
  H   H26       1.0  0.17230  0.98091  0.36138  1.0000
  H   H27       1.0  0.67229  0.51909  0.63862  1.0000
  H   H28       1.0  0.82769  0.48090  0.13862  1.0000
  H   H29       1.0  0.67230  0.98090  0.13862  1.0000
  H   H30       1.0  0.82769  0.01910  0.63862  1.0000
  H   H31       1.0  0.32769  0.48090  0.36138  1.0000
  H   H32       1.0  0.17230  0.51909  0.86138  1.0000
  C   C1        1.0  0.79809  0.26771  0.97375  1.0000
  C   C2        1.0  0.70190  0.73230  0.47376  1.0000
  C   C3        1.0  0.20190  0.76771  0.52625  1.0000
  C   C4        1.0  0.29809  0.23230  0.02625  1.0000
  C   C5        1.0  0.20190  0.73230  0.02624  1.0000
  C   C6        1.0  0.29809  0.26771  0.52625  1.0000
  C   C7        1.0  0.79810  0.23230  0.47376  1.0000
  C   C8        1.0  0.70192  0.76770  0.97375  1.0000
  C   C9        1.0  0.72412  0.34364  0.84770  1.0000
  C   C10       1.0  0.77587  0.65636  0.34770  1.0000
  C   C11       1.0  0.27587  0.84364  0.65230  1.0000
  C   C12       1.0  0.22414  0.15636  0.15230  1.0000
  C   C13       1.0  0.27587  0.65636  0.15230  1.0000
  C   C14       1.0  0.22413  0.34364  0.65230  1.0000
  C   C15       1.0  0.72413  0.15636  0.34770  1.0000
  C   C16       1.0  0.77588  0.84364  0.84770  1.0000
  C   C17       1.0  0.82757  0.23289  0.83830  1.0000
  C   C18       1.0  0.67243  0.76712  0.33830  1.0000
  C   C19       1.0  0.17243  0.73289  0.66170  1.0000
  C   C20       1.0  0.32758  0.26711  0.16170  1.0000
  C   C21       1.0  0.17243  0.76711  0.16170  1.0000
  C   C22       1.0  0.32757  0.23289  0.66170  1.0000
  C   C23       1.0  0.82757  0.26712  0.33830  1.0000
  C   C24       1.0  0.67243  0.73289  0.83830  1.0000
  N   N1        1.0  0.87368  0.18522  0.91908  1.0000
  N   N2        1.0  0.62632  0.81478  0.41908  1.0000
  N   N3        1.0  0.12632  0.68523  0.58092  1.0000
  N   N4        1.0  0.37368  0.31478  0.08092  1.0000
  N   N5        1.0  0.12632  0.81478  0.08091  1.0000
  N   N6        1.0  0.37368  0.18522  0.58091  1.0000
  N   N7        1.0  0.87368  0.31478  0.41909  1.0000
  N   N8        1.0  0.62633  0.68522  0.91908  1.0000
  N   N9        1.0  0.70514  0.36445  0.93372  1.0000
  N   N10       1.0  0.79484  0.63555  0.43373  1.0000
  N   N11       1.0  0.29485  0.86445  0.56627  1.0000
  N   N12       1.0  0.20515  0.13555  0.06628  1.0000
  N   N13       1.0  0.29485  0.63555  0.06627  1.0000
  N   N14       1.0  0.20515  0.36445  0.56627  1.0000
  N   N15       1.0  0.70516  0.13555  0.43373  1.0000
  N   N16       1.0  0.79486  0.86445  0.93372  1.0000
  N   N17       1.0  0.86998  0.17678  0.75895  1.0000
  N   N18       1.0  0.63001  0.82322  0.25895  1.0000
  N   N19       1.0  0.13002  0.67678  0.74105  1.0000
  N   N20       1.0  0.36999  0.32323  0.24105  1.0000
  N   N21       1.0  0.13002  0.82322  0.24105  1.0000
  N   N22       1.0  0.36998  0.17677  0.74105  1.0000
  N   N23       1.0  0.86998  0.32322  0.25895  1.0000
  N   N24       1.0  0.63002  0.67678  0.75895  1.0000
  O   O1        1.0  0.81843  0.23089  0.68944  1.0000
  O   O2        1.0  0.68156  0.76912  0.18944  1.0000
  O   O3        1.0  0.18158  0.73088  0.81056  1.0000
  O   O4        1.0  0.31843  0.26911  0.31056  1.0000
  O   O5        1.0  0.18158  0.76911  0.31056  1.0000
  O   O6        1.0  0.31842  0.23087  0.81056  1.0000
  O   O7        1.0  0.81843  0.26911  0.18944  1.0000
  O   O8        1.0  0.68158  0.73089  0.68944  1.0000
  O   O9        1.0  0.95485  0.07453  0.75624  1.0000
  O   O10       1.0  0.54514  0.92548  0.25624  1.0000
  O   O11       1.0  0.04515  0.57453  0.74376  1.0000
  O   O12       1.0  0.45485  0.42547  0.24376  1.0000
  O   O13       1.0  0.04515  0.92547  0.24376  1.0000
  O   O14       1.0  0.45486  0.07452  0.74376  1.0000
  O   O15       1.0  0.95485  0.42547  0.25624  1.0000
  O   O16       1.0  0.54516  0.57453  0.75623  1.0000
  O   O17       1.0  0.26641  0.95408  0.89636  1.0000
  O   O18       1.0  0.23358  0.04593  0.39637  1.0000
  O   O19       1.0  0.73358  0.45407  0.60363  1.0000
  O   O20       1.0  0.76641  0.54592  0.10364  1.0000
  O   O21       1.0  0.73358  0.04593  0.10364  1.0000
  O   O22       1.0  0.76642  0.95408  0.60363  1.0000
  O   O23       1.0  0.26641  0.54592  0.39637  1.0000
  O   O24       1.0  0.23358  0.45407  0.89636  1.0000
