data_image0
_chemical_formula_structural       Cd4H40C56N20O16
_chemical_formula_sum              "Cd4 H40 C56 N20 O16"
_cell_length_a       9.43093
_cell_length_b       9.69097
_cell_length_c       16.2009
_cell_angle_alpha    94.7102
_cell_angle_beta     90
_cell_angle_gamma    90

_space_group_name_H-M_alt    "P 1"
_space_group_IT_number       1

loop_
  _space_group_symop_operation_xyz
  'x, y, z'

loop_
  _atom_site_type_symbol
  _atom_site_label
  _atom_site_symmetry_multiplicity
  _atom_site_fract_x
  _atom_site_fract_y
  _atom_site_fract_z
  _atom_site_occupancy
  Cd  Cd1       1.0  0.39013  0.64320  0.85254  1.0000
  Cd  Cd2       1.0  0.89013  0.35681  0.64747  1.0000
  Cd  Cd3       1.0  0.60987  0.35681  0.14746  1.0000
  Cd  Cd4       1.0  0.10987  0.64319  0.35254  1.0000
  H   H1        1.0  0.61196  0.39535  0.77954  1.0000
  H   H2        1.0  0.11196  0.60465  0.72046  1.0000
  H   H3        1.0  0.38804  0.60465  0.22046  1.0000
  H   H4        1.0  0.88804  0.39535  0.27954  1.0000
  H   H5        1.0  0.63751  0.53732  0.54094  1.0000
  H   H6        1.0  0.13751  0.46268  0.95906  1.0000
  H   H7        1.0  0.36249  0.46268  0.45906  1.0000
  H   H8        1.0  0.86249  0.53732  0.04094  1.0000
  H   H9        1.0  0.12506  0.84894  0.82240  1.0000
  H   H10       1.0  0.62506  0.15106  0.67760  1.0000
  H   H11       1.0  0.87494  0.15106  0.17760  1.0000
  H   H12       1.0  0.37494  0.84894  0.32240  1.0000
  H   H13       1.0  0.07521  0.09874  0.80643  1.0000
  H   H14       1.0  0.57521  0.90126  0.69357  1.0000
  H   H15       1.0  0.92479  0.90126  0.19357  1.0000
  H   H16       1.0  0.42479  0.09874  0.30643  1.0000
  H   H17       1.0  0.27722  0.27048  0.83031  1.0000
  H   H18       1.0  0.77722  0.72952  0.66969  1.0000
  H   H19       1.0  0.72278  0.72952  0.16969  1.0000
  H   H20       1.0  0.22278  0.27048  0.33031  1.0000
  H   H21       1.0  0.51148  0.18630  0.87072  1.0000
  H   H22       1.0  0.01148  0.81370  0.62928  1.0000
  H   H23       1.0  0.48852  0.81370  0.12928  1.0000
  H   H24       1.0  0.98852  0.18630  0.37072  1.0000
  H   H25       1.0  0.67619  0.10821  0.93932  1.0000
  H   H26       1.0  0.17620  0.89179  0.56068  1.0000
  H   H27       1.0  0.32380  0.89179  0.06068  1.0000
  H   H28       1.0  0.82381  0.10821  0.43932  1.0000
  H   H29       1.0  0.90896  0.00388  0.96343  1.0000
  H   H30       1.0  0.40896  0.99612  0.53657  1.0000
  H   H31       1.0  0.09104  0.99612  0.03657  1.0000
  H   H32       1.0  0.59104  0.00388  0.46343  1.0000
  H   H33       1.0  0.94479  0.74676  0.92826  1.0000
  H   H34       1.0  0.44479  0.25324  0.57174  1.0000
  H   H35       1.0  0.05521  0.25324  0.07174  1.0000
  H   H36       1.0  0.55521  0.74676  0.42826  1.0000
  H   H37       1.0  0.73936  0.60893  0.86675  1.0000
  H   H38       1.0  0.23936  0.39107  0.63325  1.0000
  H   H39       1.0  0.26064  0.39107  0.13325  1.0000
  H   H40       1.0  0.76064  0.60893  0.36675  1.0000
  C   C1        1.0  0.58738  0.45152  0.72606  1.0000
  C   C2        1.0  0.08738  0.54848  0.77394  1.0000
  C   C3        1.0  0.41262  0.54848  0.27394  1.0000
  C   C4        1.0  0.91262  0.45152  0.22606  1.0000
  C   C5        1.0  0.60050  0.52483  0.60320  1.0000
  C   C6        1.0  0.10050  0.47517  0.89680  1.0000
  C   C7        1.0  0.39950  0.47517  0.39680  1.0000
  C   C8        1.0  0.89950  0.52483  0.10320  1.0000
  C   C9        1.0  0.48890  0.59004  0.64774  1.0000
  C   C10       1.0  0.98890  0.40995  0.85226  1.0000
  C   C11       1.0  0.51110  0.40996  0.35226  1.0000
  C   C12       1.0  0.01110  0.59004  0.14774  1.0000
  C   C13       1.0  0.47503  0.56332  0.02980  1.0000
  C   C14       1.0  0.97503  0.43668  0.47021  1.0000
  C   C15       1.0  0.52498  0.43668  0.97021  1.0000
  C   C16       1.0  0.02497  0.56333  0.52979  1.0000
  C   C17       1.0  0.20788  0.92709  0.83270  1.0000
  C   C18       1.0  0.70788  0.07291  0.66730  1.0000
  C   C19       1.0  0.79212  0.07291  0.16730  1.0000
  C   C20       1.0  0.29212  0.92709  0.33270  1.0000
  C   C21       1.0  0.18081  0.06637  0.82393  1.0000
  C   C22       1.0  0.68081  0.93363  0.67607  1.0000
  C   C23       1.0  0.81919  0.93363  0.17607  1.0000
  C   C24       1.0  0.31919  0.06637  0.32393  1.0000
  C   C25       1.0  0.29198  0.16054  0.83716  1.0000
  C   C26       1.0  0.79198  0.83946  0.66284  1.0000
  C   C27       1.0  0.70802  0.83946  0.16284  1.0000
  C   C28       1.0  0.20802  0.16054  0.33716  1.0000
  C   C29       1.0  0.42472  0.11299  0.85965  1.0000
  C   C30       1.0  0.92472  0.88701  0.64035  1.0000
  C   C31       1.0  0.57528  0.88701  0.14035  1.0000
  C   C32       1.0  0.07528  0.11299  0.35965  1.0000
  C   C33       1.0  0.44373  0.97117  0.86718  1.0000
  C   C34       1.0  0.94373  0.02883  0.63282  1.0000
  C   C35       1.0  0.55627  0.02883  0.13282  1.0000
  C   C36       1.0  0.05627  0.97117  0.36718  1.0000
  C   C37       1.0  0.58430  0.91379  0.88776  1.0000
  C   C38       1.0  0.08430  0.08621  0.61224  1.0000
  C   C39       1.0  0.41570  0.08621  0.11224  1.0000
  C   C40       1.0  0.91570  0.91379  0.38776  1.0000
  C   C41       1.0  0.69271  0.99807  0.92305  1.0000
  C   C42       1.0  0.19271  0.00193  0.57695  1.0000
  C   C43       1.0  0.30729  0.00193  0.07695  1.0000
  C   C44       1.0  0.80729  0.99807  0.42305  1.0000
  C   C45       1.0  0.82377  0.93831  0.93724  1.0000
  C   C46       1.0  0.32378  0.06169  0.56276  1.0000
  C   C47       1.0  0.17622  0.06169  0.06276  1.0000
  C   C48       1.0  0.67622  0.93831  0.43724  1.0000
  C   C49       1.0  0.84418  0.79699  0.91702  1.0000
  C   C50       1.0  0.34418  0.20301  0.58298  1.0000
  C   C51       1.0  0.15582  0.20301  0.08298  1.0000
  C   C52       1.0  0.65582  0.79699  0.41702  1.0000
  C   C53       1.0  0.73010  0.72004  0.88345  1.0000
  C   C54       1.0  0.23011  0.27996  0.61655  1.0000
  C   C55       1.0  0.26989  0.27996  0.11655  1.0000
  C   C56       1.0  0.76989  0.72004  0.38345  1.0000
  N   N1        1.0  0.48125  0.54303  0.72535  1.0000
  N   N2        1.0  0.98125  0.45697  0.77465  1.0000
  N   N3        1.0  0.51875  0.45697  0.27465  1.0000
  N   N4        1.0  0.01875  0.54303  0.22535  1.0000
  N   N5        1.0  0.66230  0.43738  0.65378  1.0000
  N   N6        1.0  0.16230  0.56262  0.84622  1.0000
  N   N7        1.0  0.33770  0.56262  0.34622  1.0000
  N   N8        1.0  0.83770  0.43738  0.15378  1.0000
  N   N9        1.0  0.39862  0.69540  0.62270  1.0000
  N   N10       1.0  0.89862  0.30459  0.87730  1.0000
  N   N11       1.0  0.60138  0.30459  0.37730  1.0000
  N   N12       1.0  0.10138  0.69541  0.12270  1.0000
  N   N13       1.0  0.33581  0.88070  0.85326  1.0000
  N   N14       1.0  0.83582  0.11930  0.64673  1.0000
  N   N15       1.0  0.66419  0.11930  0.14673  1.0000
  N   N16       1.0  0.16418  0.88070  0.35326  1.0000
  N   N17       1.0  0.60394  0.77682  0.86924  1.0000
  N   N18       1.0  0.10394  0.22318  0.63075  1.0000
  N   N19       1.0  0.39606  0.22319  0.13076  1.0000
  N   N20       1.0  0.89606  0.77681  0.36924  1.0000
  O   O1        1.0  0.30822  0.74623  0.67311  1.0000
  O   O2        1.0  0.80822  0.25377  0.82689  1.0000
  O   O3        1.0  0.69178  0.25377  0.32689  1.0000
  O   O4        1.0  0.19178  0.74623  0.17311  1.0000
  O   O5        1.0  0.41575  0.73476  0.55170  1.0000
  O   O6        1.0  0.91575  0.26524  0.94830  1.0000
  O   O7        1.0  0.58425  0.26524  0.44830  1.0000
  O   O8        1.0  0.08425  0.73476  0.05170  1.0000
  O   O9        1.0  0.40516  0.65832  0.99936  1.0000
  O   O10       1.0  0.90516  0.34168  0.50064  1.0000
  O   O11       1.0  0.59484  0.34169  0.00064  1.0000
  O   O12       1.0  0.09484  0.65832  0.49936  1.0000
  O   O13       1.0  0.50828  0.56247  0.10564  1.0000
  O   O14       1.0  0.00828  0.43753  0.39436  1.0000
  O   O15       1.0  0.49172  0.43753  0.89436  1.0000
  O   O16       1.0  0.99172  0.56247  0.60564  1.0000
