data_image0
_chemical_formula_structural       Cd4H16C24N24O16
_chemical_formula_sum              "Cd4 H16 C24 N24 O16"
_cell_length_a       9.63148
_cell_length_b       10.2291
_cell_length_c       11.2049
_cell_angle_alpha    89.9999
_cell_angle_beta     109.467
_cell_angle_gamma    90.0001

_space_group_name_H-M_alt    "P 1"
_space_group_IT_number       1

loop_
  _space_group_symop_operation_xyz
  'x, y, z'

loop_
  _atom_site_type_symbol
  _atom_site_label
  _atom_site_symmetry_multiplicity
  _atom_site_fract_x
  _atom_site_fract_y
  _atom_site_fract_z
  _atom_site_occupancy
  Cd  Cd1       1.0  0.03993  0.65764  0.25801  1.0000
  Cd  Cd2       1.0  0.46007  0.15764  0.24199  1.0000
  Cd  Cd3       1.0  0.96007  0.34236  0.74199  1.0000
  Cd  Cd4       1.0  0.53993  0.84236  0.75801  1.0000
  H   H1        1.0  0.84741  0.83613  0.99631  1.0000
  H   H2        1.0  0.65259  0.33613  0.50369  1.0000
  H   H3        1.0  0.15259  0.16387  0.00369  1.0000
  H   H4        1.0  0.34741  0.66387  0.49631  1.0000
  H   H5        1.0  0.45889  0.64717  0.99611  1.0000
  H   H6        1.0  0.04111  0.14717  0.50389  1.0000
  H   H7        1.0  0.54111  0.35283  0.00389  1.0000
  H   H8        1.0  0.95889  0.85283  0.49611  1.0000
  H   H9        1.0  0.25115  0.94080  0.34644  1.0000
  H   H10       1.0  0.24885  0.44080  0.15356  1.0000
  H   H11       1.0  0.74885  0.05920  0.65356  1.0000
  H   H12       1.0  0.75115  0.55920  0.84644  1.0000
  H   H13       1.0  0.36493  0.92685  0.01448  1.0000
  H   H14       1.0  0.13507  0.42685  0.48552  1.0000
  H   H15       1.0  0.63507  0.07315  0.98552  1.0000
  H   H16       1.0  0.86493  0.57315  0.51448  1.0000
  C   C1        1.0  0.77383  0.77289  0.02504  1.0000
  C   C2        1.0  0.72617  0.27290  0.47496  1.0000
  C   C3        1.0  0.22617  0.22711  0.97496  1.0000
  C   C4        1.0  0.27383  0.72711  0.52504  1.0000
  C   C5        1.0  0.57368  0.67582  0.02637  1.0000
  C   C6        1.0  0.92632  0.17582  0.47363  1.0000
  C   C7        1.0  0.42632  0.32418  0.97363  1.0000
  C   C8        1.0  0.07368  0.82418  0.52637  1.0000
  C   C9        1.0  0.22441  0.79600  0.08760  1.0000
  C   C10       1.0  0.27559  0.29600  0.41240  1.0000
  C   C11       1.0  0.77560  0.20400  0.91240  1.0000
  C   C12       1.0  0.72441  0.70400  0.58760  1.0000
  C   C13       1.0  0.25614  0.90739  0.25615  1.0000
  C   C14       1.0  0.24386  0.40739  0.24385  1.0000
  C   C15       1.0  0.74386  0.09261  0.74385  1.0000
  C   C16       1.0  0.75614  0.59261  0.75615  1.0000
  C   C17       1.0  0.69206  0.63715  0.13106  1.0000
  C   C18       1.0  0.80794  0.13715  0.36894  1.0000
  C   C19       1.0  0.30794  0.36285  0.86894  1.0000
  C   C20       1.0  0.19206  0.86285  0.63106  1.0000
  C   C21       1.0  0.31699  0.89999  0.08578  1.0000
  C   C22       1.0  0.18301  0.39999  0.41422  1.0000
  C   C23       1.0  0.68301  0.10001  0.91422  1.0000
  C   C24       1.0  0.81699  0.60001  0.58578  1.0000
  N   N1        1.0  0.62724  0.76175  0.95980  1.0000
  N   N2        1.0  0.87276  0.26175  0.54020  1.0000
  N   N3        1.0  0.37277  0.23825  0.04020  1.0000
  N   N4        1.0  0.12723  0.73825  0.45980  1.0000
  N   N5        1.0  0.18683  0.80139  0.19555  1.0000
  N   N6        1.0  0.31317  0.30139  0.30445  1.0000
  N   N7        1.0  0.81317  0.19861  0.80445  1.0000
  N   N8        1.0  0.68683  0.69861  0.69555  1.0000
  N   N9        1.0  0.17315  0.69577  0.99720  1.0000
  N   N10       1.0  0.32685  0.19577  0.50280  1.0000
  N   N11       1.0  0.82686  0.30423  0.00280  1.0000
  N   N12       1.0  0.67314  0.80423  0.49720  1.0000
  N   N13       1.0  0.81745  0.69872  0.12853  1.0000
  N   N14       1.0  0.68255  0.19873  0.37147  1.0000
  N   N15       1.0  0.18255  0.30128  0.87147  1.0000
  N   N16       1.0  0.31745  0.80127  0.62853  1.0000
  N   N17       1.0  0.69587  0.54975  0.22967  1.0000
  N   N18       1.0  0.80412  0.04975  0.27033  1.0000
  N   N19       1.0  0.30413  0.45025  0.77033  1.0000
  N   N20       1.0  0.19588  0.95025  0.72967  1.0000
  N   N21       1.0  0.33587  0.96991  0.19306  1.0000
  N   N22       1.0  0.16413  0.46990  0.30694  1.0000
  N   N23       1.0  0.66413  0.03010  0.80694  1.0000
  N   N24       1.0  0.83587  0.53010  0.69306  1.0000
  O   O1        1.0  0.21433  0.69579  0.90240  1.0000
  O   O2        1.0  0.28567  0.19579  0.59760  1.0000
  O   O3        1.0  0.78567  0.30421  0.09760  1.0000
  O   O4        1.0  0.71433  0.80421  0.40241  1.0000
  O   O5        1.0  0.08950  0.61025  0.01636  1.0000
  O   O6        1.0  0.41050  0.11024  0.48364  1.0000
  O   O7        1.0  0.91050  0.38975  0.98364  1.0000
  O   O8        1.0  0.58950  0.88975  0.51636  1.0000
  O   O9        1.0  0.81898  0.52409  0.31072  1.0000
  O   O10       1.0  0.68102  0.02409  0.18928  1.0000
  O   O11       1.0  0.18102  0.47591  0.68928  1.0000
  O   O12       1.0  0.31898  0.97591  0.81072  1.0000
  O   O13       1.0  0.57753  0.50200  0.23177  1.0000
  O   O14       1.0  0.92247  0.00200  0.26823  1.0000
  O   O15       1.0  0.42247  0.49800  0.76823  1.0000
  O   O16       1.0  0.07753  0.99800  0.73177  1.0000
