data_image0
_chemical_formula_structural       Cd2H44C48S4N8O8
_chemical_formula_sum              "Cd2 H44 C48 S4 N8 O8"
_cell_length_a       9.09714
_cell_length_b       10.9074
_cell_length_c       14.0103
_cell_angle_alpha    73.8899
_cell_angle_beta     72.9961
_cell_angle_gamma    68.1279

_space_group_name_H-M_alt    "P 1"
_space_group_IT_number       1

loop_
  _space_group_symop_operation_xyz
  'x, y, z'

loop_
  _atom_site_type_symbol
  _atom_site_label
  _atom_site_symmetry_multiplicity
  _atom_site_fract_x
  _atom_site_fract_y
  _atom_site_fract_z
  _atom_site_occupancy
  Cd  Cd1       1.0  0.44616  0.23373  0.48830  1.0000
  Cd  Cd2       1.0  0.55384  0.76627  0.51171  1.0000
  H   H1        1.0  0.74913  0.23330  0.53584  1.0000
  H   H2        1.0  0.25086  0.76670  0.46416  1.0000
  H   H3        1.0  0.99777  0.07877  0.59976  1.0000
  H   H4        1.0  0.00222  0.92123  0.40024  1.0000
  H   H5        1.0  0.01277  0.83901  0.67701  1.0000
  H   H6        1.0  0.98723  0.16099  0.32299  1.0000
  H   H7        1.0  0.77395  0.76569  0.69175  1.0000
  H   H8        1.0  0.22605  0.23431  0.30825  1.0000
  H   H9        1.0  0.15922  0.19518  0.78033  1.0000
  H   H10       1.0  0.84079  0.80482  0.21967  1.0000
  H   H11       1.0  0.10711  0.19230  0.96547  1.0000
  H   H12       1.0  0.89290  0.80770  0.03453  1.0000
  H   H13       1.0  0.40529  0.77718  0.01129  1.0000
  H   H14       1.0  0.59471  0.22282  0.98870  1.0000
  H   H15       1.0  0.45255  0.77893  0.82698  1.0000
  H   H16       1.0  0.54745  0.22107  0.17302  1.0000
  H   H17       1.0  0.14487  0.08269  0.13161  1.0000
  H   H18       1.0  0.85513  0.91731  0.86839  1.0000
  H   H19       1.0  0.33650  0.95762  0.13756  1.0000
  H   H20       1.0  0.66350  0.04237  0.86244  1.0000
  H   H21       1.0  0.16196  0.91021  0.15913  1.0000
  H   H22       1.0  0.83804  0.08979  0.84087  1.0000
  H   H23       1.0  0.03680  0.38334  0.43464  1.0000
  H   H24       1.0  0.96321  0.61665  0.56535  1.0000
  H   H25       1.0  0.90876  0.61065  0.33956  1.0000
  H   H26       1.0  0.09124  0.38935  0.66044  1.0000
  H   H27       1.0  0.07600  0.76716  0.26262  1.0000
  H   H28       1.0  0.92400  0.23283  0.73738  1.0000
  H   H29       1.0  0.36145  0.69161  0.28240  1.0000
  H   H30       1.0  0.63854  0.30838  0.71760  1.0000
  H   H31       1.0  0.77754  0.28752  0.23303  1.0000
  H   H32       1.0  0.22246  0.71248  0.76697  1.0000
  H   H33       1.0  0.84942  0.29495  0.04703  1.0000
  H   H34       1.0  0.15058  0.70505  0.95297  1.0000
  H   H35       1.0  0.70062  0.72739  0.99286  1.0000
  H   H36       1.0  0.29938  0.27261  0.00715  1.0000
  H   H37       1.0  0.62880  0.72016  0.17997  1.0000
  H   H38       1.0  0.37120  0.27984  0.82003  1.0000
  H   H39       1.0  0.80213  0.61863  0.85058  1.0000
  H   H40       1.0  0.19787  0.38137  0.14942  1.0000
  H   H41       1.0  0.75667  0.46688  0.87222  1.0000
  H   H42       1.0  0.24333  0.53312  0.12778  1.0000
  H   H43       1.0  0.95478  0.46099  0.86932  1.0000
  H   H44       1.0  0.04522  0.53902  0.13068  1.0000
  C   C1        1.0  0.75928  0.12926  0.57282  1.0000
  C   C2        1.0  0.24072  0.87075  0.42718  1.0000
  C   C3        1.0  0.89676  0.04338  0.60820  1.0000
  C   C4        1.0  0.10324  0.95662  0.39180  1.0000
  C   C5        1.0  0.90451  0.90974  0.65117  1.0000
  C   C6        1.0  0.09549  0.09027  0.34883  1.0000
  C   C7        1.0  0.77400  0.86847  0.65857  1.0000
  C   C8        1.0  0.22600  0.13153  0.34142  1.0000
  C   C9        1.0  0.63838  0.95995  0.62042  1.0000
  C   C10       1.0  0.36162  0.04005  0.37958  1.0000
  C   C11       1.0  0.30605  0.98706  0.79357  1.0000
  C   C12       1.0  0.69395  0.01294  0.20643  1.0000
  C   C13       1.0  0.20973  0.10352  0.83188  1.0000
  C   C14       1.0  0.79027  0.89648  0.16812  1.0000
  C   C15       1.0  0.18219  0.10110  0.93558  1.0000
  C   C16       1.0  0.81781  0.89890  0.06442  1.0000
  C   C17       1.0  0.25164  0.98478  0.00171  1.0000
  C   C18       1.0  0.74836  0.01521  0.99829  1.0000
  C   C19       1.0  0.34987  0.86899  0.96109  1.0000
  C   C20       1.0  0.65013  0.13101  0.03891  1.0000
  C   C21       1.0  0.37733  0.86929  0.85790  1.0000
  C   C22       1.0  0.62268  0.13071  0.14210  1.0000
  C   C23       1.0  0.22236  0.98428  0.11295  1.0000
  C   C24       1.0  0.77764  0.01572  0.88705  1.0000
  C   C25       1.0  0.10484  0.45399  0.39960  1.0000
  C   C26       1.0  0.89517  0.54600  0.60040  1.0000
  C   C27       1.0  0.03442  0.58037  0.34557  1.0000
  C   C28       1.0  0.96558  0.41963  0.65443  1.0000
  C   C29       1.0  0.12868  0.66607  0.30327  1.0000
  C   C30       1.0  0.87131  0.33393  0.69673  1.0000
  C   C31       1.0  0.28804  0.62491  0.31376  1.0000
  C   C32       1.0  0.71196  0.37509  0.68624  1.0000
  C   C33       1.0  0.35156  0.49565  0.37025  1.0000
  C   C34       1.0  0.64844  0.50435  0.62975  1.0000
  C   C35       1.0  0.70091  0.50399  0.21684  1.0000
  C   C36       1.0  0.29909  0.49601  0.78316  1.0000
  C   C37       1.0  0.76315  0.38360  0.18005  1.0000
  C   C38       1.0  0.23684  0.61640  0.81995  1.0000
  C   C39       1.0  0.80273  0.38875  0.07561  1.0000
  C   C40       1.0  0.19727  0.61125  0.92439  1.0000
  C   C41       1.0  0.78147  0.51197  0.00633  1.0000
  C   C42       1.0  0.21853  0.48803  0.99367  1.0000
  C   C43       1.0  0.71816  0.63068  0.04528  1.0000
  C   C44       1.0  0.28184  0.36932  0.95472  1.0000
  C   C45       1.0  0.67716  0.62765  0.14993  1.0000
  C   C46       1.0  0.32284  0.37236  0.85007  1.0000
  C   C47       1.0  0.82556  0.51519  0.89392  1.0000
  C   C48       1.0  0.17443  0.48481  0.10608  1.0000
  S   S1        1.0  0.32953  0.98432  0.66346  1.0000
  S   S2        1.0  0.67047  0.01568  0.33654  1.0000
  S   S3        1.0  0.64772  0.49679  0.35073  1.0000
  S   S4        1.0  0.35228  0.50321  0.64927  1.0000
  N   N1        1.0  0.51516  0.91191  0.62209  1.0000
  N   N2        1.0  0.48485  0.08809  0.37791  1.0000
  N   N3        1.0  0.63348  0.08867  0.57778  1.0000
  N   N4        1.0  0.36652  0.91133  0.42223  1.0000
  N   N5        1.0  0.50280  0.43403  0.39217  1.0000
  N   N6        1.0  0.49720  0.56597  0.60783  1.0000
  N   N7        1.0  0.25756  0.41367  0.41196  1.0000
  N   N8        1.0  0.74244  0.58633  0.58804  1.0000
  O   O1        1.0  0.24291  0.89783  0.65986  1.0000
  O   O2        1.0  0.75709  0.10217  0.34014  1.0000
  O   O3        1.0  0.26431  0.12651  0.61467  1.0000
  O   O4        1.0  0.73569  0.87349  0.38533  1.0000
  O   O5        1.0  0.60059  0.63640  0.36350  1.0000
  O   O6        1.0  0.39940  0.36360  0.63650  1.0000
  O   O7        1.0  0.78306  0.40005  0.39381  1.0000
  O   O8        1.0  0.21694  0.59996  0.60619  1.0000
