data_image0
_chemical_formula_structural       Hg2H20C16S4N8
_chemical_formula_sum              "Hg2 H20 C16 S4 N8"
_cell_length_a       7.88078
_cell_length_b       7.88062
_cell_length_c       8.86076
_cell_angle_alpha    92.7365
_cell_angle_beta     92.7385
_cell_angle_gamma    91.278

_space_group_name_H-M_alt    "P 1"
_space_group_IT_number       1

loop_
  _space_group_symop_operation_xyz
  'x, y, z'

loop_
  _atom_site_type_symbol
  _atom_site_label
  _atom_site_symmetry_multiplicity
  _atom_site_fract_x
  _atom_site_fract_y
  _atom_site_fract_z
  _atom_site_occupancy
  Hg  Hg1       1.0  0.05401  0.94597  0.24999  1.0000
  Hg  Hg2       1.0  0.94600  0.05403  0.75001  1.0000
  H   H1        1.0  0.59433  0.36593  0.63081  1.0000
  H   H2        1.0  0.36592  0.59430  0.13081  1.0000
  H   H3        1.0  0.40568  0.63408  0.36919  1.0000
  H   H4        1.0  0.63408  0.40571  0.86919  1.0000
  H   H5        1.0  0.32738  0.44049  0.84115  1.0000
  H   H6        1.0  0.44048  0.32737  0.34116  1.0000
  H   H7        1.0  0.67261  0.55951  0.15885  1.0000
  H   H8        1.0  0.55953  0.67262  0.65884  1.0000
  H   H9        1.0  0.14246  0.49468  0.61538  1.0000
  H   H10       1.0  0.49467  0.14246  0.11540  1.0000
  H   H11       1.0  0.85754  0.50531  0.38462  1.0000
  H   H12       1.0  0.50533  0.85754  0.88461  1.0000
  H   H13       1.0  0.00194  0.67003  0.62263  1.0000
  H   H14       1.0  0.67001  0.00194  0.12265  1.0000
  H   H15       1.0  0.99805  0.32996  0.37737  1.0000
  H   H16       1.0  0.32998  0.99806  0.87735  1.0000
  H   H17       1.0  0.93368  0.46740  0.68316  1.0000
  H   H18       1.0  0.46738  0.93368  0.18317  1.0000
  H   H19       1.0  0.06631  0.53259  0.31685  1.0000
  H   H20       1.0  0.53261  0.06632  0.81683  1.0000
  C   C1        1.0  0.04060  0.71239  0.93233  1.0000
  C   C2        1.0  0.71240  0.04060  0.43234  1.0000
  C   C3        1.0  0.95940  0.28762  0.06767  1.0000
  C   C4        1.0  0.28761  0.95940  0.56767  1.0000
  C   C5        1.0  0.61313  0.26975  0.54205  1.0000
  C   C6        1.0  0.26975  0.61312  0.04205  1.0000
  C   C7        1.0  0.38687  0.73024  0.45794  1.0000
  C   C8        1.0  0.73025  0.38689  0.95795  1.0000
  C   C9        1.0  0.25519  0.53729  0.89867  1.0000
  C   C10       1.0  0.53729  0.25519  0.39868  1.0000
  C   C11       1.0  0.74481  0.46271  0.10133  1.0000
  C   C12       1.0  0.46271  0.74481  0.60132  1.0000
  C   C13       1.0  0.04287  0.55575  0.67873  1.0000
  C   C14       1.0  0.55573  0.04287  0.17874  1.0000
  C   C15       1.0  0.95712  0.44425  0.32127  1.0000
  C   C16       1.0  0.44426  0.95713  0.82126  1.0000
  S   S1        1.0  0.85125  0.81422  0.89798  1.0000
  S   S2        1.0  0.81421  0.85124  0.39799  1.0000
  S   S3        1.0  0.14875  0.18579  0.10202  1.0000
  S   S4        1.0  0.18580  0.14875  0.60201  1.0000
  N   N1        1.0  0.13677  0.72116  0.06221  1.0000
  N   N2        1.0  0.72118  0.13678  0.56222  1.0000
  N   N3        1.0  0.86323  0.27885  0.93779  1.0000
  N   N4        1.0  0.27883  0.86322  0.43779  1.0000
  N   N5        1.0  0.11115  0.60124  0.83050  1.0000
  N   N6        1.0  0.60123  0.11113  0.33051  1.0000
  N   N7        1.0  0.88885  0.39876  0.16950  1.0000
  N   N8        1.0  0.39877  0.88885  0.66948  1.0000
