data_image0
_chemical_formula_structural       Ag8H8C8N32
_chemical_formula_sum              "Ag8 H8 C8 N32"
_cell_length_a       5.77235
_cell_length_b       8.24722
_cell_length_c       14.7445
_cell_angle_alpha    90.0004
_cell_angle_beta     89.9998
_cell_angle_gamma    94.2458

_space_group_name_H-M_alt    "P 1"
_space_group_IT_number       1

loop_
  _space_group_symop_operation_xyz
  'x, y, z'

loop_
  _atom_site_type_symbol
  _atom_site_label
  _atom_site_symmetry_multiplicity
  _atom_site_fract_x
  _atom_site_fract_y
  _atom_site_fract_z
  _atom_site_occupancy
  Ag  Ag1       1.0  0.90673  0.36238  0.60972  1.0000
  Ag  Ag2       1.0  0.40673  0.86238  0.89028  1.0000
  Ag  Ag3       1.0  0.09327  0.63762  0.39028  1.0000
  Ag  Ag4       1.0  0.59326  0.13762  0.10972  1.0000
  Ag  Ag5       1.0  0.23954  0.95696  0.58675  1.0000
  Ag  Ag6       1.0  0.73953  0.45695  0.91325  1.0000
  Ag  Ag7       1.0  0.76046  0.04304  0.41326  1.0000
  Ag  Ag8       1.0  0.26048  0.54305  0.08674  1.0000
  H   H1        1.0  0.89864  0.76964  0.75134  1.0000
  H   H2        1.0  0.39863  0.26964  0.74865  1.0000
  H   H3        1.0  0.10136  0.23036  0.24866  1.0000
  H   H4        1.0  0.60137  0.73036  0.25135  1.0000
  H   H5        1.0  0.57586  0.40925  0.34798  1.0000
  H   H6        1.0  0.07586  0.90925  0.15202  1.0000
  H   H7        1.0  0.42414  0.59075  0.65202  1.0000
  H   H8        1.0  0.92414  0.09075  0.84798  1.0000
  C   C1        1.0  0.82736  0.88189  0.72931  1.0000
  C   C2        1.0  0.32736  0.38189  0.77069  1.0000
  C   C3        1.0  0.17264  0.11812  0.27069  1.0000
  C   C4        1.0  0.67265  0.61812  0.22931  1.0000
  C   C5        1.0  0.46807  0.35729  0.40207  1.0000
  C   C6        1.0  0.96807  0.85730  0.09793  1.0000
  C   C7        1.0  0.53193  0.64270  0.59793  1.0000
  C   C8        1.0  0.03193  0.14270  0.90207  1.0000
  N   N1        1.0  0.92747  0.98248  0.66677  1.0000
  N   N2        1.0  0.42747  0.48247  0.83323  1.0000
  N   N3        1.0  0.07253  0.01752  0.33323  1.0000
  N   N4        1.0  0.57253  0.51752  0.16678  1.0000
  N   N5        1.0  0.78812  0.10694  0.65982  1.0000
  N   N6        1.0  0.28812  0.60694  0.84018  1.0000
  N   N7        1.0  0.21188  0.89306  0.34018  1.0000
  N   N8        1.0  0.71188  0.39306  0.15982  1.0000
  N   N9        1.0  0.61158  0.08190  0.71597  1.0000
  N   N10       1.0  0.11158  0.58191  0.78403  1.0000
  N   N11       1.0  0.38842  0.91810  0.28403  1.0000
  N   N12       1.0  0.88843  0.41810  0.21597  1.0000
  N   N13       1.0  0.63281  0.94115  0.76096  1.0000
  N   N14       1.0  0.13281  0.44115  0.73904  1.0000
  N   N15       1.0  0.36718  0.05885  0.23904  1.0000
  N   N16       1.0  0.86719  0.55885  0.26096  1.0000
  N   N17       1.0  0.50629  0.21903  0.44527  1.0000
  N   N18       1.0  0.00629  0.71903  0.05473  1.0000
  N   N19       1.0  0.49371  0.78097  0.55474  1.0000
  N   N20       1.0  0.99371  0.28097  0.94527  1.0000
  N   N21       1.0  0.33710  0.19912  0.50810  1.0000
  N   N22       1.0  0.83711  0.69912  0.99190  1.0000
  N   N23       1.0  0.66290  0.80088  0.49190  1.0000
  N   N24       1.0  0.16289  0.30088  0.00810  1.0000
  N   N25       1.0  0.20285  0.32105  0.50266  1.0000
  N   N26       1.0  0.70285  0.82105  0.99734  1.0000
  N   N27       1.0  0.79715  0.67894  0.49734  1.0000
  N   N28       1.0  0.29715  0.17895  0.00266  1.0000
  N   N29       1.0  0.28171  0.42303  0.43614  1.0000
  N   N30       1.0  0.78171  0.92303  0.06385  1.0000
  N   N31       1.0  0.71829  0.57697  0.56386  1.0000
  N   N32       1.0  0.21829  0.07697  0.93614  1.0000
