data_image0
_chemical_formula_structural       Cd2H24C32N8O10
_chemical_formula_sum              "Cd2 H24 C32 N8 O10"
_cell_length_a       9.0146
_cell_length_b       9.94229
_cell_length_c       11.1962
_cell_angle_alpha    91.4423
_cell_angle_beta     98.3814
_cell_angle_gamma    107.729

_space_group_name_H-M_alt    "P 1"
_space_group_IT_number       1

loop_
  _space_group_symop_operation_xyz
  'x, y, z'

loop_
  _atom_site_type_symbol
  _atom_site_label
  _atom_site_symmetry_multiplicity
  _atom_site_fract_x
  _atom_site_fract_y
  _atom_site_fract_z
  _atom_site_occupancy
  Cd  Cd1       1.0  0.50921  0.58462  0.71739  1.0000
  Cd  Cd2       1.0  0.49080  0.41538  0.28261  1.0000
  H   H1        1.0  0.72473  0.23416  0.53470  1.0000
  H   H2        1.0  0.27527  0.76584  0.46529  1.0000
  H   H3        1.0  0.48913  0.86264  0.81272  1.0000
  H   H4        1.0  0.51086  0.13736  0.18728  1.0000
  H   H5        1.0  0.90561  0.64786  0.73337  1.0000
  H   H6        1.0  0.09440  0.35214  0.26663  1.0000
  H   H7        1.0  0.52864  0.65332  0.02016  1.0000
  H   H8        1.0  0.47137  0.34668  0.97984  1.0000
  H   H9        1.0  0.74430  0.72998  0.48051  1.0000
  H   H10       1.0  0.25569  0.27000  0.51949  1.0000
  H   H11       1.0  0.46408  0.10672  0.82954  1.0000
  H   H12       1.0  0.53592  0.89329  0.17044  1.0000
  H   H13       1.0  0.10052  0.70660  0.18368  1.0000
  H   H14       1.0  0.89948  0.29339  0.81632  1.0000
  H   H15       1.0  0.27707  0.69300  0.03488  1.0000
  H   H16       1.0  0.72295  0.30701  0.96513  1.0000
  H   H17       1.0  0.79350  0.98940  0.43180  1.0000
  H   H18       1.0  0.20648  0.01058  0.56819  1.0000
  H   H19       1.0  0.75942  0.68388  0.18145  1.0000
  H   H20       1.0  0.24059  0.31613  0.81855  1.0000
  H   H21       1.0  0.30756  0.53437  0.48858  1.0000
  H   H22       1.0  0.69244  0.46564  0.51142  1.0000
  H   H23       1.0  0.22738  0.56350  0.60219  1.0000
  H   H24       1.0  0.77262  0.43651  0.39782  1.0000
  C   C1        1.0  0.59162  0.18227  0.68386  1.0000
  C   C2        1.0  0.40838  0.81773  0.31613  1.0000
  C   C3        1.0  0.67505  0.15423  0.59505  1.0000
  C   C4        1.0  0.32495  0.84577  0.40495  1.0000
  C   C5        1.0  0.56265  0.32182  0.69598  1.0000
  C   C6        1.0  0.43734  0.67818  0.30401  1.0000
  C   C7        1.0  0.68492  0.01719  0.58497  1.0000
  C   C8        1.0  0.31507  0.98281  0.41503  1.0000
  C   C9        1.0  0.53978  0.94300  0.75308  1.0000
  C   C10       1.0  0.46021  0.05701  0.24692  1.0000
  C   C11       1.0  0.94625  0.66335  0.83060  1.0000
  C   C12       1.0  0.05376  0.33663  0.16941  1.0000
  C   C13       1.0  0.90163  0.68452  0.03979  1.0000
  C   C14       1.0  0.09838  0.31547  0.96021  1.0000
  C   C15       1.0  0.84593  0.66723  0.91329  1.0000
  C   C16       1.0  0.15408  0.33277  0.08672  1.0000
  C   C17       1.0  0.20762  0.65760  0.78883  1.0000
  C   C18       1.0  0.79239  0.34241  0.21117  1.0000
  C   C19       1.0  0.61702  0.91201  0.66125  1.0000
  C   C20       1.0  0.38297  0.08799  0.33875  1.0000
  C   C21       1.0  0.64623  0.66212  0.00282  1.0000
  C   C22       1.0  0.35378  0.33787  0.99718  1.0000
  C   C23       1.0  0.71368  0.80989  0.53152  1.0000
  C   C24       1.0  0.28630  0.19010  0.46848  1.0000
  C   C25       1.0  0.52666  0.07795  0.76185  1.0000
  C   C26       1.0  0.47333  0.92206  0.23814  1.0000
  C   C27       1.0  0.10196  0.67329  0.87672  1.0000
  C   C28       1.0  0.89805  0.32671  0.12329  1.0000
  C   C29       1.0  0.05763  0.69565  0.08666  1.0000
  C   C30       1.0  0.94237  0.30435  0.91334  1.0000
  C   C31       1.0  0.15554  0.68862  0.00313  1.0000
  C   C32       1.0  0.84447  0.31138  0.99688  1.0000
  N   N1        1.0  0.68562  0.65294  0.89412  1.0000
  N   N2        1.0  0.31438  0.34705  0.10588  1.0000
  N   N3        1.0  0.63659  0.78472  0.62503  1.0000
  N   N4        1.0  0.36340  0.21528  0.37497  1.0000
  N   N5        1.0  0.74735  0.94835  0.50525  1.0000
  N   N6        1.0  0.25265  0.05165  0.49474  1.0000
  N   N7        1.0  0.77155  0.68261  0.09258  1.0000
  N   N8        1.0  0.22846  0.31739  0.90742  1.0000
  O   O1        1.0  0.45671  0.33138  0.75652  1.0000
  O   O2        1.0  0.54329  0.66862  0.24347  1.0000
  O   O3        1.0  0.28661  0.50163  0.56975  1.0000
  O   O4        1.0  0.71339  0.49839  0.43025  1.0000
  O   O5        1.0  0.16188  0.66411  0.67691  1.0000
  O   O6        1.0  0.83814  0.33589  0.32309  1.0000
  O   O7        1.0  0.64329  0.42793  0.64562  1.0000
  O   O8        1.0  0.35671  0.57207  0.35438  1.0000
  O   O9        1.0  0.33712  0.63527  0.83340  1.0000
  O   O10       1.0  0.66289  0.36473  0.16661  1.0000
