data_image0
_chemical_formula_structural       Ag2H8C12N10
_chemical_formula_sum              "Ag2 H8 C12 N10"
_cell_length_a       4.77913
_cell_length_b       8.89781
_cell_length_c       9.33467
_cell_angle_alpha    64.5424
_cell_angle_beta     87.4511
_cell_angle_gamma    79.8375

_space_group_name_H-M_alt    "P 1"
_space_group_IT_number       1

loop_
  _space_group_symop_operation_xyz
  'x, y, z'

loop_
  _atom_site_type_symbol
  _atom_site_label
  _atom_site_symmetry_multiplicity
  _atom_site_fract_x
  _atom_site_fract_y
  _atom_site_fract_z
  _atom_site_occupancy
  Ag  Ag1       1.0  0.20677  0.71444  0.45328  1.0000
  Ag  Ag2       1.0  0.79323  0.28556  0.54672  1.0000
  H   H1        1.0  0.37546  0.59044  0.00700  1.0000
  H   H2        1.0  0.62454  0.40957  0.99301  1.0000
  H   H3        1.0  0.57468  0.73684  0.73751  1.0000
  H   H4        1.0  0.42531  0.26316  0.26249  1.0000
  H   H5        1.0  0.30777  0.02181  0.54995  1.0000
  H   H6        1.0  0.69222  0.97818  0.45006  1.0000
  H   H7        1.0  0.68412  0.01188  0.87543  1.0000
  H   H8        1.0  0.31587  0.98811  0.12457  1.0000
  C   C1        1.0  0.88336  0.70191  0.11116  1.0000
  C   C2        1.0  0.11664  0.29810  0.88885  1.0000
  C   C3        1.0  0.01323  0.78724  0.95990  1.0000
  C   C4        1.0  0.98680  0.21274  0.04012  1.0000
  C   C5        1.0  0.26797  0.71206  0.92008  1.0000
  C   C6        1.0  0.73201  0.28793  0.07992  1.0000
  C   C7        1.0  0.37792  0.79437  0.77154  1.0000
  C   C8        1.0  0.62207  0.20562  0.22845  1.0000
  C   C9        1.0  0.23139  0.95166  0.66754  1.0000
  C   C10       1.0  0.76860  0.04835  0.33245  1.0000
  C   C11       1.0  0.88117  0.94678  0.84907  1.0000
  C   C12       1.0  0.11886  0.05322  0.15094  1.0000
  N   N1        1.0  0.65633  0.77584  0.16356  1.0000
  N   N2        1.0  0.34369  0.22416  0.83644  1.0000
  N   N3        1.0  0.60142  0.65693  0.30276  1.0000
  N   N4        1.0  0.39859  0.34308  0.69724  1.0000
  N   N5        1.0  0.78912  0.51480  0.33347  1.0000
  N   N6        1.0  0.21089  0.48521  0.66653  1.0000
  N   N7        1.0  0.96940  0.53920  0.21511  1.0000
  N   N8        1.0  0.03060  0.46081  0.78489  1.0000
  N   N9        1.0  0.98841  0.02743  0.70567  1.0000
  N   N10       1.0  0.01156  0.97256  0.29433  1.0000
