data_image0
_chemical_formula_structural       Cd2H52C44N8O8
_chemical_formula_sum              "Cd2 H52 C44 N8 O8"
_cell_length_a       7.60613
_cell_length_b       9.99876
_cell_length_c       15.0128
_cell_angle_alpha    89.9999
_cell_angle_beta     90.0003
_cell_angle_gamma    102.969

_space_group_name_H-M_alt    "P 1"
_space_group_IT_number       1

loop_
  _space_group_symop_operation_xyz
  'x, y, z'

loop_
  _atom_site_type_symbol
  _atom_site_label
  _atom_site_symmetry_multiplicity
  _atom_site_fract_x
  _atom_site_fract_y
  _atom_site_fract_z
  _atom_site_occupancy
  Cd  Cd1       1.0  0.25985  0.85893  0.55561  1.0000
  Cd  Cd2       1.0  0.74016  0.14107  0.05561  1.0000
  H   H1        1.0  0.24857  0.66479  0.38264  1.0000
  H   H2        1.0  0.75143  0.33521  0.88264  1.0000
  H   H3        1.0  0.00837  0.63590  0.24036  1.0000
  H   H4        1.0  0.99162  0.36410  0.74036  1.0000
  H   H5        1.0  0.75137  0.91144  0.46928  1.0000
  H   H6        1.0  0.24863  0.08857  0.96928  1.0000
  H   H7        1.0  0.83120  0.02549  0.38012  1.0000
  H   H8        1.0  0.16881  0.97451  0.88011  1.0000
  H   H9        1.0  0.96699  0.02816  0.47670  1.0000
  H   H10       1.0  0.03302  0.97185  0.97670  1.0000
  H   H11       1.0  0.73839  0.90464  0.26180  1.0000
  H   H12       1.0  0.26161  0.09536  0.76180  1.0000
  H   H13       1.0  0.78641  0.77631  0.19142  1.0000
  H   H14       1.0  0.21358  0.22369  0.69142  1.0000
  H   H15       1.0  0.47235  0.71449  0.24996  1.0000
  H   H16       1.0  0.52765  0.28551  0.74996  1.0000
  H   H17       1.0  0.55352  0.72750  0.36092  1.0000
  H   H18       1.0  0.44648  0.27250  0.86092  1.0000
  H   H19       1.0  0.64167  0.52525  0.22282  1.0000
  H   H20       1.0  0.35834  0.47474  0.72282  1.0000
  H   H21       1.0  0.70053  0.53228  0.33701  1.0000
  H   H22       1.0  0.29948  0.46772  0.83701  1.0000
  H   H23       1.0  0.37363  0.47250  0.37851  1.0000
  H   H24       1.0  0.62637  0.52750  0.87851  1.0000
  H   H25       1.0  0.31432  0.46518  0.26441  1.0000
  H   H26       1.0  0.68569  0.53482  0.76441  1.0000
  H   H27       1.0  0.54602  0.28533  0.35138  1.0000
  H   H28       1.0  0.45398  0.71467  0.85138  1.0000
  H   H29       1.0  0.46351  0.27086  0.24086  1.0000
  H   H30       1.0  0.53649  0.72914  0.74087  1.0000
  H   H31       1.0  0.28140  0.09214  0.33798  1.0000
  H   H32       1.0  0.71861  0.90786  0.83798  1.0000
  H   H33       1.0  0.23680  0.21646  0.41232  1.0000
  H   H34       1.0  0.76321  0.78353  0.91232  1.0000
  H   H35       1.0  0.01260  0.36032  0.36888  1.0000
  H   H36       1.0  0.98740  0.63968  0.86888  1.0000
  H   H37       1.0  0.77004  0.33983  0.22796  1.0000
  H   H38       1.0  0.22996  0.66017  0.72796  1.0000
  H   H39       1.0  0.03822  0.97405  0.12614  1.0000
  H   H40       1.0  0.96177  0.02595  0.62613  1.0000
  H   H41       1.0  0.18590  0.97655  0.21830  1.0000
  H   H42       1.0  0.81409  0.02344  0.71830  1.0000
  H   H43       1.0  0.25325  0.09040  0.12833  1.0000
  H   H44       1.0  0.74674  0.90959  0.62833  1.0000
  H   H45       1.0  0.79832  0.66118  0.54171  1.0000
  H   H46       1.0  0.20168  0.33882  0.04171  1.0000
  H   H47       1.0  0.96275  0.47307  0.55193  1.0000
  H   H48       1.0  0.03725  0.52692  0.05193  1.0000
  H   H49       1.0  0.78667  0.22774  0.56306  1.0000
  H   H50       1.0  0.21332  0.77226  0.06306  1.0000
  H   H51       1.0  0.29216  0.36679  0.55528  1.0000
  H   H52       1.0  0.70784  0.63322  0.05528  1.0000
  C   C1        1.0  0.14103  0.71655  0.36911  1.0000
  C   C2        1.0  0.85896  0.28345  0.86912  1.0000
  C   C3        1.0  0.02335  0.70084  0.29893  1.0000
  C   C4        1.0  0.97664  0.29916  0.79893  1.0000
  C   C5        1.0  0.96311  0.85828  0.39235  1.0000
  C   C6        1.0  0.03689  0.14172  0.89235  1.0000
  C   C7        1.0  0.87287  0.96129  0.43180  1.0000
  C   C8        1.0  0.12713  0.03871  0.93180  1.0000
  C   C9        1.0  0.75488  0.79835  0.26044  1.0000
  C   C10       1.0  0.24512  0.20165  0.76044  1.0000
  C   C11       1.0  0.58380  0.69910  0.29268  1.0000
  C   C12       1.0  0.41620  0.30089  0.79268  1.0000
  C   C13       1.0  0.59670  0.54882  0.28969  1.0000
  C   C14       1.0  0.40331  0.45118  0.78969  1.0000
  C   C15       1.0  0.41859  0.44918  0.31161  1.0000
  C   C16       1.0  0.58141  0.55082  0.81161  1.0000
  C   C17       1.0  0.43301  0.29913  0.30916  1.0000
  C   C18       1.0  0.56699  0.70086  0.80916  1.0000
  C   C19       1.0  0.26424  0.19810  0.34216  1.0000
  C   C20       1.0  0.73576  0.80190  0.84216  1.0000
  C   C21       1.0  0.99479  0.29731  0.30944  1.0000
  C   C22       1.0  0.00521  0.70269  0.80943  1.0000
  C   C23       1.0  0.87451  0.28481  0.24051  1.0000
  C   C24       1.0  0.12549  0.71519  0.74050  1.0000
  C   C25       1.0  0.04943  0.14258  0.21245  1.0000
  C   C26       1.0  0.95057  0.85742  0.71245  1.0000
  C   C27       1.0  0.13669  0.04088  0.16924  1.0000
  C   C28       1.0  0.86331  0.95912  0.66924  1.0000
  C   C29       1.0  0.43028  0.63633  0.54766  1.0000
  C   C30       1.0  0.56973  0.36368  0.04766  1.0000
  C   C31       1.0  0.53470  0.52565  0.54908  1.0000
  C   C32       1.0  0.46530  0.47436  0.04908  1.0000
  C   C33       1.0  0.72373  0.55490  0.54683  1.0000
  C   C34       1.0  0.27627  0.44510  0.04683  1.0000
  C   C35       1.0  0.81538  0.44843  0.55211  1.0000
  C   C36       1.0  0.18462  0.55157  0.05211  1.0000
  C   C37       1.0  0.71821  0.31240  0.55834  1.0000
  C   C38       1.0  0.28178  0.68760  0.05834  1.0000
  C   C39       1.0  0.52861  0.28199  0.55840  1.0000
  C   C40       1.0  0.47138  0.71801  0.05840  1.0000
  C   C41       1.0  0.43894  0.38919  0.55420  1.0000
  C   C42       1.0  0.56106  0.61082  0.05420  1.0000
  C   C43       1.0  0.41999  0.13715  0.56308  1.0000
  C   C44       1.0  0.57999  0.86285  0.06308  1.0000
  N   N1        1.0  0.10371  0.81474  0.42649  1.0000
  N   N2        1.0  0.89630  0.18526  0.92648  1.0000
  N   N3        1.0  0.91196  0.79042  0.31443  1.0000
  N   N4        1.0  0.08804  0.20958  0.81443  1.0000
  N   N5        1.0  0.10447  0.20753  0.29089  1.0000
  N   N6        1.0  0.89553  0.79247  0.79089  1.0000
  N   N7        1.0  0.90825  0.18806  0.18102  1.0000
  N   N8        1.0  0.09174  0.81194  0.68102  1.0000
  O   O1        1.0  0.26335  0.60452  0.56722  1.0000
  O   O2        1.0  0.73666  0.39549  0.06722  1.0000
  O   O3        1.0  0.51257  0.75895  0.52762  1.0000
  O   O4        1.0  0.48745  0.24106  0.02761  1.0000
  O   O5        1.0  0.50232  0.04212  0.58090  1.0000
  O   O6        1.0  0.49767  0.95788  0.08090  1.0000
  O   O7        1.0  0.25063  0.11375  0.54842  1.0000
  O   O8        1.0  0.74936  0.88626  0.04842  1.0000
