data_image0
_chemical_formula_structural       Zn2H46C30N4O8
_chemical_formula_sum              "Zn2 H46 C30 N4 O8"
_cell_length_a       8.58013
_cell_length_b       8.86999
_cell_length_c       10.8764
_cell_angle_alpha    93.3444
_cell_angle_beta     92.5828
_cell_angle_gamma    105.677

_space_group_name_H-M_alt    "P 1"
_space_group_IT_number       1

loop_
  _space_group_symop_operation_xyz
  'x, y, z'

loop_
  _atom_site_type_symbol
  _atom_site_label
  _atom_site_symmetry_multiplicity
  _atom_site_fract_x
  _atom_site_fract_y
  _atom_site_fract_z
  _atom_site_occupancy
  Zn  Zn1       1.0  0.99169  0.95095  0.62522  1.0000
  Zn  Zn2       1.0  0.00830  0.04905  0.37478  1.0000
  H   H1        1.0  0.12310  0.70254  0.76229  1.0000
  H   H2        1.0  0.87691  0.29746  0.23771  1.0000
  H   H3        1.0  0.22307  0.87694  0.85268  1.0000
  H   H4        1.0  0.77693  0.12305  0.14731  1.0000
  H   H5        1.0  0.13023  0.73050  0.02962  1.0000
  H   H6        1.0  0.86978  0.26951  0.97038  1.0000
  H   H7        1.0  0.98500  0.58335  0.93429  1.0000
  H   H8        1.0  0.01501  0.41665  0.06571  1.0000
  H   H9        1.0  0.77499  0.03072  0.80623  1.0000
  H   H10       1.0  0.22501  0.96927  0.19377  1.0000
  H   H11       1.0  0.70969  0.97307  0.95553  1.0000
  H   H12       1.0  0.29031  0.02692  0.04446  1.0000
  H   H13       1.0  0.63651  0.84560  0.82109  1.0000
  H   H14       1.0  0.36349  0.15439  0.17890  1.0000
  H   H15       1.0  0.76815  0.85857  0.10760  1.0000
  H   H16       1.0  0.23186  0.14143  0.89240  1.0000
  H   H17       1.0  0.91908  0.78074  0.16973  1.0000
  H   H18       1.0  0.08092  0.21925  0.83027  1.0000
  H   H19       1.0  0.65962  0.59575  0.18740  1.0000
  H   H20       1.0  0.34037  0.40425  0.81259  1.0000
  H   H21       1.0  0.76395  0.51052  0.07992  1.0000
  H   H22       1.0  0.23605  0.48947  0.92007  1.0000
  H   H23       1.0  0.50039  0.67330  0.01465  1.0000
  H   H24       1.0  0.49961  0.32670  0.98534  1.0000
  H   H25       1.0  0.60689  0.59224  0.90554  1.0000
  H   H26       1.0  0.39311  0.40776  0.09445  1.0000
  H   H27       1.0  0.44727  0.38432  0.61568  1.0000
  H   H28       1.0  0.55273  0.61569  0.38433  1.0000
  H   H29       1.0  0.59547  0.19425  0.43428  1.0000
  H   H30       1.0  0.40453  0.80575  0.56572  1.0000
  H   H31       1.0  0.50209  0.34178  0.39757  1.0000
  H   H32       1.0  0.49790  0.65822  0.60243  1.0000
  H   H33       1.0  0.71313  0.54230  0.53067  1.0000
  H   H34       1.0  0.28687  0.45770  0.46933  1.0000
  H   H35       1.0  0.80643  0.44682  0.42095  1.0000
  H   H36       1.0  0.19357  0.55318  0.57904  1.0000
  H   H37       1.0  0.94009  0.48453  0.63302  1.0000
  H   H38       1.0  0.05991  0.51548  0.36698  1.0000
  H   H39       1.0  0.80060  0.31763  0.79662  1.0000
  H   H40       1.0  0.19940  0.68236  0.20338  1.0000
  H   H41       1.0  0.70556  0.46320  0.75442  1.0000
  H   H42       1.0  0.29444  0.53680  0.24558  1.0000
  H   H43       1.0  0.49703  0.20686  0.77166  1.0000
  H   H44       1.0  0.50297  0.79314  0.22834  1.0000
  H   H45       1.0  0.59407  0.11345  0.66349  1.0000
  H   H46       1.0  0.40593  0.88656  0.33651  1.0000
  C   C1        1.0  0.10570  0.78706  0.83442  1.0000
  C   C2        1.0  0.89430  0.21294  0.16558  1.0000
  C   C3        1.0  0.03939  0.71093  0.95169  1.0000
  C   C4        1.0  0.96061  0.28907  0.04832  1.0000
  C   C5        1.0  0.88139  0.86185  0.87869  1.0000
  C   C6        1.0  0.11862  0.13814  0.12131  1.0000
  C   C7        1.0  0.74321  0.93297  0.86590  1.0000
  C   C8        1.0  0.25680  0.06702  0.13409  1.0000
  C   C9        1.0  0.82798  0.76492  0.09235  1.0000
  C   C10       1.0  0.17202  0.23507  0.90765  1.0000
  C   C11       1.0  0.70375  0.60489  0.09385  1.0000
  C   C12       1.0  0.29625  0.39510  0.90615  1.0000
  C   C13       1.0  0.56153  0.57979  0.99869  1.0000
  C   C14       1.0  0.43847  0.42021  0.00130  1.0000
  C   C15       1.0  0.30430  0.15930  0.55490  1.0000
  C   C16       1.0  0.69569  0.84072  0.44510  1.0000
  C   C17       1.0  0.47293  0.27271  0.58444  1.0000
  C   C18       1.0  0.52707  0.72730  0.41556  1.0000
  C   C19       1.0  0.57304  0.30462  0.47077  1.0000
  C   C20       1.0  0.42696  0.69538  0.52923  1.0000
  C   C21       1.0  0.73451  0.42874  0.50252  1.0000
  C   C22       1.0  0.26549  0.57127  0.49748  1.0000
  C   C23       1.0  0.83262  0.38410  0.60899  1.0000
  C   C24       1.0  0.16738  0.61590  0.39101  1.0000
  C   C25       1.0  0.73053  0.35247  0.72170  1.0000
  C   C26       1.0  0.26947  0.64753  0.27830  1.0000
  C   C27       1.0  0.56986  0.22632  0.69055  1.0000
  C   C28       1.0  0.43014  0.77368  0.30945  1.0000
  C   C29       1.0  0.90103  0.24658  0.57141  1.0000
  C   C30       1.0  0.09896  0.75342  0.42859  1.0000
  N   N1        1.0  0.98222  0.86303  0.79151  1.0000
  N   N2        1.0  0.01779  0.13696  0.20849  1.0000
  N   N3        1.0  0.91315  0.78886  0.97944  1.0000
  N   N4        1.0  0.08685  0.21114  0.02056  1.0000
  O   O1        1.0  0.23415  0.08433  0.64241  1.0000
  O   O2        1.0  0.76585  0.91567  0.35759  1.0000
  O   O3        1.0  0.24350  0.15316  0.44519  1.0000
  O   O4        1.0  0.75649  0.84686  0.55482  1.0000
  O   O5        1.0  0.93249  0.23038  0.45939  1.0000
  O   O6        1.0  0.06749  0.76961  0.54061  1.0000
  O   O7        1.0  0.92528  0.15959  0.65561  1.0000
  O   O8        1.0  0.07473  0.84042  0.34440  1.0000
