data_image0
_chemical_formula_structural       Cd2H60C56N8O10
_chemical_formula_sum              "Cd2 H60 C56 N8 O10"
_cell_length_a       10.6303
_cell_length_b       10.6303
_cell_length_c       13.5522
_cell_angle_alpha    102.845
_cell_angle_beta     102.845
_cell_angle_gamma    108.931

_space_group_name_H-M_alt    "P 1"
_space_group_IT_number       1

loop_
  _space_group_symop_operation_xyz
  'x, y, z'

loop_
  _atom_site_type_symbol
  _atom_site_label
  _atom_site_symmetry_multiplicity
  _atom_site_fract_x
  _atom_site_fract_y
  _atom_site_fract_z
  _atom_site_occupancy
  Cd  Cd1       1.0  0.86698  0.13302  0.75000  1.0000
  Cd  Cd2       1.0  0.13302  0.86698  0.25000  1.0000
  H   H1        1.0  0.93231  0.83054  0.44722  1.0000
  H   H2        1.0  0.16946  0.06770  0.05278  1.0000
  H   H3        1.0  0.06770  0.16946  0.55279  1.0000
  H   H4        1.0  0.83054  0.93230  0.94722  1.0000
  H   H5        1.0  0.85667  0.60111  0.30313  1.0000
  H   H6        1.0  0.39890  0.14333  0.19687  1.0000
  H   H7        1.0  0.14333  0.39890  0.69687  1.0000
  H   H8        1.0  0.60111  0.85667  0.80313  1.0000
  H   H9        1.0  0.53890  0.68198  0.50772  1.0000
  H   H10       1.0  0.31802  0.46110  0.99227  1.0000
  H   H11       1.0  0.46110  0.31802  0.49228  1.0000
  H   H12       1.0  0.68198  0.53890  0.00773  1.0000
  H   H13       1.0  0.78392  0.18447  0.98860  1.0000
  H   H14       1.0  0.81553  0.21608  0.51140  1.0000
  H   H15       1.0  0.21608  0.81553  0.01140  1.0000
  H   H16       1.0  0.18447  0.78392  0.48860  1.0000
  H   H17       1.0  0.52855  0.19993  0.99623  1.0000
  H   H18       1.0  0.80007  0.47145  0.50378  1.0000
  H   H19       1.0  0.47145  0.80007  0.00378  1.0000
  H   H20       1.0  0.19993  0.52855  0.49623  1.0000
  H   H21       1.0  0.46150  0.45334  0.36293  1.0000
  H   H22       1.0  0.54665  0.53850  0.13706  1.0000
  H   H23       1.0  0.53850  0.54666  0.63707  1.0000
  H   H24       1.0  0.45334  0.46150  0.86293  1.0000
  H   H25       1.0  0.32872  0.19356  0.86763  1.0000
  H   H26       1.0  0.80644  0.67128  0.63237  1.0000
  H   H27       1.0  0.67128  0.80644  0.13237  1.0000
  H   H28       1.0  0.19356  0.32872  0.36763  1.0000
  H   H29       1.0  0.34675  0.22473  0.74780  1.0000
  H   H30       1.0  0.77527  0.65325  0.75220  1.0000
  H   H31       1.0  0.65325  0.77527  0.25220  1.0000
  H   H32       1.0  0.22473  0.34675  0.24780  1.0000
  H   H33       1.0  0.13218  0.01604  0.72582  1.0000
  H   H34       1.0  0.98396  0.86782  0.77418  1.0000
  H   H35       1.0  0.86782  0.98396  0.27418  1.0000
  H   H36       1.0  0.01604  0.13218  0.22582  1.0000
  H   H37       1.0  0.23142  0.97698  0.64615  1.0000
  H   H38       1.0  0.02302  0.76858  0.85385  1.0000
  H   H39       1.0  0.76858  0.02302  0.35385  1.0000
  H   H40       1.0  0.97698  0.23142  0.14615  1.0000
  H   H41       1.0  0.26527  0.92582  0.86290  1.0000
  H   H42       1.0  0.07418  0.73473  0.63710  1.0000
  H   H43       1.0  0.73473  0.07418  0.13710  1.0000
  H   H44       1.0  0.92582  0.26527  0.36290  1.0000
  H   H45       1.0  0.33458  0.86700  0.76378  1.0000
  H   H46       1.0  0.13300  0.66542  0.73622  1.0000
  H   H47       1.0  0.66542  0.13300  0.23622  1.0000
  H   H48       1.0  0.86700  0.33458  0.26378  1.0000
  H   H49       1.0  0.58294  0.17996  0.61885  1.0000
  H   H50       1.0  0.82004  0.41705  0.88115  1.0000
  H   H51       1.0  0.41706  0.82004  0.38115  1.0000
  H   H52       1.0  0.17996  0.58294  0.11885  1.0000
  H   H53       1.0  0.40914  0.08366  0.61282  1.0000
  H   H54       1.0  0.91634  0.59086  0.88718  1.0000
  H   H55       1.0  0.59086  0.91634  0.38718  1.0000
  H   H56       1.0  0.08366  0.40914  0.11282  1.0000
  H   H57       1.0  0.52888  0.99904  0.60527  1.0000
  H   H58       1.0  0.00096  0.47112  0.89473  1.0000
  H   H59       1.0  0.47112  0.00096  0.39473  1.0000
  H   H60       1.0  0.99904  0.52888  0.10527  1.0000
  C   C1        1.0  0.74080  0.76840  0.48706  1.0000
  C   C2        1.0  0.23160  0.25920  0.01293  1.0000
  C   C3        1.0  0.25920  0.23160  0.51293  1.0000
  C   C4        1.0  0.76840  0.74080  0.98707  1.0000
  C   C5        1.0  0.78642  0.89992  0.57803  1.0000
  C   C6        1.0  0.10008  0.21358  0.92197  1.0000
  C   C7        1.0  0.21359  0.10008  0.42197  1.0000
  C   C8        1.0  0.89992  0.78642  0.07803  1.0000
  C   C9        1.0  0.83070  0.74608  0.42977  1.0000
  C   C10       1.0  0.25392  0.16930  0.07023  1.0000
  C   C11       1.0  0.16931  0.25392  0.57023  1.0000
  C   C12       1.0  0.74608  0.83069  0.92977  1.0000
  C   C13       1.0  0.78893  0.61844  0.34969  1.0000
  C   C14       1.0  0.38156  0.21107  0.15031  1.0000
  C   C15       1.0  0.21107  0.38156  0.65031  1.0000
  C   C16       1.0  0.61844  0.78893  0.84969  1.0000
  C   C17       1.0  0.56622  0.12964  0.76105  1.0000
  C   C18       1.0  0.87036  0.43378  0.73895  1.0000
  C   C19       1.0  0.43378  0.87036  0.23895  1.0000
  C   C20       1.0  0.12964  0.56622  0.26105  1.0000
  C   C21       1.0  0.65618  0.51466  0.32718  1.0000
  C   C22       1.0  0.48534  0.34382  0.17282  1.0000
  C   C23       1.0  0.34382  0.48534  0.67282  1.0000
  C   C24       1.0  0.51466  0.65618  0.82718  1.0000
  C   C25       1.0  0.60713  0.66294  0.46218  1.0000
  C   C26       1.0  0.33706  0.39286  0.03782  1.0000
  C   C27       1.0  0.39287  0.33706  0.53782  1.0000
  C   C28       1.0  0.66294  0.60714  0.96218  1.0000
  C   C29       1.0  0.69346  0.17141  0.92512  1.0000
  C   C30       1.0  0.82859  0.30653  0.57488  1.0000
  C   C31       1.0  0.30654  0.82859  0.07488  1.0000
  C   C32       1.0  0.17141  0.69347  0.42512  1.0000
  C   C33       1.0  0.56867  0.17953  0.93015  1.0000
  C   C34       1.0  0.82047  0.43133  0.56985  1.0000
  C   C35       1.0  0.43133  0.82047  0.06985  1.0000
  C   C36       1.0  0.17952  0.56867  0.43015  1.0000
  C   C37       1.0  0.56430  0.53644  0.38236  1.0000
  C   C38       1.0  0.46356  0.43570  0.11763  1.0000
  C   C39       1.0  0.43570  0.46356  0.61764  1.0000
  C   C40       1.0  0.53644  0.56430  0.88237  1.0000
  C   C41       1.0  0.34775  0.15150  0.79352  1.0000
  C   C42       1.0  0.84850  0.65225  0.70648  1.0000
  C   C43       1.0  0.65225  0.84850  0.20648  1.0000
  C   C44       1.0  0.15150  0.34775  0.29352  1.0000
  C   C45       1.0  0.23298  0.00628  0.72976  1.0000
  C   C46       1.0  0.99373  0.76702  0.77024  1.0000
  C   C47       1.0  0.76702  0.99373  0.27024  1.0000
  C   C48       1.0  0.00627  0.23298  0.22976  1.0000
  C   C49       1.0  0.24419  0.88990  0.77568  1.0000
  C   C50       1.0  0.11010  0.75581  0.72432  1.0000
  C   C51       1.0  0.75581  0.11010  0.22432  1.0000
  C   C52       1.0  0.88990  0.24419  0.27568  1.0000
  C   C53       1.0  0.51823  0.09619  0.64306  1.0000
  C   C54       1.0  0.90381  0.48177  0.85694  1.0000
  C   C55       1.0  0.48177  0.90382  0.35694  1.0000
  C   C56       1.0  0.09619  0.51823  0.14306  1.0000
  N   N1        1.0  0.69069  0.14041  0.82006  1.0000
  N   N2        1.0  0.85959  0.30931  0.67994  1.0000
  N   N3        1.0  0.30931  0.85959  0.17994  1.0000
  N   N4        1.0  0.14041  0.69069  0.32007  1.0000
  N   N5        1.0  0.48969  0.15365  0.82612  1.0000
  N   N6        1.0  0.84635  0.51031  0.67388  1.0000
  N   N7        1.0  0.51031  0.84635  0.17388  1.0000
  N   N8        1.0  0.15365  0.48969  0.32612  1.0000
  O   O1        1.0  0.61464  0.38536  0.25000  1.0000
  O   O2        1.0  0.38536  0.61464  0.75000  1.0000
  O   O3        1.0  0.90280  0.00143  0.59689  1.0000
  O   O4        1.0  0.99857  0.09720  0.90311  1.0000
  O   O5        1.0  0.09720  0.99857  0.40311  1.0000
  O   O6        1.0  0.00143  0.90280  0.09689  1.0000
  O   O7        1.0  0.70696  0.90406  0.63605  1.0000
  O   O8        1.0  0.09593  0.29304  0.86395  1.0000
  O   O9        1.0  0.29305  0.09594  0.36395  1.0000
  O   O10       1.0  0.90406  0.70696  0.13605  1.0000
