data_image0
_chemical_formula_structural       Zn2H60C56N8O10
_chemical_formula_sum              "Zn2 H60 C56 N8 O10"
_cell_length_a       10.6499
_cell_length_b       10.6499
_cell_length_c       13.6907
_cell_angle_alpha    104.813
_cell_angle_beta     104.814
_cell_angle_gamma    108.006

_space_group_name_H-M_alt    "P 1"
_space_group_IT_number       1

loop_
  _space_group_symop_operation_xyz
  'x, y, z'

loop_
  _atom_site_type_symbol
  _atom_site_label
  _atom_site_symmetry_multiplicity
  _atom_site_fract_x
  _atom_site_fract_y
  _atom_site_fract_z
  _atom_site_occupancy
  Zn  Zn1       1.0  0.64506  0.35494  0.75000  1.0000
  Zn  Zn2       1.0  0.35494  0.64506  0.25000  1.0000
  H   H1        1.0  0.69545  0.06167  0.00670  1.0000
  H   H2        1.0  0.93833  0.30455  0.49330  1.0000
  H   H3        1.0  0.30455  0.93833  0.99330  1.0000
  H   H4        1.0  0.06167  0.69545  0.50670  1.0000
  H   H5        1.0  0.68725  0.31423  0.98665  1.0000
  H   H6        1.0  0.68577  0.31275  0.51334  1.0000
  H   H7        1.0  0.31275  0.68577  0.01335  1.0000
  H   H8        1.0  0.31423  0.68725  0.48665  1.0000
  H   H9        1.0  0.20620  0.05948  0.51916  1.0000
  H   H10       1.0  0.94052  0.79379  0.98084  1.0000
  H   H11       1.0  0.79380  0.94052  0.48084  1.0000
  H   H12       1.0  0.05948  0.20620  0.01916  1.0000
  H   H13       1.0  0.96925  0.96823  0.37027  1.0000
  H   H14       1.0  0.03178  0.03074  0.12973  1.0000
  H   H15       1.0  0.03074  0.03178  0.62973  1.0000
  H   H16       1.0  0.96822  0.96926  0.87027  1.0000
  H   H17       1.0  0.10393  0.35114  0.30189  1.0000
  H   H18       1.0  0.64887  0.89607  0.19811  1.0000
  H   H19       1.0  0.89607  0.64886  0.69811  1.0000
  H   H20       1.0  0.35114  0.10393  0.80189  1.0000
  H   H21       1.0  0.72341  0.85356  0.76679  1.0000
  H   H22       1.0  0.14644  0.27659  0.73321  1.0000
  H   H23       1.0  0.27659  0.14644  0.23321  1.0000
  H   H24       1.0  0.85356  0.72341  0.26679  1.0000
  H   H25       1.0  0.68746  0.84798  0.88523  1.0000
  H   H26       1.0  0.15201  0.31254  0.61478  1.0000
  H   H27       1.0  0.31254  0.15201  0.11477  1.0000
  H   H28       1.0  0.84799  0.68746  0.38523  1.0000
  H   H29       1.0  0.34047  0.44030  0.45006  1.0000
  H   H30       1.0  0.55970  0.65953  0.04994  1.0000
  H   H31       1.0  0.65953  0.55970  0.54994  1.0000
  H   H32       1.0  0.44030  0.34047  0.95006  1.0000
  H   H33       1.0  0.67282  0.96472  0.62882  1.0000
  H   H34       1.0  0.03528  0.32718  0.87117  1.0000
  H   H35       1.0  0.32718  0.03528  0.37118  1.0000
  H   H36       1.0  0.96473  0.67282  0.12883  1.0000
  H   H37       1.0  0.59847  0.08945  0.60971  1.0000
  H   H38       1.0  0.91055  0.40153  0.89029  1.0000
  H   H39       1.0  0.40153  0.91055  0.39029  1.0000
  H   H40       1.0  0.08945  0.59847  0.10971  1.0000
  H   H41       1.0  0.49079  0.92361  0.60634  1.0000
  H   H42       1.0  0.07639  0.50921  0.89366  1.0000
  H   H43       1.0  0.50921  0.07639  0.39366  1.0000
  H   H44       1.0  0.92361  0.49079  0.10634  1.0000
  H   H45       1.0  0.47289  0.73912  0.65381  1.0000
  H   H46       1.0  0.26088  0.52711  0.84619  1.0000
  H   H47       1.0  0.52711  0.26088  0.34619  1.0000
  H   H48       1.0  0.73912  0.47289  0.15381  1.0000
  H   H49       1.0  0.51354  0.64182  0.73246  1.0000
  H   H50       1.0  0.35818  0.48646  0.76754  1.0000
  H   H51       1.0  0.48646  0.35818  0.26754  1.0000
  H   H52       1.0  0.64182  0.51354  0.23246  1.0000
  H   H53       1.0  0.36120  0.84318  0.77059  1.0000
  H   H54       1.0  0.15683  0.63880  0.72941  1.0000
  H   H55       1.0  0.63879  0.15682  0.22941  1.0000
  H   H56       1.0  0.84317  0.36120  0.27059  1.0000
  H   H57       1.0  0.42014  0.77204  0.86741  1.0000
  H   H58       1.0  0.22796  0.57986  0.63259  1.0000
  H   H59       1.0  0.57986  0.22796  0.13259  1.0000
  H   H60       1.0  0.77203  0.42014  0.36741  1.0000
  C   C1        1.0  0.02377  0.15595  0.32946  1.0000
  C   C2        1.0  0.84406  0.97623  0.17054  1.0000
  C   C3        1.0  0.97623  0.84405  0.67054  1.0000
  C   C4        1.0  0.15595  0.02377  0.82946  1.0000
  C   C5        1.0  0.63186  0.07304  0.76457  1.0000
  C   C6        1.0  0.92696  0.36815  0.73543  1.0000
  C   C7        1.0  0.36815  0.92696  0.23543  1.0000
  C   C8        1.0  0.07304  0.63186  0.26457  1.0000
  C   C9        1.0  0.42593  0.31328  0.58548  1.0000
  C   C10       1.0  0.68672  0.57407  0.91452  1.0000
  C   C11       1.0  0.57407  0.68672  0.41452  1.0000
  C   C12       1.0  0.31328  0.42593  0.08548  1.0000
  C   C13       1.0  0.67796  0.09430  0.93740  1.0000
  C   C14       1.0  0.90569  0.32204  0.56260  1.0000
  C   C15       1.0  0.32204  0.90570  0.06260  1.0000
  C   C16       1.0  0.09431  0.67796  0.43740  1.0000
  C   C17       1.0  0.67470  0.21797  0.92652  1.0000
  C   C18       1.0  0.78203  0.32530  0.57348  1.0000
  C   C19       1.0  0.32530  0.78203  0.07348  1.0000
  C   C20       1.0  0.21797  0.67470  0.42652  1.0000
  C   C21       1.0  0.18233  0.12234  0.47120  1.0000
  C   C22       1.0  0.87766  0.81767  0.02880  1.0000
  C   C23       1.0  0.81767  0.87766  0.52880  1.0000
  C   C24       1.0  0.12234  0.18232  0.97120  1.0000
  C   C25       1.0  0.05116  0.07159  0.38873  1.0000
  C   C26       1.0  0.92841  0.94884  0.11127  1.0000
  C   C27       1.0  0.94884  0.92841  0.61127  1.0000
  C   C28       1.0  0.07159  0.05116  0.88873  1.0000
  C   C29       1.0  0.28612  0.25669  0.49489  1.0000
  C   C30       1.0  0.74331  0.71388  0.00511  1.0000
  C   C31       1.0  0.71388  0.74331  0.50511  1.0000
  C   C32       1.0  0.25669  0.28612  0.99489  1.0000
  C   C33       1.0  0.12592  0.28907  0.35112  1.0000
  C   C34       1.0  0.71094  0.87408  0.14888  1.0000
  C   C35       1.0  0.87408  0.71093  0.64888  1.0000
  C   C36       1.0  0.28907  0.12592  0.85112  1.0000
  C   C37       1.0  0.64787  0.86030  0.80763  1.0000
  C   C38       1.0  0.13970  0.35213  0.69237  1.0000
  C   C39       1.0  0.35213  0.13970  0.19236  1.0000
  C   C40       1.0  0.86030  0.64787  0.30763  1.0000
  C   C41       1.0  0.25719  0.33894  0.43408  1.0000
  C   C42       1.0  0.66107  0.74281  0.06592  1.0000
  C   C43       1.0  0.74281  0.66106  0.56592  1.0000
  C   C44       1.0  0.33894  0.25719  0.93408  1.0000
  C   C45       1.0  0.59737  0.00940  0.64628  1.0000
  C   C46       1.0  0.99060  0.40263  0.85372  1.0000
  C   C47       1.0  0.40263  0.99060  0.35372  1.0000
  C   C48       1.0  0.00940  0.59737  0.14628  1.0000
  C   C49       1.0  0.50201  0.74223  0.73776  1.0000
  C   C50       1.0  0.25777  0.49799  0.76224  1.0000
  C   C51       1.0  0.49799  0.25777  0.26224  1.0000
  C   C52       1.0  0.74223  0.50201  0.23776  1.0000
  C   C53       1.0  0.38403  0.75185  0.77961  1.0000
  C   C54       1.0  0.24816  0.61597  0.72039  1.0000
  C   C55       1.0  0.61597  0.24816  0.22039  1.0000
  C   C56       1.0  0.75184  0.38403  0.27961  1.0000
  N   N1        1.0  0.64672  0.20386  0.81925  1.0000
  N   N2        1.0  0.79614  0.35328  0.68074  1.0000
  N   N3        1.0  0.35329  0.79614  0.18075  1.0000
  N   N4        1.0  0.20386  0.64672  0.31926  1.0000
  N   N5        1.0  0.65143  0.00408  0.83475  1.0000
  N   N6        1.0  0.99592  0.34857  0.66525  1.0000
  N   N7        1.0  0.34857  0.99592  0.16525  1.0000
  N   N8        1.0  0.00408  0.65143  0.33475  1.0000
  O   O1        1.0  0.51623  0.43646  0.61047  1.0000
  O   O2        1.0  0.56353  0.48377  0.88952  1.0000
  O   O3        1.0  0.48377  0.56354  0.38953  1.0000
  O   O4        1.0  0.43647  0.51623  0.11047  1.0000
  O   O5        1.0  0.44820  0.23079  0.63653  1.0000
  O   O6        1.0  0.76921  0.55180  0.86347  1.0000
  O   O7        1.0  0.55181  0.76921  0.36347  1.0000
  O   O8        1.0  0.23079  0.44820  0.13653  1.0000
  O   O9        1.0  0.89077  0.10923  0.25000  1.0000
  O   O10       1.0  0.10923  0.89077  0.75000  1.0000
