data_image0
_chemical_formula_structural       Zn2H30C42S2N6O8
_chemical_formula_sum              "Zn2 H30 C42 S2 N6 O8"
_cell_length_a       5.11276
_cell_length_b       12.2779
_cell_length_c       15.2608
_cell_angle_alpha    90.0001
_cell_angle_beta     89.9999
_cell_angle_gamma    95.1655

_space_group_name_H-M_alt    "P 1"
_space_group_IT_number       1

loop_
  _space_group_symop_operation_xyz
  'x, y, z'

loop_
  _atom_site_type_symbol
  _atom_site_label
  _atom_site_symmetry_multiplicity
  _atom_site_fract_x
  _atom_site_fract_y
  _atom_site_fract_z
  _atom_site_occupancy
  Zn  Zn1       1.0  0.76471  0.74445  0.05095  1.0000
  Zn  Zn2       1.0  0.23530  0.25554  0.55094  1.0000
  H   H1        1.0  0.05859  0.53104  0.02203  1.0000
  H   H2        1.0  0.94140  0.46896  0.52203  1.0000
  H   H3        1.0  0.14772  0.36559  0.11274  1.0000
  H   H4        1.0  0.85227  0.63441  0.61275  1.0000
  H   H5        1.0  0.88391  0.32868  0.25259  1.0000
  H   H6        1.0  0.11610  0.67131  0.75260  1.0000
  H   H7        1.0  0.54120  0.44866  0.29021  1.0000
  H   H8        1.0  0.45883  0.55134  0.79020  1.0000
  H   H9        1.0  0.21034  0.55806  0.29661  1.0000
  H   H10       1.0  0.78964  0.44193  0.79661  1.0000
  H   H11       1.0  0.14549  0.90516  0.26603  1.0000
  H   H12       1.0  0.85450  0.09483  0.76603  1.0000
  H   H13       1.0  0.41858  0.05071  0.24149  1.0000
  H   H14       1.0  0.58140  0.94929  0.74150  1.0000
  H   H15       1.0  0.68753  0.20709  0.17764  1.0000
  H   H16       1.0  0.31245  0.79291  0.67765  1.0000
  H   H17       1.0  0.00226  0.17490  0.05434  1.0000
  H   H18       1.0  0.99775  0.82510  0.55434  1.0000
  H   H19       1.0  0.01878  0.98190  0.99899  1.0000
  H   H20       1.0  0.98126  0.01809  0.49897  1.0000
  H   H21       1.0  0.87040  0.89834  0.35329  1.0000
  H   H22       1.0  0.12959  0.10166  0.85329  1.0000
  H   H23       1.0  0.51029  0.88555  0.45841  1.0000
  H   H24       1.0  0.48972  0.11446  0.95840  1.0000
  H   H25       1.0  0.34021  0.70434  0.52059  1.0000
  H   H26       1.0  0.65980  0.29567  0.02057  1.0000
  H   H27       1.0  0.54883  0.53634  0.47629  1.0000
  H   H28       1.0  0.45117  0.46367  0.97629  1.0000
  H   H29       1.0  0.91799  0.54801  0.37689  1.0000
  H   H30       1.0  0.08199  0.45199  0.87689  1.0000
  C   C1        1.0  0.95138  0.50880  0.08229  1.0000
  C   C2        1.0  0.04862  0.49120  0.58229  1.0000
  C   C3        1.0  0.99547  0.41714  0.13249  1.0000
  C   C4        1.0  0.00453  0.58286  0.63249  1.0000
  C   C5        1.0  0.84749  0.39535  0.20827  1.0000
  C   C6        1.0  0.15252  0.60465  0.70827  1.0000
  C   C7        1.0  0.65549  0.46444  0.23057  1.0000
  C   C8        1.0  0.34453  0.53556  0.73057  1.0000
  C   C9        1.0  0.63033  0.55712  0.17917  1.0000
  C   C10       1.0  0.36967  0.44288  0.67916  1.0000
  C   C11       1.0  0.46902  0.64613  0.20524  1.0000
  C   C12       1.0  0.53098  0.35387  0.70524  1.0000
  C   C13       1.0  0.26730  0.63712  0.26693  1.0000
  C   C14       1.0  0.73268  0.36288  0.76693  1.0000
  C   C15       1.0  0.14111  0.73031  0.29004  1.0000
  C   C16       1.0  0.85888  0.26969  0.79004  1.0000
  C   C17       1.0  0.23174  0.82987  0.25016  1.0000
  C   C18       1.0  0.76824  0.17013  0.75015  1.0000
  C   C19       1.0  0.43770  0.83301  0.19032  1.0000
  C   C20       1.0  0.56229  0.16699  0.69031  1.0000
  C   C21       1.0  0.56982  0.93378  0.15166  1.0000
  C   C22       1.0  0.43017  0.06622  0.65165  1.0000
  C   C23       1.0  0.54561  0.03787  0.18587  1.0000
  C   C24       1.0  0.45438  0.96213  0.68587  1.0000
  C   C25       1.0  0.70115  0.12593  0.15056  1.0000
  C   C26       1.0  0.29884  0.87406  0.65056  1.0000
  C   C27       1.0  0.87548  0.10821  0.08289  1.0000
  C   C28       1.0  0.12452  0.89178  0.58288  1.0000
  C   C29       1.0  0.88656  0.00189  0.05162  1.0000
  C   C30       1.0  0.11346  0.99810  0.55161  1.0000
  C   C31       1.0  0.92579  0.72425  0.35505  1.0000
  C   C32       1.0  0.07420  0.27575  0.85505  1.0000
  C   C33       1.0  0.80541  0.81819  0.38012  1.0000
  C   C34       1.0  0.19457  0.18181  0.88012  1.0000
  C   C35       1.0  0.59926  0.81144  0.44002  1.0000
  C   C36       1.0  0.40074  0.18857  0.94002  1.0000
  C   C37       1.0  0.50536  0.71041  0.47533  1.0000
  C   C38       1.0  0.49466  0.28959  0.97532  1.0000
  C   C39       1.0  0.62202  0.61648  0.45103  1.0000
  C   C40       1.0  0.37798  0.38352  0.95102  1.0000
  C   C41       1.0  0.83269  0.62364  0.39285  1.0000
  C   C42       1.0  0.16729  0.37636  0.89285  1.0000
  S   S1        1.0  0.25124  0.73849  0.93206  1.0000
  S   S2        1.0  0.74877  0.26152  0.43205  1.0000
  N   N1        1.0  0.77689  0.57817  0.10624  1.0000
  N   N2        1.0  0.22311  0.42183  0.60624  1.0000
  N   N3        1.0  0.54694  0.74214  0.16767  1.0000
  N   N4        1.0  0.45308  0.25786  0.66767  1.0000
  N   N5        1.0  0.73723  0.91720  0.08544  1.0000
  N   N6        1.0  0.26279  0.08280  0.58543  1.0000
  O   O1        1.0  0.53905  0.72421  0.94763  1.0000
  O   O2        1.0  0.46098  0.27580  0.44763  1.0000
  O   O3        1.0  0.22657  0.82490  0.86712  1.0000
  O   O4        1.0  0.77344  0.17511  0.36710  1.0000
  O   O5        1.0  0.14148  0.77186  0.02087  1.0000
  O   O6        1.0  0.85852  0.22813  0.52086  1.0000
  O   O7        1.0  0.11773  0.63194  0.90585  1.0000
  O   O8        1.0  0.88229  0.36807  0.40586  1.0000
