data_image0
_chemical_formula_structural       Hg4H48C60N16Cl8
_chemical_formula_sum              "Hg4 H48 C60 N16 Cl8"
_cell_length_a       9.10857
_cell_length_b       12.9556
_cell_length_c       13.4155
_cell_angle_alpha    89.9998
_cell_angle_beta     90.0001
_cell_angle_gamma    102.418

_space_group_name_H-M_alt    "P 1"
_space_group_IT_number       1

loop_
  _space_group_symop_operation_xyz
  'x, y, z'

loop_
  _atom_site_type_symbol
  _atom_site_label
  _atom_site_symmetry_multiplicity
  _atom_site_fract_x
  _atom_site_fract_y
  _atom_site_fract_z
  _atom_site_occupancy
  Hg  Hg1       1.0  0.84782  0.54117  0.19711  1.0000
  Hg  Hg2       1.0  0.65218  0.95883  0.69711  1.0000
  Hg  Hg3       1.0  0.15218  0.45883  0.80289  1.0000
  Hg  Hg4       1.0  0.34782  0.04117  0.30289  1.0000
  H   H1        1.0  0.61610  0.41415  0.38931  1.0000
  H   H2        1.0  0.88390  0.08585  0.88931  1.0000
  H   H3        1.0  0.38390  0.58586  0.61069  1.0000
  H   H4        1.0  0.11609  0.91414  0.11069  1.0000
  H   H5        1.0  0.41837  0.12209  0.55263  1.0000
  H   H6        1.0  0.08163  0.37791  0.05263  1.0000
  H   H7        1.0  0.58163  0.87791  0.44737  1.0000
  H   H8        1.0  0.91837  0.62209  0.94737  1.0000
  H   H9        1.0  0.25061  0.22568  0.63011  1.0000
  H   H10       1.0  0.24939  0.27432  0.13011  1.0000
  H   H11       1.0  0.74939  0.77433  0.36990  1.0000
  H   H12       1.0  0.75061  0.72567  0.86990  1.0000
  H   H13       1.0  0.81501  0.74759  0.64779  1.0000
  H   H14       1.0  0.68499  0.75241  0.14779  1.0000
  H   H15       1.0  0.18499  0.25241  0.35221  1.0000
  H   H16       1.0  0.31500  0.24759  0.85221  1.0000
  H   H17       1.0  0.06864  0.71162  0.36082  1.0000
  H   H18       1.0  0.43136  0.78838  0.86082  1.0000
  H   H19       1.0  0.93137  0.28838  0.63918  1.0000
  H   H20       1.0  0.56863  0.21162  0.13918  1.0000
  H   H21       1.0  0.20202  0.75542  0.52686  1.0000
  H   H22       1.0  0.29798  0.74458  0.02687  1.0000
  H   H23       1.0  0.79799  0.24458  0.47314  1.0000
  H   H24       1.0  0.70201  0.25542  0.97314  1.0000
  H   H25       1.0  0.12427  0.68540  0.63548  1.0000
  H   H26       1.0  0.37573  0.81460  0.13548  1.0000
  H   H27       1.0  0.87573  0.31460  0.36452  1.0000
  H   H28       1.0  0.62427  0.18540  0.86452  1.0000
  H   H29       1.0  0.88753  0.56720  0.70224  1.0000
  H   H30       1.0  0.61247  0.93280  0.20224  1.0000
  H   H31       1.0  0.11247  0.43280  0.29776  1.0000
  H   H32       1.0  0.38753  0.06719  0.79776  1.0000
  H   H33       1.0  0.99286  0.13737  0.68897  1.0000
  H   H34       1.0  0.50714  0.36263  0.18897  1.0000
  H   H35       1.0  0.00714  0.86263  0.31103  1.0000
  H   H36       1.0  0.49286  0.63737  0.81103  1.0000
  H   H37       1.0  0.67112  0.41368  0.70915  1.0000
  H   H38       1.0  0.82887  0.08632  0.20915  1.0000
  H   H39       1.0  0.32888  0.58633  0.29085  1.0000
  H   H40       1.0  0.17112  0.91367  0.79085  1.0000
  H   H41       1.0  0.53631  0.33929  0.55643  1.0000
  H   H42       1.0  0.96368  0.16071  0.05643  1.0000
  H   H43       1.0  0.46369  0.66072  0.44356  1.0000
  H   H44       1.0  0.03631  0.83928  0.94356  1.0000
  H   H45       1.0  0.34054  0.92652  0.53433  1.0000
  H   H46       1.0  0.15947  0.57348  0.03433  1.0000
  H   H47       1.0  0.65947  0.07349  0.46567  1.0000
  H   H48       1.0  0.84053  0.42651  0.96567  1.0000
  C   C1        1.0  0.02131  0.98369  0.63964  1.0000
  C   C2        1.0  0.47870  0.51631  0.13964  1.0000
  C   C3        1.0  0.97870  0.01631  0.36036  1.0000
  C   C4        1.0  0.52130  0.48368  0.86035  1.0000
  C   C5        1.0  0.11966  0.92456  0.59741  1.0000
  C   C6        1.0  0.38034  0.57544  0.09741  1.0000
  C   C7        1.0  0.88034  0.07544  0.40259  1.0000
  C   C8        1.0  0.61966  0.42456  0.90259  1.0000
  C   C9        1.0  0.79862  0.53258  0.45195  1.0000
  C   C10       1.0  0.70138  0.96742  0.95196  1.0000
  C   C11       1.0  0.20138  0.46743  0.54804  1.0000
  C   C12       1.0  0.29862  0.03257  0.04804  1.0000
  C   C13       1.0  0.67442  0.44798  0.45654  1.0000
  C   C14       1.0  0.82558  0.05202  0.95654  1.0000
  C   C15       1.0  0.32559  0.55203  0.54346  1.0000
  C   C16       1.0  0.17441  0.94797  0.04346  1.0000
  C   C17       1.0  0.30708  0.08141  0.57715  1.0000
  C   C18       1.0  0.19292  0.41859  0.07715  1.0000
  C   C19       1.0  0.69292  0.91859  0.42285  1.0000
  C   C20       1.0  0.80708  0.58140  0.92285  1.0000
  C   C21       1.0  0.21081  0.14060  0.62077  1.0000
  C   C22       1.0  0.28919  0.35940  0.12077  1.0000
  C   C23       1.0  0.78919  0.85940  0.37923  1.0000
  C   C24       1.0  0.71081  0.64060  0.87923  1.0000
  C   C25       1.0  0.87354  0.57575  0.53995  1.0000
  C   C26       1.0  0.62646  0.92425  0.03995  1.0000
  C   C27       1.0  0.12647  0.42425  0.46005  1.0000
  C   C28       1.0  0.37353  0.07575  0.96005  1.0000
  C   C29       1.0  0.90228  0.81888  0.63977  1.0000
  C   C30       1.0  0.59772  0.68112  0.13977  1.0000
  C   C31       1.0  0.09772  0.18112  0.36023  1.0000
  C   C32       1.0  0.40228  0.31888  0.86023  1.0000
  C   C33       1.0  0.98600  0.65792  0.40546  1.0000
  C   C34       1.0  0.51400  0.84208  0.90547  1.0000
  C   C35       1.0  0.01401  0.34208  0.59454  1.0000
  C   C36       1.0  0.48599  0.15792  0.09453  1.0000
  C   C37       1.0  0.09801  0.72753  0.56890  1.0000
  C   C38       1.0  0.40199  0.77247  0.06890  1.0000
  C   C39       1.0  0.90200  0.27247  0.43110  1.0000
  C   C40       1.0  0.59800  0.22752  0.93110  1.0000
  C   C41       1.0  0.82910  0.53542  0.63431  1.0000
  C   C42       1.0  0.67090  0.96458  0.13431  1.0000
  C   C43       1.0  0.17091  0.46458  0.36569  1.0000
  C   C44       1.0  0.32909  0.03542  0.86569  1.0000
  C   C45       1.0  0.06705  0.09295  0.65300  1.0000
  C   C46       1.0  0.43296  0.40705  0.15300  1.0000
  C   C47       1.0  0.93296  0.90705  0.34700  1.0000
  C   C48       1.0  0.56704  0.59295  0.84700  1.0000
  C   C49       1.0  0.70695  0.44941  0.63739  1.0000
  C   C50       1.0  0.79305  0.05059  0.13739  1.0000
  C   C51       1.0  0.29306  0.55059  0.36261  1.0000
  C   C52       1.0  0.20694  0.94940  0.86261  1.0000
  C   C53       1.0  0.63065  0.40686  0.55043  1.0000
  C   C54       1.0  0.86934  0.09314  0.05044  1.0000
  C   C55       1.0  0.36935  0.59314  0.44956  1.0000
  C   C56       1.0  0.13065  0.90685  0.94956  1.0000
  C   C57       1.0  0.26428  0.97218  0.56550  1.0000
  C   C58       1.0  0.23573  0.52783  0.06550  1.0000
  C   C59       1.0  0.73573  0.02783  0.43450  1.0000
  C   C60       1.0  0.76428  0.47217  0.93450  1.0000
  N   N1        1.0  0.87249  0.58606  0.37008  1.0000
  N   N2        1.0  0.62751  0.91394  0.87008  1.0000
  N   N3        1.0  0.12752  0.41394  0.62992  1.0000
  N   N4        1.0  0.37248  0.08606  0.12992  1.0000
  N   N5        1.0  0.04027  0.81978  0.59918  1.0000
  N   N6        1.0  0.45973  0.68022  0.09918  1.0000
  N   N7        1.0  0.95974  0.18022  0.40083  1.0000
  N   N8        1.0  0.54026  0.31978  0.90082  1.0000
  N   N9        1.0  0.88708  0.91500  0.66445  1.0000
  N   N10       1.0  0.61293  0.58500  0.16445  1.0000
  N   N11       1.0  0.11293  0.08500  0.33555  1.0000
  N   N12       1.0  0.38707  0.41500  0.83555  1.0000
  N   N13       1.0  0.99182  0.65607  0.50730  1.0000
  N   N14       1.0  0.50818  0.84393  0.00730  1.0000
  N   N15       1.0  0.00818  0.34393  0.49270  1.0000
  N   N16       1.0  0.49181  0.15607  0.99270  1.0000
  Cl  Cl1       1.0  0.82524  0.35149  0.18138  1.0000
  Cl  Cl2       1.0  0.67476  0.14851  0.68138  1.0000
  Cl  Cl3       1.0  0.17476  0.64851  0.81862  1.0000
  Cl  Cl4       1.0  0.32524  0.85149  0.31862  1.0000
  Cl  Cl5       1.0  0.00886  0.70740  0.14109  1.0000
  Cl  Cl6       1.0  0.49114  0.79260  0.64109  1.0000
  Cl  Cl7       1.0  0.99114  0.29260  0.85891  1.0000
  Cl  Cl8       1.0  0.50886  0.20740  0.35891  1.0000
