data_image0
_chemical_formula_structural       Hg4H48C60I8N16
_chemical_formula_sum              "Hg4 H48 C60 I8 N16"
_cell_length_a       9.91959
_cell_length_b       12.9145
_cell_length_c       13.5546
_cell_angle_alpha    90.0005
_cell_angle_beta     90
_cell_angle_gamma    96.6219

_space_group_name_H-M_alt    "P 1"
_space_group_IT_number       1

loop_
  _space_group_symop_operation_xyz
  'x, y, z'

loop_
  _atom_site_type_symbol
  _atom_site_label
  _atom_site_symmetry_multiplicity
  _atom_site_fract_x
  _atom_site_fract_y
  _atom_site_fract_z
  _atom_site_occupancy
  Hg  Hg1       1.0  0.84050  0.54222  0.81542  1.0000
  Hg  Hg2       1.0  0.65950  0.95778  0.31542  1.0000
  Hg  Hg3       1.0  0.15950  0.45779  0.18458  1.0000
  Hg  Hg4       1.0  0.34050  0.04222  0.68457  1.0000
  H   H1        1.0  0.03980  0.70523  0.65943  1.0000
  H   H2        1.0  0.46020  0.79477  0.15943  1.0000
  H   H3        1.0  0.96020  0.29477  0.34057  1.0000
  H   H4        1.0  0.53980  0.20523  0.84057  1.0000
  H   H5        1.0  0.57408  0.37842  0.43842  1.0000
  H   H6        1.0  0.92592  0.12158  0.93842  1.0000
  H   H7        1.0  0.42592  0.62158  0.56159  1.0000
  H   H8        1.0  0.07408  0.87842  0.06158  1.0000
  H   H9        1.0  0.63441  0.44075  0.60870  1.0000
  H   H10       1.0  0.86559  0.05925  0.10870  1.0000
  H   H11       1.0  0.36560  0.55926  0.39131  1.0000
  H   H12       1.0  0.13441  0.94074  0.89130  1.0000
  H   H13       1.0  0.90944  0.57997  0.31354  1.0000
  H   H14       1.0  0.59056  0.92003  0.81355  1.0000
  H   H15       1.0  0.09056  0.42003  0.68646  1.0000
  H   H16       1.0  0.40944  0.07997  0.18646  1.0000
  H   H17       1.0  0.71043  0.44572  0.29416  1.0000
  H   H18       1.0  0.78957  0.05428  0.79416  1.0000
  H   H19       1.0  0.28957  0.55428  0.70585  1.0000
  H   H20       1.0  0.21043  0.94572  0.20584  1.0000
  H   H21       1.0  0.82018  0.75439  0.38614  1.0000
  H   H22       1.0  0.67982  0.74560  0.88614  1.0000
  H   H23       1.0  0.17982  0.24561  0.61386  1.0000
  H   H24       1.0  0.32018  0.25440  0.11387  1.0000
  H   H25       1.0  0.30579  0.90656  0.45705  1.0000
  H   H26       1.0  0.19420  0.59343  0.95704  1.0000
  H   H27       1.0  0.69421  0.09344  0.54295  1.0000
  H   H28       1.0  0.80579  0.40656  0.04295  1.0000
  H   H29       1.0  0.12261  0.67916  0.39432  1.0000
  H   H30       1.0  0.37739  0.82084  0.89432  1.0000
  H   H31       1.0  0.87739  0.32084  0.60568  1.0000
  H   H32       1.0  0.62261  0.17917  0.10568  1.0000
  H   H33       1.0  0.16988  0.75047  0.50457  1.0000
  H   H34       1.0  0.33012  0.74953  0.00457  1.0000
  H   H35       1.0  0.83012  0.24953  0.49543  1.0000
  H   H36       1.0  0.66988  0.25047  0.99543  1.0000
  H   H37       1.0  0.97743  0.12320  0.29267  1.0000
  H   H38       1.0  0.52256  0.37679  0.79267  1.0000
  H   H39       1.0  0.02256  0.87680  0.70732  1.0000
  H   H40       1.0  0.47744  0.62321  0.20733  1.0000
  H   H41       1.0  0.37504  0.09207  0.41241  1.0000
  H   H42       1.0  0.12496  0.40792  0.91241  1.0000
  H   H43       1.0  0.62495  0.90794  0.58759  1.0000
  H   H44       1.0  0.87505  0.59207  0.08759  1.0000
  H   H45       1.0  0.21571  0.19786  0.33019  1.0000
  H   H46       1.0  0.28429  0.30213  0.83019  1.0000
  H   H47       1.0  0.78429  0.80214  0.66981  1.0000
  H   H48       1.0  0.71572  0.69787  0.16981  1.0000
  C   C1        1.0  0.80785  0.54453  0.55674  1.0000
  C   C2        1.0  0.69215  0.95547  0.05674  1.0000
  C   C3        1.0  0.19215  0.45549  0.44327  1.0000
  C   C4        1.0  0.30786  0.04452  0.94326  1.0000
  C   C5        1.0  0.97058  0.65698  0.61152  1.0000
  C   C6        1.0  0.52943  0.84301  0.11152  1.0000
  C   C7        1.0  0.02942  0.34302  0.38848  1.0000
  C   C8        1.0  0.47057  0.15698  0.88848  1.0000
  C   C9        1.0  0.88337  0.58395  0.47335  1.0000
  C   C10       1.0  0.61663  0.91604  0.97336  1.0000
  C   C11       1.0  0.11663  0.41605  0.52665  1.0000
  C   C12       1.0  0.38337  0.08395  0.02664  1.0000
  C   C13       1.0  0.66165  0.43640  0.44976  1.0000
  C   C14       1.0  0.83835  0.06360  0.94975  1.0000
  C   C15       1.0  0.33836  0.56361  0.55025  1.0000
  C   C16       1.0  0.16165  0.93639  0.05025  1.0000
  C   C17       1.0  0.69448  0.47052  0.54527  1.0000
  C   C18       1.0  0.80552  0.02948  0.04528  1.0000
  C   C19       1.0  0.30552  0.52949  0.45473  1.0000
  C   C20       1.0  0.19448  0.97051  0.95472  1.0000
  C   C21       1.0  0.85092  0.54995  0.37762  1.0000
  C   C22       1.0  0.64908  0.95004  0.87762  1.0000
  C   C23       1.0  0.14907  0.45005  0.62238  1.0000
  C   C24       1.0  0.35093  0.04995  0.12238  1.0000
  C   C25       1.0  0.73891  0.47479  0.36762  1.0000
  C   C26       1.0  0.76109  0.02520  0.86763  1.0000
  C   C27       1.0  0.26109  0.52521  0.63238  1.0000
  C   C28       1.0  0.23891  0.97479  0.13237  1.0000
  C   C29       1.0  0.10046  0.91297  0.40193  1.0000
  C   C30       1.0  0.39954  0.58702  0.90193  1.0000
  C   C31       1.0  0.89954  0.08703  0.59807  1.0000
  C   C32       1.0  0.60046  0.41298  0.09807  1.0000
  C   C33       1.0  0.00724  0.97357  0.35663  1.0000
  C   C34       1.0  0.49275  0.52641  0.85662  1.0000
  C   C35       1.0  0.99276  0.02642  0.64337  1.0000
  C   C36       1.0  0.50725  0.47359  0.14337  1.0000
  C   C37       1.0  0.90007  0.81923  0.38192  1.0000
  C   C38       1.0  0.59992  0.68075  0.88191  1.0000
  C   C39       1.0  0.09993  0.18076  0.61808  1.0000
  C   C40       1.0  0.40007  0.31924  0.11808  1.0000
  C   C41       1.0  0.23394  0.95334  0.42298  1.0000
  C   C42       1.0  0.26606  0.54665  0.92297  1.0000
  C   C43       1.0  0.76606  0.04666  0.57702  1.0000
  C   C44       1.0  0.73394  0.45335  0.07702  1.0000
  C   C45       1.0  0.08475  0.72346  0.45575  1.0000
  C   C46       1.0  0.41525  0.77654  0.95575  1.0000
  C   C47       1.0  0.91525  0.27655  0.54425  1.0000
  C   C48       1.0  0.58475  0.22346  0.04425  1.0000
  C   C49       1.0  0.04746  0.07717  0.33007  1.0000
  C   C50       1.0  0.45253  0.42282  0.83007  1.0000
  C   C51       1.0  0.95253  0.92283  0.66993  1.0000
  C   C52       1.0  0.54747  0.57718  0.16993  1.0000
  C   C53       1.0  0.27188  0.05709  0.39711  1.0000
  C   C54       1.0  0.22811  0.44290  0.89711  1.0000
  C   C55       1.0  0.72811  0.94291  0.60288  1.0000
  C   C56       1.0  0.77189  0.55709  0.10288  1.0000
  C   C57       1.0  0.18060  0.11771  0.35096  1.0000
  C   C58       1.0  0.31940  0.38229  0.85096  1.0000
  C   C59       1.0  0.81940  0.88229  0.64903  1.0000
  C   C60       1.0  0.68061  0.61772  0.14904  1.0000
  I   I1        1.0  0.97995  0.71988  0.88963  1.0000
  I   I2        1.0  0.52005  0.78012  0.38963  1.0000
  I   I3        1.0  0.02005  0.28012  0.11038  1.0000
  I   I4        1.0  0.47995  0.21989  0.61037  1.0000
  I   I5        1.0  0.83726  0.33155  0.81647  1.0000
  I   I6        1.0  0.66274  0.16845  0.31647  1.0000
  I   I7        1.0  0.16275  0.66846  0.18353  1.0000
  I   I8        1.0  0.33727  0.83155  0.68354  1.0000
  N   N1        1.0  0.98552  0.65670  0.51118  1.0000
  N   N2        1.0  0.51449  0.84330  0.01117  1.0000
  N   N3        1.0  0.01449  0.34331  0.48883  1.0000
  N   N4        1.0  0.48551  0.15670  0.98883  1.0000
  N   N5        1.0  0.86639  0.59161  0.64138  1.0000
  N   N6        1.0  0.63361  0.90839  0.14139  1.0000
  N   N7        1.0  0.13361  0.40840  0.35862  1.0000
  N   N8        1.0  0.36639  0.09160  0.85862  1.0000
  N   N9        1.0  0.02831  0.81513  0.41702  1.0000
  N   N10       1.0  0.47168  0.68486  0.91702  1.0000
  N   N11       1.0  0.97169  0.18487  0.58297  1.0000
  N   N12       1.0  0.52832  0.31514  0.08297  1.0000
  N   N13       1.0  0.88347  0.91218  0.34580  1.0000
  N   N14       1.0  0.61652  0.58781  0.84580  1.0000
  N   N15       1.0  0.11653  0.08782  0.65420  1.0000
  N   N16       1.0  0.38348  0.41219  0.15420  1.0000
