data_image0
_chemical_formula_structural       Zn4H26C42N6O14
_chemical_formula_sum              "Zn4 H26 C42 N6 O14"
_cell_length_a       10.0749
_cell_length_b       10.7048
_cell_length_c       11.1386
_cell_angle_alpha    80.3541
_cell_angle_beta     65.5279
_cell_angle_gamma    63.4233

_space_group_name_H-M_alt    "P 1"
_space_group_IT_number       1

loop_
  _space_group_symop_operation_xyz
  'x, y, z'

loop_
  _atom_site_type_symbol
  _atom_site_label
  _atom_site_symmetry_multiplicity
  _atom_site_fract_x
  _atom_site_fract_y
  _atom_site_fract_z
  _atom_site_occupancy
  Zn  Zn1       1.0  0.81170  0.56307  0.57030  1.0000
  Zn  Zn2       1.0  0.18830  0.43693  0.42970  1.0000
  Zn  Zn3       1.0  0.07114  0.31058  0.71750  1.0000
  Zn  Zn4       1.0  0.92886  0.68942  0.28250  1.0000
  H   H1        1.0  0.56389  0.96657  0.59704  1.0000
  H   H2        1.0  0.43611  0.03343  0.40297  1.0000
  H   H3        1.0  0.59535  0.36011  0.56281  1.0000
  H   H4        1.0  0.40465  0.63989  0.43718  1.0000
  H   H5        1.0  0.94090  0.99139  0.66523  1.0000
  H   H6        1.0  0.05910  0.00860  0.33477  1.0000
  H   H7        1.0  0.28633  0.52315  0.68015  1.0000
  H   H8        1.0  0.71367  0.47685  0.31985  1.0000
  H   H9        1.0  0.44031  0.54134  0.79866  1.0000
  H   H10       1.0  0.55969  0.45866  0.20134  1.0000
  H   H11       1.0  0.41402  0.42717  0.02086  1.0000
  H   H12       1.0  0.58598  0.57283  0.97914  1.0000
  H   H13       1.0  0.23718  0.30248  0.11166  1.0000
  H   H14       1.0  0.76281  0.69753  0.88834  1.0000
  H   H15       1.0  0.78013  0.18493  0.86238  1.0000
  H   H16       1.0  0.21987  0.81507  0.13762  1.0000
  H   H17       1.0  0.61498  0.08040  0.04140  1.0000
  H   H18       1.0  0.38502  0.91960  0.95860  1.0000
  H   H19       1.0  0.63940  0.03141  0.25835  1.0000
  H   H20       1.0  0.36060  0.96859  0.74165  1.0000
  H   H21       1.0  0.81926  0.09545  0.30854  1.0000
  H   H22       1.0  0.18074  0.90455  0.69146  1.0000
  H   H23       1.0  0.03391  0.22997  0.18817  1.0000
  H   H24       1.0  0.96609  0.77003  0.81183  1.0000
  H   H25       1.0  0.00857  0.56847  0.65372  1.0000
  H   H26       1.0  0.99143  0.43153  0.34628  1.0000
  C   C1        1.0  0.82000  0.80841  0.65517  1.0000
  C   C2        1.0  0.18001  0.19159  0.34482  1.0000
  C   C3        1.0  0.75912  0.96243  0.63232  1.0000
  C   C4        1.0  0.24088  0.03757  0.36768  1.0000
  C   C5        1.0  0.62197  0.02875  0.60210  1.0000
  C   C6        1.0  0.37803  0.97125  0.39790  1.0000
  C   C7        1.0  0.56235  0.17137  0.57626  1.0000
  C   C8        1.0  0.43765  0.82863  0.42374  1.0000
  C   C9        1.0  0.40747  0.24261  0.55550  1.0000
  C   C10       1.0  0.59253  0.75739  0.44450  1.0000
  C   C11       1.0  0.64052  0.24866  0.58180  1.0000
  C   C12       1.0  0.35948  0.75134  0.41820  1.0000
  C   C13       1.0  0.77407  0.18469  0.61741  1.0000
  C   C14       1.0  0.22593  0.81531  0.38258  1.0000
  C   C15       1.0  0.84288  0.27419  0.63743  1.0000
  C   C16       1.0  0.15712  0.72581  0.36257  1.0000
  C   C17       1.0  0.83500  0.04105  0.64050  1.0000
  C   C18       1.0  0.16500  0.95895  0.35951  1.0000
  C   C19       1.0  0.27859  0.47536  0.77607  1.0000
  C   C20       1.0  0.72141  0.52464  0.22393  1.0000
  C   C21       1.0  0.36400  0.48580  0.84302  1.0000
  C   C22       1.0  0.63600  0.51420  0.15698  1.0000
  C   C23       1.0  0.34970  0.42210  0.96488  1.0000
  C   C24       1.0  0.65029  0.57790  0.03513  1.0000
  C   C25       1.0  0.25151  0.35098  0.01582  1.0000
  C   C26       1.0  0.74849  0.64903  0.98418  1.0000
  C   C27       1.0  0.17078  0.34548  0.94166  1.0000
  C   C28       1.0  0.82922  0.65452  0.05835  1.0000
  C   C29       1.0  0.06209  0.27663  0.98546  1.0000
  C   C30       1.0  0.93791  0.72337  0.01454  1.0000
  C   C31       1.0  0.90258  0.17514  0.11104  1.0000
  C   C32       1.0  0.09742  0.82486  0.88896  1.0000
  C   C33       1.0  0.89360  0.20026  0.98475  1.0000
  C   C34       1.0  0.10640  0.79974  0.01525  1.0000
  C   C35       1.0  0.78914  0.16645  0.95808  1.0000
  C   C36       1.0  0.21086  0.83355  0.04192  1.0000
  C   C37       1.0  0.69787  0.10737  0.05899  1.0000
  C   C38       1.0  0.30213  0.89263  0.94101  1.0000
  C   C39       1.0  0.70960  0.08123  0.18341  1.0000
  C   C40       1.0  0.29040  0.91877  0.81659  1.0000
  C   C41       1.0  0.81147  0.11518  0.21207  1.0000
  C   C42       1.0  0.18853  0.88482  0.78793  1.0000
  N   N1        1.0  0.99567  0.26279  0.90868  1.0000
  N   N2        1.0  0.00433  0.73720  0.09132  1.0000
  N   N3        1.0  0.01040  0.22363  0.10682  1.0000
  N   N4        1.0  0.98960  0.77637  0.89318  1.0000
  N   N5        1.0  0.18487  0.40666  0.82325  1.0000
  N   N6        1.0  0.81513  0.59334  0.17675  1.0000
  O   O1        1.0  0.73560  0.74986  0.65154  1.0000
  O   O2        1.0  0.26440  0.25014  0.34846  1.0000
  O   O3        1.0  0.94886  0.74457  0.67770  1.0000
  O   O4        1.0  0.05114  0.25542  0.32230  1.0000
  O   O5        1.0  0.38638  0.34988  0.48403  1.0000
  O   O6        1.0  0.61362  0.65011  0.51597  1.0000
  O   O7        1.0  0.30562  0.19024  0.61691  1.0000
  O   O8        1.0  0.69439  0.80976  0.38309  1.0000
  O   O9        1.0  0.98002  0.21449  0.64552  1.0000
  O   O10       1.0  0.01998  0.78551  0.35448  1.0000
  O   O11       1.0  0.75252  0.40534  0.65064  1.0000
  O   O12       1.0  0.24748  0.59466  0.34936  1.0000
  O   O13       1.0  0.01834  0.48380  0.61830  1.0000
  O   O14       1.0  0.98166  0.51620  0.38170  1.0000
