data_image0
_chemical_formula_structural       Hg4H48C60Br8N16
_chemical_formula_sum              "Hg4 H48 C60 Br8 N16"
_cell_length_a       9.51893
_cell_length_b       12.9616
_cell_length_c       13.3852
_cell_angle_alpha    89.9999
_cell_angle_beta     90.0001
_cell_angle_gamma    99.8143

_space_group_name_H-M_alt    "P 1"
_space_group_IT_number       1

loop_
  _space_group_symop_operation_xyz
  'x, y, z'

loop_
  _atom_site_type_symbol
  _atom_site_label
  _atom_site_symmetry_multiplicity
  _atom_site_fract_x
  _atom_site_fract_y
  _atom_site_fract_z
  _atom_site_occupancy
  Hg  Hg1       1.0  0.65870  0.45867  0.81118  1.0000
  Hg  Hg2       1.0  0.84129  0.04133  0.31118  1.0000
  Hg  Hg3       1.0  0.34129  0.54133  0.18882  1.0000
  Hg  Hg4       1.0  0.15871  0.95867  0.68883  1.0000
  H   H1        1.0  0.51459  0.87008  0.30129  1.0000
  H   H2        1.0  0.98541  0.62992  0.80129  1.0000
  H   H3        1.0  0.48541  0.12992  0.69871  1.0000
  H   H4        1.0  0.01459  0.37008  0.19871  1.0000
  H   H5        1.0  0.26555  0.78765  0.34711  1.0000
  H   H6        1.0  0.23445  0.71235  0.84711  1.0000
  H   H7        1.0  0.73445  0.21235  0.65289  1.0000
  H   H8        1.0  0.76555  0.28765  0.15289  1.0000
  H   H9        1.0  0.10095  0.89146  0.42585  1.0000
  H   H10       1.0  0.39904  0.60854  0.92585  1.0000
  H   H11       1.0  0.89904  0.10854  0.57415  1.0000
  H   H12       1.0  0.60096  0.39146  0.07415  1.0000
  H   H13       1.0  0.17443  0.08217  0.45880  1.0000
  H   H14       1.0  0.32557  0.41783  0.95880  1.0000
  H   H15       1.0  0.82557  0.91783  0.54120  1.0000
  H   H16       1.0  0.67443  0.58217  0.04119  1.0000
  H   H17       1.0  0.68280  0.24930  0.37368  1.0000
  H   H18       1.0  0.81720  0.25070  0.87368  1.0000
  H   H19       1.0  0.31720  0.75070  0.62632  1.0000
  H   H20       1.0  0.18280  0.74930  0.12632  1.0000
  H   H21       1.0  0.37395  0.31573  0.38051  1.0000
  H   H22       1.0  0.12605  0.18427  0.88051  1.0000
  H   H23       1.0  0.62605  0.68427  0.61949  1.0000
  H   H24       1.0  0.87395  0.81573  0.11949  1.0000
  H   H25       1.0  0.31337  0.24560  0.49157  1.0000
  H   H26       1.0  0.18663  0.25440  0.99157  1.0000
  H   H27       1.0  0.68662  0.75440  0.50843  1.0000
  H   H28       1.0  0.81337  0.74560  0.00843  1.0000
  H   H29       1.0  0.59600  0.42525  0.30511  1.0000
  H   H30       1.0  0.90400  0.07475  0.80510  1.0000
  H   H31       1.0  0.40400  0.57475  0.69489  1.0000
  H   H32       1.0  0.09600  0.92526  0.19489  1.0000
  H   H33       1.0  0.80306  0.56957  0.29004  1.0000
  H   H34       1.0  0.69694  0.93043  0.79004  1.0000
  H   H35       1.0  0.19694  0.43043  0.70996  1.0000
  H   H36       1.0  0.30306  0.06957  0.20996  1.0000
  H   H37       1.0  0.94063  0.64217  0.43877  1.0000
  H   H38       1.0  0.55937  0.85783  0.93877  1.0000
  H   H39       1.0  0.05937  0.35783  0.56123  1.0000
  H   H40       1.0  0.44064  0.14217  0.06123  1.0000
  H   H41       1.0  0.87373  0.57417  0.60928  1.0000
  H   H42       1.0  0.62628  0.92583  0.10928  1.0000
  H   H43       1.0  0.12628  0.42583  0.39072  1.0000
  H   H44       1.0  0.37373  0.07417  0.89072  1.0000
  H   H45       1.0  0.44692  0.29186  0.65266  1.0000
  H   H46       1.0  0.05308  0.20814  0.15266  1.0000
  H   H47       1.0  0.55308  0.70814  0.34734  1.0000
  H   H48       1.0  0.94692  0.79186  0.84734  1.0000
  C   C1        1.0  0.48499  0.02117  0.35901  1.0000
  C   C2        1.0  0.01502  0.47883  0.85901  1.0000
  C   C3        1.0  0.51501  0.97883  0.64098  1.0000
  C   C4        1.0  0.98499  0.52117  0.14098  1.0000
  C   C5        1.0  0.44206  0.91486  0.33778  1.0000
  C   C6        1.0  0.05794  0.58514  0.83778  1.0000
  C   C7        1.0  0.55794  0.08514  0.66222  1.0000
  C   C8        1.0  0.94206  0.41486  0.16222  1.0000
  C   C9        1.0  0.30304  0.87030  0.36282  1.0000
  C   C10       1.0  0.19696  0.62970  0.86282  1.0000
  C   C11       1.0  0.69696  0.12970  0.63718  1.0000
  C   C12       1.0  0.80304  0.37030  0.13718  1.0000
  C   C13       1.0  0.20861  0.92970  0.40713  1.0000
  C   C14       1.0  0.29139  0.57030  0.90713  1.0000
  C   C15       1.0  0.79139  0.07030  0.59287  1.0000
  C   C16       1.0  0.70861  0.42970  0.09287  1.0000
  C   C17       1.0  0.24906  0.03616  0.42708  1.0000
  C   C18       1.0  0.25094  0.46384  0.92708  1.0000
  C   C19       1.0  0.75094  0.96384  0.57292  1.0000
  C   C20       1.0  0.74906  0.53616  0.07292  1.0000
  C   C21       1.0  0.38882  0.08055  0.40235  1.0000
  C   C22       1.0  0.11118  0.41945  0.90236  1.0000
  C   C23       1.0  0.61118  0.91945  0.59764  1.0000
  C   C24       1.0  0.88882  0.58055  0.09764  1.0000
  C   C25       1.0  0.59880  0.18106  0.37415  1.0000
  C   C26       1.0  0.90119  0.31894  0.87415  1.0000
  C   C27       1.0  0.40119  0.81894  0.62585  1.0000
  C   C28       1.0  0.09881  0.68106  0.12585  1.0000
  C   C29       1.0  0.40710  0.27340  0.44519  1.0000
  C   C30       1.0  0.09290  0.22660  0.94519  1.0000
  C   C31       1.0  0.59290  0.72660  0.55481  1.0000
  C   C32       1.0  0.90710  0.77340  0.05481  1.0000
  C   C33       1.0  0.61899  0.41996  0.46723  1.0000
  C   C34       1.0  0.88101  0.08003  0.96723  1.0000
  C   C35       1.0  0.38101  0.58004  0.53277  1.0000
  C   C36       1.0  0.11899  0.91996  0.03277  1.0000
  C   C37       1.0  0.65559  0.45662  0.37110  1.0000
  C   C38       1.0  0.84441  0.04338  0.87110  1.0000
  C   C39       1.0  0.34441  0.54338  0.62890  1.0000
  C   C40       1.0  0.15559  0.95662  0.12890  1.0000
  C   C41       1.0  0.77224  0.53756  0.36354  1.0000
  C   C42       1.0  0.72776  0.96244  0.86353  1.0000
  C   C43       1.0  0.22776  0.46244  0.63647  1.0000
  C   C44       1.0  0.27224  0.03756  0.13647  1.0000
  C   C45       1.0  0.85024  0.57889  0.44811  1.0000
  C   C46       1.0  0.64976  0.92111  0.94810  1.0000
  C   C47       1.0  0.14976  0.42111  0.55190  1.0000
  C   C48       1.0  0.35025  0.07889  0.05189  1.0000
  C   C49       1.0  0.81369  0.54161  0.54390  1.0000
  C   C50       1.0  0.68631  0.95839  0.04390  1.0000
  C   C51       1.0  0.18631  0.45839  0.45610  1.0000
  C   C52       1.0  0.31369  0.04161  0.95610  1.0000
  C   C53       1.0  0.69549  0.46184  0.55294  1.0000
  C   C54       1.0  0.80451  0.03816  0.05294  1.0000
  C   C55       1.0  0.30451  0.53816  0.44706  1.0000
  C   C56       1.0  0.19549  0.96184  0.94706  1.0000
  C   C57       1.0  0.52183  0.34263  0.60533  1.0000
  C   C58       1.0  0.97816  0.15737  0.10533  1.0000
  C   C59       1.0  0.47816  0.65737  0.39467  1.0000
  C   C60       1.0  0.02183  0.84263  0.89467  1.0000
  Br  Br1       1.0  0.67261  0.65765  0.81772  1.0000
  Br  Br2       1.0  0.82739  0.84235  0.31772  1.0000
  Br  Br3       1.0  0.32739  0.34235  0.18228  1.0000
  Br  Br4       1.0  0.17261  0.15765  0.68228  1.0000
  Br  Br5       1.0  0.50550  0.28849  0.87580  1.0000
  Br  Br6       1.0  0.99451  0.21150  0.37579  1.0000
  Br  Br7       1.0  0.49451  0.71150  0.12421  1.0000
  Br  Br8       1.0  0.00549  0.78850  0.62421  1.0000
  N   N1        1.0  0.63096  0.41162  0.63733  1.0000
  N   N2        1.0  0.86904  0.08837  0.13733  1.0000
  N   N3        1.0  0.36904  0.58838  0.36267  1.0000
  N   N4        1.0  0.13096  0.91162  0.86267  1.0000
  N   N5        1.0  0.50972  0.34335  0.50353  1.0000
  N   N6        1.0  0.99028  0.15665  0.00353  1.0000
  N   N7        1.0  0.49028  0.65665  0.49647  1.0000
  N   N8        1.0  0.00972  0.84335  0.99647  1.0000
  N   N9        1.0  0.46501  0.18198  0.41069  1.0000
  N   N10       1.0  0.03499  0.31802  0.91069  1.0000
  N   N11       1.0  0.53498  0.81802  0.58931  1.0000
  N   N12       1.0  0.96502  0.68198  0.08931  1.0000
  N   N13       1.0  0.61456  0.08666  0.34306  1.0000
  N   N14       1.0  0.88544  0.41334  0.84306  1.0000
  N   N15       1.0  0.38544  0.91334  0.65694  1.0000
  N   N16       1.0  0.11456  0.58666  0.15694  1.0000
