data_image0
_chemical_formula_structural       Cd2H32C32N4O10
_chemical_formula_sum              "Cd2 H32 C32 N4 O10"
_cell_length_a       9.07907
_cell_length_b       9.19251
_cell_length_c       10.9844
_cell_angle_alpha    94.5289
_cell_angle_beta     111.117
_cell_angle_gamma    109.761

_space_group_name_H-M_alt    "P 1"
_space_group_IT_number       1

loop_
  _space_group_symop_operation_xyz
  'x, y, z'

loop_
  _atom_site_type_symbol
  _atom_site_label
  _atom_site_symmetry_multiplicity
  _atom_site_fract_x
  _atom_site_fract_y
  _atom_site_fract_z
  _atom_site_occupancy
  Cd  Cd1       1.0  0.70732  0.49727  0.50639  1.0000
  Cd  Cd2       1.0  0.29267  0.50272  0.49361  1.0000
  H   H1        1.0  0.74983  0.26195  0.61103  1.0000
  H   H2        1.0  0.25018  0.73805  0.38896  1.0000
  H   H3        1.0  0.90339  0.30980  0.55790  1.0000
  H   H4        1.0  0.09661  0.69020  0.44210  1.0000
  H   H5        1.0  0.38436  0.41640  0.76883  1.0000
  H   H6        1.0  0.61564  0.58360  0.23117  1.0000
  H   H7        1.0  0.13499  0.32010  0.82873  1.0000
  H   H8        1.0  0.86501  0.67990  0.17127  1.0000
  H   H9        1.0  0.94388  0.03041  0.75678  1.0000
  H   H10       1.0  0.05611  0.96958  0.24322  1.0000
  H   H11       1.0  0.26084  0.94249  0.57196  1.0000
  H   H12       1.0  0.73916  0.05749  0.42804  1.0000
  H   H13       1.0  0.84433  0.40397  0.28994  1.0000
  H   H14       1.0  0.15567  0.59603  0.71006  1.0000
  H   H15       1.0  0.35167  0.26414  0.27876  1.0000
  H   H16       1.0  0.64833  0.73587  0.72124  1.0000
  H   H17       1.0  0.22033  0.11560  0.04025  1.0000
  H   H18       1.0  0.77968  0.88440  0.95974  1.0000
  H   H19       1.0  0.41363  0.10526  0.92676  1.0000
  H   H20       1.0  0.58638  0.89476  0.07324  1.0000
  H   H21       1.0  0.84192  0.17359  0.10293  1.0000
  H   H22       1.0  0.15808  0.82642  0.89707  1.0000
  H   H23       1.0  0.69684  0.16354  0.93988  1.0000
  H   H24       1.0  0.30316  0.83646  0.06012  1.0000
  H   H25       1.0  0.70539  0.47235  0.94302  1.0000
  H   H26       1.0  0.29461  0.52766  0.05697  1.0000
  H   H27       1.0  0.77994  0.37999  0.84211  1.0000
  H   H28       1.0  0.22006  0.62002  0.15788  1.0000
  H   H29       1.0  0.02131  0.29382  0.96077  1.0000
  H   H30       1.0  0.97869  0.70619  0.03923  1.0000
  H   H31       1.0  0.10573  0.33457  0.14008  1.0000
  H   H32       1.0  0.89427  0.66544  0.85992  1.0000
  C   C1        1.0  0.47880  0.24786  0.62021  1.0000
  C   C2        1.0  0.52118  0.75212  0.37977  1.0000
  C   C3        1.0  0.33588  0.18606  0.66493  1.0000
  C   C4        1.0  0.66412  0.81393  0.33508  1.0000
  C   C5        1.0  0.30181  0.29092  0.73961  1.0000
  C   C6        1.0  0.69821  0.70908  0.26039  1.0000
  C   C7        1.0  0.16327  0.23602  0.77483  1.0000
  C   C8        1.0  0.83672  0.76397  0.22519  1.0000
  C   C9        1.0  0.05708  0.07511  0.73514  1.0000
  C   C10       1.0  0.94292  0.92488  0.26486  1.0000
  C   C11       1.0  0.23259  0.02366  0.62887  1.0000
  C   C12       1.0  0.76742  0.97632  0.37113  1.0000
  C   C13       1.0  0.09125  0.96785  0.66209  1.0000
  C   C14       1.0  0.90875  0.03215  0.33793  1.0000
  C   C15       1.0  0.96830  0.79768  0.61277  1.0000
  C   C16       1.0  0.03171  0.20231  0.38722  1.0000
  C   C17       1.0  0.70684  0.33538  0.23292  1.0000
  C   C18       1.0  0.29317  0.66463  0.76708  1.0000
  C   C19       1.0  0.43157  0.25958  0.22572  1.0000
  C   C20       1.0  0.56843  0.74042  0.77427  1.0000
  C   C21       1.0  0.35939  0.17559  0.09350  1.0000
  C   C22       1.0  0.64062  0.82442  0.90650  1.0000
  C   C23       1.0  0.46700  0.17031  0.03057  1.0000
  C   C24       1.0  0.53301  0.82970  0.96943  1.0000
  C   C25       1.0  0.64468  0.24888  0.10158  1.0000
  C   C26       1.0  0.35533  0.75112  0.89842  1.0000
  C   C27       1.0  0.76925  0.23749  0.04387  1.0000
  C   C28       1.0  0.23075  0.76251  0.95613  1.0000
  C   C29       1.0  0.82029  0.45975  0.93957  1.0000
  C   C30       1.0  0.17970  0.54025  0.06043  1.0000
  C   C31       1.0  0.05019  0.37918  0.05206  1.0000
  C   C32       1.0  0.94981  0.62083  0.94794  1.0000
  N   N1        1.0  0.60312  0.34008  0.29367  1.0000
  N   N2        1.0  0.39688  0.65992  0.70633  1.0000
  N   N3        1.0  0.89330  0.39157  0.05085  1.0000
  N   N4        1.0  0.10670  0.60844  0.94915  1.0000
  O   O1        1.0  0.56252  0.16545  0.61507  1.0000
  O   O2        1.0  0.43749  0.83455  0.38493  1.0000
  O   O3        1.0  0.50650  0.38688  0.59116  1.0000
  O   O4        1.0  0.49349  0.61310  0.40884  1.0000
  O   O5        1.0  0.85285  0.35077  0.61254  1.0000
  O   O6        1.0  0.14715  0.64924  0.38746  1.0000
  O   O7        1.0  0.84889  0.75006  0.65378  1.0000
  O   O8        1.0  0.15111  0.24994  0.34622  1.0000
  O   O9        1.0  0.98055  0.70329  0.52849  1.0000
  O   O10       1.0  0.01945  0.29670  0.47152  1.0000
