data_image0
_chemical_formula_structural       Pr2H34C51N4O15
_chemical_formula_sum              "Pr2 H34 C51 N4 O15"
_cell_length_a       8.50101
_cell_length_b       10.7433
_cell_length_c       13.1596
_cell_angle_alpha    95.714
_cell_angle_beta     104.549
_cell_angle_gamma    97.6185

_space_group_name_H-M_alt    "P 1"
_space_group_IT_number       1

loop_
  _space_group_symop_operation_xyz
  'x, y, z'

loop_
  _atom_site_type_symbol
  _atom_site_label
  _atom_site_symmetry_multiplicity
  _atom_site_fract_x
  _atom_site_fract_y
  _atom_site_fract_z
  _atom_site_occupancy
  Pr  Pr1       1.0  0.00235  0.14390  0.90728  1.0000
  Pr  Pr2       1.0  0.74917  0.19409  0.60916  1.0000
  H   H1        1.0  0.81235  0.82458  0.12596  1.0000
  H   H2        1.0  0.65354  0.60935  0.12526  1.0000
  H   H3        1.0  0.76935  0.47744  0.83591  1.0000
  H   H4        1.0  0.93940  0.68596  0.84542  1.0000
  H   H5        1.0  0.48563  0.40889  0.81823  1.0000
  H   H6        1.0  0.41283  0.28749  0.88565  1.0000
  H   H7        1.0  0.21474  0.42927  0.70705  1.0000
  H   H8        1.0  0.05745  0.52189  0.71311  1.0000
  H   H9        1.0  0.45805  0.76904  0.95017  1.0000
  H   H10       1.0  0.64031  0.93421  0.89183  1.0000
  H   H11       1.0  0.46202  0.74615  0.57193  1.0000
  H   H12       1.0  0.28547  0.57944  0.62823  1.0000
  H   H13       1.0  0.96307  0.51327  0.39941  1.0000
  H   H14       1.0  0.11742  0.72996  0.39837  1.0000
  H   H15       1.0  0.97692  0.86721  0.67717  1.0000
  H   H16       1.0  0.80842  0.65876  0.66749  1.0000
  H   H17       1.0  0.34242  0.05745  0.63366  1.0000
  H   H18       1.0  0.27235  0.93582  0.70157  1.0000
  H   H19       1.0  0.35037  0.00462  0.93878  1.0000
  H   H20       1.0  0.64785  0.02164  0.04421  1.0000
  H   H21       1.0  0.75649  0.18544  0.20305  1.0000
  H   H22       1.0  0.70848  0.36047  0.32461  1.0000
  H   H23       1.0  0.52353  0.50447  0.36935  1.0000
  H   H24       1.0  0.24550  0.56817  0.33217  1.0000
  H   H25       1.0  0.94975  0.52797  0.22170  1.0000
  H   H26       1.0  0.85932  0.34714  0.07352  1.0000
  H   H27       1.0  0.88803  0.99440  0.43738  1.0000
  H   H28       1.0  0.78856  0.81010  0.29251  1.0000
  H   H29       1.0  0.49151  0.77347  0.18492  1.0000
  H   H30       1.0  0.21607  0.84413  0.14963  1.0000
  H   H31       1.0  0.03726  0.99076  0.19772  1.0000
  H   H32       1.0  0.99547  0.16519  0.32485  1.0000
  H   H33       1.0  0.11133  0.32559  0.48543  1.0000
  H   H34       1.0  0.41283  0.34137  0.58362  1.0000
  C   C1        1.0  0.95500  0.89902  0.97402  1.0000
  C   C2        1.0  0.88511  0.76845  0.98530  1.0000
  C   C3        1.0  0.80726  0.74601  0.06552  1.0000
  C   C4        1.0  0.71778  0.62791  0.06486  1.0000
  C   C5        1.0  0.69837  0.53140  0.98020  1.0000
  C   C6        1.0  0.78069  0.55113  0.90158  1.0000
  C   C7        1.0  0.87582  0.66838  0.90615  1.0000
  C   C8        1.0  0.52371  0.34697  0.87839  1.0000
  C   C9        1.0  0.63286  0.26143  0.84027  1.0000
  C   C10       1.0  0.08792  0.38120  0.81949  1.0000
  C   C11       1.0  0.15719  0.48050  0.76152  1.0000
  C   C12       1.0  0.36414  0.66296  0.79423  1.0000
  C   C13       1.0  0.46248  0.76443  0.86794  1.0000
  C   C14       1.0  0.56360  0.85512  0.83535  1.0000
  C   C15       1.0  0.56550  0.84858  0.72872  1.0000
  C   C16       1.0  0.46412  0.74861  0.65524  1.0000
  C   C17       1.0  0.36457  0.65521  0.68715  1.0000
  C   C18       1.0  0.65861  0.95301  0.69163  1.0000
  C   C19       1.0  0.80607  0.44182  0.54545  1.0000
  C   C20       1.0  0.87752  0.57225  0.53429  1.0000
  C   C21       1.0  0.96238  0.59314  0.45713  1.0000
  C   C22       1.0  0.04931  0.71199  0.45693  1.0000
  C   C23       1.0  0.97206  0.79218  0.61399  1.0000
  C   C24       1.0  0.87825  0.67438  0.60957  1.0000
  C   C25       1.0  0.06086  0.81058  0.53848  1.0000
  C   C26       1.0  0.23250  0.99627  0.64054  1.0000
  C   C27       1.0  0.12004  0.07960  0.67691  1.0000
  C   C28       1.0  0.40297  0.07416  0.00961  1.0000
  C   C29       1.0  0.56787  0.08310  0.06843  1.0000
  C   C30       1.0  0.62860  0.17422  0.15632  1.0000
  C   C31       1.0  0.52546  0.25545  0.18579  1.0000
  C   C32       1.0  0.58263  0.35264  0.27525  1.0000
  C   C33       1.0  0.47983  0.43051  0.30087  1.0000
  C   C34       1.0  0.31126  0.41449  0.24051  1.0000
  C   C35       1.0  0.20065  0.49194  0.26548  1.0000
  C   C36       1.0  0.03837  0.46936  0.20598  1.0000
  C   C37       1.0  0.98666  0.36835  0.12216  1.0000
  C   C38       1.0  0.24887  0.31650  0.15262  1.0000
  C   C39       1.0  0.35951  0.23777  0.12289  1.0000
  C   C40       1.0  0.75981  0.97477  0.39009  1.0000
  C   C41       1.0  0.70303  0.87176  0.30818  1.0000
  C   C42       1.0  0.53982  0.85115  0.25024  1.0000
  C   C43       1.0  0.43304  0.93198  0.27579  1.0000
  C   C44       1.0  0.26345  0.91815  0.21786  1.0000
  C   C45       1.0  0.16382  0.99762  0.24559  1.0000
  C   C46       1.0  0.22498  0.09431  0.33524  1.0000
  C   C47       1.0  0.12470  0.17544  0.36874  1.0000
  C   C48       1.0  0.18949  0.26508  0.45749  1.0000
  C   C49       1.0  0.35588  0.27296  0.51251  1.0000
  C   C50       1.0  0.39248  0.11056  0.39505  1.0000
  C   C51       1.0  0.50013  0.03076  0.36260  1.0000
  N   N1        1.0  0.30153  0.14876  0.03568  1.0000
  N   N2        1.0  0.08806  0.29422  0.09585  1.0000
  N   N3        1.0  0.45441  0.19825  0.48276  1.0000
  N   N4        1.0  0.66206  0.05202  0.41669  1.0000
  O   O1        1.0  0.91169  0.99377  0.02293  1.0000
  O   O2        1.0  0.04631  0.91635  0.91147  1.0000
  O   O3        1.0  0.59570  0.42204  0.97981  1.0000
  O   O4        1.0  0.75028  0.23076  0.90864  1.0000
  O   O5        1.0  0.59244  0.22705  0.74065  1.0000
  O   O6        1.0  0.16417  0.36504  0.91081  1.0000
  O   O7        1.0  0.95226  0.31018  0.76683  1.0000
  O   O8        1.0  0.27365  0.57612  0.83479  1.0000
  O   O9        1.0  0.78794  0.02307  0.75452  1.0000
  O   O10       1.0  0.60321  0.97471  0.59696  1.0000
  O   O11       1.0  0.85115  0.34682  0.49840  1.0000
  O   O12       1.0  0.71147  0.42584  0.60610  1.0000
  O   O13       1.0  0.16350  0.91998  0.53922  1.0000
  O   O14       1.0  0.00096  0.10758  0.60808  1.0000
  O   O15       1.0  0.15909  0.11529  0.77629  1.0000
