data_image0
_chemical_formula_structural       Zn4H32C48Br4N8O16
_chemical_formula_sum              "Zn4 H32 C48 Br4 N8 O16"
_cell_length_a       8.22923
_cell_length_b       11.9178
_cell_length_c       15.4699
_cell_angle_alpha    84.3414
_cell_angle_beta     74.5649
_cell_angle_gamma    69.8146

_space_group_name_H-M_alt    "P 1"
_space_group_IT_number       1

loop_
  _space_group_symop_operation_xyz
  'x, y, z'

loop_
  _atom_site_type_symbol
  _atom_site_label
  _atom_site_symmetry_multiplicity
  _atom_site_fract_x
  _atom_site_fract_y
  _atom_site_fract_z
  _atom_site_occupancy
  Zn  Zn1       1.0  0.26474  0.24775  0.62073  1.0000
  Zn  Zn2       1.0  0.13345  0.25206  0.87909  1.0000
  Zn  Zn3       1.0  0.73526  0.75226  0.37927  1.0000
  Zn  Zn4       1.0  0.86655  0.74794  0.12091  1.0000
  H   H1        1.0  0.95712  0.54134  0.59766  1.0000
  H   H2        1.0  0.09603  0.95877  0.90217  1.0000
  H   H3        1.0  0.04288  0.45865  0.40233  1.0000
  H   H4        1.0  0.90396  0.04123  0.09783  1.0000
  H   H5        1.0  0.61564  0.89149  0.69711  1.0000
  H   H6        1.0  0.20454  0.60824  0.80316  1.0000
  H   H7        1.0  0.38436  0.10850  0.30289  1.0000
  H   H8        1.0  0.79546  0.39176  0.19684  1.0000
  H   H9        1.0  0.83358  0.61781  0.87953  1.0000
  H   H10       1.0  0.33122  0.88170  0.62038  1.0000
  H   H11       1.0  0.16643  0.38218  0.12047  1.0000
  H   H12       1.0  0.66879  0.11830  0.37962  1.0000
  H   H13       1.0  0.54024  0.37019  0.65458  1.0000
  H   H14       1.0  0.56548  0.12981  0.84512  1.0000
  H   H15       1.0  0.45975  0.62981  0.34542  1.0000
  H   H16       1.0  0.43452  0.87018  0.15488  1.0000
  H   H17       1.0  0.90555  0.23942  0.61268  1.0000
  H   H18       1.0  0.75777  0.26074  0.88720  1.0000
  H   H19       1.0  0.09444  0.76058  0.38732  1.0000
  H   H20       1.0  0.24223  0.73926  0.11280  1.0000
  H   H21       1.0  0.61934  0.02814  0.56127  1.0000
  H   H22       1.0  0.20878  0.47161  0.93871  1.0000
  H   H23       1.0  0.38065  0.97186  0.43873  1.0000
  H   H24       1.0  0.79122  0.52838  0.06129  1.0000
  H   H25       1.0  0.95848  0.92480  0.58453  1.0000
  H   H26       1.0  0.46744  0.57523  0.91553  1.0000
  H   H27       1.0  0.04152  0.07520  0.41547  1.0000
  H   H28       1.0  0.53256  0.42477  0.08446  1.0000
  H   H29       1.0  0.07870  0.02651  0.57324  1.0000
  H   H30       1.0  0.67824  0.47367  0.92664  1.0000
  H   H31       1.0  0.92130  0.97350  0.42676  1.0000
  H   H32       1.0  0.32175  0.52633  0.07336  1.0000
  C   C1        1.0  0.01432  0.44151  0.75677  1.0000
  C   C2        1.0  0.21272  0.05826  0.74294  1.0000
  C   C3        1.0  0.98568  0.55849  0.24323  1.0000
  C   C4        1.0  0.78728  0.94174  0.25706  1.0000
  C   C5        1.0  0.90272  0.56644  0.74057  1.0000
  C   C6        1.0  0.20972  0.93337  0.75927  1.0000
  C   C7        1.0  0.09728  0.43356  0.25943  1.0000
  C   C8        1.0  0.79028  0.06663  0.24073  1.0000
  C   C9        1.0  0.88835  0.60337  0.65340  1.0000
  C   C10       1.0  0.14504  0.89663  0.84651  1.0000
  C   C11       1.0  0.11165  0.39663  0.34660  1.0000
  C   C12       1.0  0.85495  0.10338  0.15349  1.0000
  C   C13       1.0  0.78228  0.72001  0.63836  1.0000
  C   C14       1.0  0.14055  0.77998  0.86170  1.0000
  C   C15       1.0  0.21772  0.27999  0.36164  1.0000
  C   C16       1.0  0.85945  0.22003  0.13831  1.0000
  C   C17       1.0  0.69710  0.80082  0.70971  1.0000
  C   C18       1.0  0.20783  0.69895  0.79047  1.0000
  C   C19       1.0  0.30290  0.19918  0.29029  1.0000
  C   C20       1.0  0.79217  0.30105  0.20954  1.0000
  C   C21       1.0  0.71669  0.76309  0.79556  1.0000
  C   C22       1.0  0.27572  0.73650  0.70458  1.0000
  C   C23       1.0  0.28333  0.23691  0.20445  1.0000
  C   C24       1.0  0.72428  0.26350  0.29542  1.0000
  C   C25       1.0  0.81620  0.64603  0.81250  1.0000
  C   C26       1.0  0.27488  0.85361  0.68744  1.0000
  C   C27       1.0  0.18381  0.35397  0.18750  1.0000
  C   C28       1.0  0.72512  0.14639  0.31256  1.0000
  C   C29       1.0  0.75127  0.75967  0.54734  1.0000
  C   C30       1.0  0.05812  0.74045  0.95278  1.0000
  C   C31       1.0  0.24873  0.24033  0.45266  1.0000
  C   C32       1.0  0.94188  0.25955  0.04722  1.0000
  C   C33       1.0  0.61118  0.28009  0.62944  1.0000
  C   C34       1.0  0.52103  0.21990  0.87033  1.0000
  C   C35       1.0  0.38881  0.71991  0.37056  1.0000
  C   C36       1.0  0.47897  0.78010  0.12967  1.0000
  C   C37       1.0  0.79069  0.21673  0.60970  1.0000
  C   C38       1.0  0.61725  0.28332  0.89019  1.0000
  C   C39       1.0  0.20931  0.78327  0.39030  1.0000
  C   C40       1.0  0.38275  0.71667  0.10981  1.0000
  C   C41       1.0  0.64412  0.10474  0.58138  1.0000
  C   C42       1.0  0.33032  0.39509  0.91855  1.0000
  C   C43       1.0  0.35587  0.89526  0.41862  1.0000
  C   C44       1.0  0.66968  0.60491  0.08145  1.0000
  C   C45       1.0  0.97510  0.00727  0.55104  1.0000
  C   C46       1.0  0.53325  0.49277  0.94894  1.0000
  C   C47       1.0  0.02490  0.99273  0.44896  1.0000
  C   C48       1.0  0.46674  0.50723  0.05106  1.0000
  Br  Br1       1.0  0.60311  0.87252  0.89281  1.0000
  Br  Br2       1.0  0.36976  0.62655  0.60765  1.0000
  Br  Br3       1.0  0.39691  0.12748  0.10719  1.0000
  Br  Br4       1.0  0.63024  0.37345  0.39235  1.0000
  N   N1        1.0  0.52207  0.20923  0.61146  1.0000
  N   N2        1.0  0.34304  0.29064  0.88831  1.0000
  N   N3        1.0  0.47793  0.79077  0.38854  1.0000
  N   N4        1.0  0.65696  0.70936  0.11169  1.0000
  N   N5        1.0  0.80878  0.10608  0.58012  1.0000
  N   N6        1.0  0.49497  0.39388  0.91985  1.0000
  N   N7        1.0  0.19122  0.89392  0.41988  1.0000
  N   N8        1.0  0.50503  0.60612  0.08015  1.0000
  O   O1        1.0  0.15353  0.39342  0.69593  1.0000
  O   O2        1.0  0.24298  0.10642  0.80374  1.0000
  O   O3        1.0  0.84648  0.60658  0.30407  1.0000
  O   O4        1.0  0.75702  0.89359  0.19625  1.0000
  O   O5        1.0  0.96371  0.39239  0.83181  1.0000
  O   O6        1.0  0.18807  0.10733  0.66789  1.0000
  O   O7        1.0  0.03629  0.60761  0.16819  1.0000
  O   O8        1.0  0.81192  0.89267  0.33211  1.0000
  O   O9        1.0  0.83885  0.68414  0.48246  1.0000
  O   O10       1.0  0.00499  0.81613  0.01758  1.0000
  O   O11       1.0  0.16115  0.31586  0.51754  1.0000
  O   O12       1.0  0.99500  0.18387  0.98242  1.0000
  O   O13       1.0  0.64188  0.86096  0.53711  1.0000
  O   O14       1.0  0.04008  0.63905  0.96313  1.0000
  O   O15       1.0  0.35811  0.13904  0.46290  1.0000
  O   O16       1.0  0.95992  0.36095  0.03687  1.0000
