data_image0
_chemical_formula_structural       Ag4P4H24C32N8O18
_chemical_formula_sum              "Ag4 P4 H24 C32 N8 O18"
_cell_length_a       7.7341
_cell_length_b       10.1204
_cell_length_c       13.9046
_cell_angle_alpha    107.137
_cell_angle_beta     97.9815
_cell_angle_gamma    106.329

_space_group_name_H-M_alt    "P 1"
_space_group_IT_number       1

loop_
  _space_group_symop_operation_xyz
  'x, y, z'

loop_
  _atom_site_type_symbol
  _atom_site_label
  _atom_site_symmetry_multiplicity
  _atom_site_fract_x
  _atom_site_fract_y
  _atom_site_fract_z
  _atom_site_occupancy
  Ag  Ag1       1.0  0.82798  0.57920  0.54949  1.0000
  Ag  Ag2       1.0  0.17202  0.42080  0.45051  1.0000
  Ag  Ag3       1.0  0.45497  0.07917  0.09807  1.0000
  Ag  Ag4       1.0  0.54503  0.92083  0.90194  1.0000
  P   P1        1.0  0.08327  0.21423  0.11572  1.0000
  P   P2        1.0  0.91673  0.78577  0.88428  1.0000
  P   P3        1.0  0.69719  0.23763  0.34742  1.0000
  P   P4        1.0  0.30281  0.76237  0.65259  1.0000
  H   H1        1.0  0.29681  0.00640  0.23676  1.0000
  H   H2        1.0  0.70319  0.99360  0.76325  1.0000
  H   H3        1.0  0.09811  0.53737  0.17908  1.0000
  H   H4        1.0  0.90189  0.46263  0.82092  1.0000
  H   H5        1.0  0.98437  0.58481  0.33975  1.0000
  H   H6        1.0  0.01562  0.41518  0.66024  1.0000
  H   H7        1.0  0.02314  0.84004  0.44832  1.0000
  H   H8        1.0  0.97685  0.15995  0.55168  1.0000
  H   H9        1.0  0.46940  0.61438  0.79714  1.0000
  H   H10       1.0  0.53061  0.38563  0.20286  1.0000
  H   H11       1.0  0.36794  0.14612  0.68258  1.0000
  H   H12       1.0  0.63207  0.85389  0.31742  1.0000
  H   H13       1.0  0.22265  0.12227  0.82703  1.0000
  H   H14       1.0  0.77735  0.87774  0.17296  1.0000
  H   H15       1.0  0.20601  0.34041  0.95974  1.0000
  H   H16       1.0  0.79399  0.65960  0.04026  1.0000
  H   H17       1.0  0.87276  0.99084  0.05626  1.0000
  H   H18       1.0  0.12724  0.00915  0.94374  1.0000
  H   H19       1.0  0.31251  0.25445  0.25143  1.0000
  H   H20       1.0  0.68749  0.74555  0.74858  1.0000
  H   H21       1.0  0.82294  0.11817  0.22748  1.0000
  H   H22       1.0  0.17706  0.88183  0.77253  1.0000
  H   H23       1.0  0.62030  0.24894  0.49188  1.0000
  H   H24       1.0  0.37970  0.75106  0.50812  1.0000
  C   C1        1.0  0.17705  0.08470  0.40438  1.0000
  C   C2        1.0  0.82295  0.91530  0.59562  1.0000
  C   C3        1.0  0.16002  0.93797  0.34753  1.0000
  C   C4        1.0  0.83998  0.06203  0.65247  1.0000
  C   C5        1.0  0.22688  0.91332  0.25774  1.0000
  C   C6        1.0  0.77311  0.08668  0.74226  1.0000
  C   C7        1.0  0.20519  0.76940  0.19760  1.0000
  C   C8        1.0  0.79480  0.23060  0.80240  1.0000
  C   C9        1.0  0.11752  0.65055  0.22707  1.0000
  C   C10       1.0  0.88248  0.34945  0.77293  1.0000
  C   C11       1.0  0.05336  0.67730  0.31742  1.0000
  C   C12       1.0  0.94663  0.32269  0.68258  1.0000
  C   C13       1.0  0.07356  0.81991  0.37807  1.0000
  C   C14       1.0  0.92643  0.18008  0.62192  1.0000
  C   C15       1.0  0.27404  0.74453  0.10462  1.0000
  C   C16       1.0  0.72597  0.25547  0.89538  1.0000
  C   C17       1.0  0.33288  0.62162  0.96530  1.0000
  C   C18       1.0  0.66712  0.37838  0.03470  1.0000
  C   C19       1.0  0.34008  0.49245  0.88792  1.0000
  C   C20       1.0  0.65993  0.50755  0.11209  1.0000
  C   C21       1.0  0.42020  0.50803  0.80602  1.0000
  C   C22       1.0  0.57981  0.49199  0.19398  1.0000
  C   C23       1.0  0.43205  0.38362  0.73284  1.0000
  C   C24       1.0  0.56796  0.61638  0.26716  1.0000
  C   C25       1.0  0.36017  0.24325  0.73975  1.0000
  C   C26       1.0  0.63983  0.75676  0.26025  1.0000
  C   C27       1.0  0.27933  0.23011  0.82149  1.0000
  C   C28       1.0  0.72068  0.76990  0.17851  1.0000
  C   C29       1.0  0.26937  0.35294  0.89601  1.0000
  C   C30       1.0  0.73063  0.64707  0.10399  1.0000
  C   C31       1.0  0.52185  0.40193  0.65281  1.0000
  C   C32       1.0  0.47816  0.59808  0.34718  1.0000
  N   N1        1.0  0.36147  0.83983  0.06543  1.0000
  N   N2        1.0  0.63854  0.16018  0.93457  1.0000
  N   N3        1.0  0.39794  0.76093  0.97563  1.0000
  N   N4        1.0  0.60206  0.23907  0.02438  1.0000
  N   N5        1.0  0.59961  0.41705  0.58836  1.0000
  N   N6        1.0  0.40039  0.58295  0.41164  1.0000
  N   N7        1.0  0.18953  0.20619  0.44738  1.0000
  N   N8        1.0  0.81046  0.79380  0.55262  1.0000
  O   O1        1.0  0.25449  0.60552  0.04501  1.0000
  O   O2        1.0  0.74552  0.39448  0.95499  1.0000
  O   O3        1.0  0.18942  0.14095  0.04438  1.0000
  O   O4        1.0  0.81058  0.85904  0.95562  1.0000
  O   O5        1.0  0.91116  0.08369  0.12218  1.0000
  O   O6        1.0  0.08884  0.91631  0.87783  1.0000
  O   O7        1.0  0.01931  0.32779  0.08900  1.0000
  O   O8        1.0  0.98068  0.67220  0.91100  1.0000
  O   O9        1.0  0.20407  0.28518  0.23370  1.0000
  O   O10       1.0  0.79593  0.71482  0.76630  1.0000
  O   O11       1.0  0.52291  0.23276  0.27776  1.0000
  O   O12       1.0  0.47709  0.76723  0.72224  1.0000
  O   O13       1.0  0.77424  0.11368  0.29012  1.0000
  O   O14       1.0  0.22576  0.88632  0.70989  1.0000
  O   O15       1.0  0.64067  0.17313  0.43571  1.0000
  O   O16       1.0  0.35933  0.82686  0.56430  1.0000
  O   O17       1.0  0.84806  0.38895  0.39528  1.0000
  O   O18       1.0  0.15194  0.61105  0.60472  1.0000
