data_image0
_chemical_formula_structural       Dy2H34C52N8O18
_chemical_formula_sum              "Dy2 H34 C52 N8 O18"
_cell_length_a       9.04668
_cell_length_b       9.32231
_cell_length_c       15.9762
_cell_angle_alpha    75.0601
_cell_angle_beta     74.1639
_cell_angle_gamma    77.4355

_space_group_name_H-M_alt    "P 1"
_space_group_IT_number       1

loop_
  _space_group_symop_operation_xyz
  'x, y, z'

loop_
  _atom_site_type_symbol
  _atom_site_label
  _atom_site_symmetry_multiplicity
  _atom_site_fract_x
  _atom_site_fract_y
  _atom_site_fract_z
  _atom_site_occupancy
  Dy  Dy1       1.0  0.69068  0.89049  0.72186  1.0000
  Dy  Dy2       1.0  0.30932  0.10951  0.27814  1.0000
  H   H1        1.0  0.28526  0.25842  0.94047  1.0000
  H   H2        1.0  0.71474  0.74158  0.05952  1.0000
  H   H3        1.0  0.41935  0.71835  0.88190  1.0000
  H   H4        1.0  0.58065  0.28166  0.11811  1.0000
  H   H5        1.0  0.13570  0.75733  0.96246  1.0000
  H   H6        1.0  0.86430  0.24267  0.03755  1.0000
  H   H7        1.0  0.96539  0.99258  0.90999  1.0000
  H   H8        1.0  0.03460  0.00742  0.09001  1.0000
  H   H9        1.0  0.04317  0.39907  0.65349  1.0000
  H   H10       1.0  0.95683  0.60093  0.34651  1.0000
  H   H11       1.0  0.93441  0.23313  0.79553  1.0000
  H   H12       1.0  0.06558  0.76687  0.20447  1.0000
  H   H13       1.0  0.27074  0.45241  0.52344  1.0000
  H   H14       1.0  0.72926  0.54759  0.47656  1.0000
  H   H15       1.0  0.54725  0.37735  0.45042  1.0000
  H   H16       1.0  0.45275  0.62264  0.54958  1.0000
  H   H17       1.0  0.70561  0.15016  0.52684  1.0000
  H   H18       1.0  0.29439  0.84984  0.47317  1.0000
  H   H19       1.0  0.64087  0.17278  0.99088  1.0000
  H   H20       1.0  0.35913  0.82722  0.00912  1.0000
  H   H21       1.0  0.63741  0.44371  0.90395  1.0000
  H   H22       1.0  0.36260  0.55629  0.09605  1.0000
  H   H23       1.0  0.67704  0.27931  0.66988  1.0000
  H   H24       1.0  0.32295  0.72069  0.33012  1.0000
  H   H25       1.0  0.32317  0.79338  0.64404  1.0000
  H   H26       1.0  0.67683  0.20662  0.35596  1.0000
  H   H27       1.0  0.36669  0.54996  0.75670  1.0000
  H   H28       1.0  0.63331  0.45004  0.24329  1.0000
  H   H29       1.0  0.86946  0.58939  0.85136  1.0000
  H   H30       1.0  0.13055  0.41061  0.14864  1.0000
  H   H31       1.0  0.79978  0.86724  0.52617  1.0000
  H   H32       1.0  0.20022  0.13276  0.47383  1.0000
  H   H33       1.0  0.73500  0.71226  0.59329  1.0000
  H   H34       1.0  0.26501  0.28774  0.40671  1.0000
  C   C1        1.0  0.33934  0.81817  0.85989  1.0000
  C   C2        1.0  0.66066  0.18184  0.14011  1.0000
  C   C3        1.0  0.18209  0.84050  0.90488  1.0000
  C   C4        1.0  0.81791  0.15950  0.09512  1.0000
  C   C5        1.0  0.08706  0.97057  0.87508  1.0000
  C   C6        1.0  0.91294  0.02943  0.12492  1.0000
  C   C7        1.0  0.14782  0.07439  0.79833  1.0000
  C   C8        1.0  0.85218  0.92561  0.20167  1.0000
  C   C9        1.0  0.30739  0.04042  0.75627  1.0000
  C   C10       1.0  0.69261  0.95958  0.24373  1.0000
  C   C11       1.0  0.37246  0.13819  0.67488  1.0000
  C   C12       1.0  0.62753  0.86181  0.32512  1.0000
  C   C13       1.0  0.27512  0.26666  0.63777  1.0000
  C   C14       1.0  0.72488  0.73334  0.36223  1.0000
  C   C15       1.0  0.11579  0.29982  0.68312  1.0000
  C   C16       1.0  0.88421  0.70018  0.31688  1.0000
  C   C17       1.0  0.05513  0.20772  0.76075  1.0000
  C   C18       1.0  0.94487  0.79228  0.23925  1.0000
  C   C19       1.0  0.34144  0.35447  0.55554  1.0000
  C   C20       1.0  0.65856  0.64553  0.44446  1.0000
  C   C21       1.0  0.49505  0.31260  0.51472  1.0000
  C   C22       1.0  0.50494  0.68740  0.48528  1.0000
  C   C23       1.0  0.58364  0.18542  0.55690  1.0000
  C   C24       1.0  0.41636  0.81458  0.44310  1.0000
  C   C25       1.0  0.67189  0.92575  0.92278  1.0000
  C   C26       1.0  0.32811  0.07425  0.07722  1.0000
  C   C27       1.0  0.65870  0.08953  0.87560  1.0000
  C   C28       1.0  0.34129  0.91047  0.12440  1.0000
  C   C29       1.0  0.64710  0.20365  0.91989  1.0000
  C   C30       1.0  0.35290  0.79635  0.08011  1.0000
  C   C31       1.0  0.64500  0.35132  0.87203  1.0000
  C   C32       1.0  0.35500  0.64868  0.12797  1.0000
  C   C33       1.0  0.65753  0.37989  0.78025  1.0000
  C   C34       1.0  0.34248  0.62011  0.21975  1.0000
  C   C35       1.0  0.66586  0.25924  0.74134  1.0000
  C   C36       1.0  0.33414  0.74076  0.25866  1.0000
  C   C37       1.0  0.66885  0.53336  0.72141  1.0000
  C   C38       1.0  0.33116  0.46664  0.27859  1.0000
  C   C39       1.0  0.03784  0.96309  0.62593  1.0000
  C   C40       1.0  0.96215  0.03692  0.37407  1.0000
  C   C41       1.0  0.07492  0.81381  0.68886  1.0000
  C   C42       1.0  0.92508  0.18619  0.31114  1.0000
  C   C43       1.0  0.22679  0.74188  0.69036  1.0000
  C   C44       1.0  0.77321  0.25812  0.30964  1.0000
  C   C45       1.0  0.25009  0.60881  0.75287  1.0000
  C   C46       1.0  0.74991  0.39119  0.24713  1.0000
  C   C47       1.0  0.12114  0.55178  0.81283  1.0000
  C   C48       1.0  0.87886  0.44822  0.18717  1.0000
  C   C49       1.0  0.97295  0.62950  0.80583  1.0000
  C   C50       1.0  0.02706  0.37049  0.19417  1.0000
  C   C51       1.0  0.13331  0.41322  0.88483  1.0000
  C   C52       1.0  0.86669  0.58678  0.11516  1.0000
  N   N1        1.0  0.40146  0.91541  0.78847  1.0000
  N   N2        1.0  0.59854  0.08459  0.21153  1.0000
  N   N3        1.0  0.52479  0.10064  0.63525  1.0000
  N   N4        1.0  0.47521  0.89936  0.36476  1.0000
  N   N5        1.0  0.66448  0.11737  0.78766  1.0000
  N   N6        1.0  0.33552  0.88263  0.21234  1.0000
  N   N7        1.0  0.95066  0.75622  0.74502  1.0000
  N   N8        1.0  0.04935  0.24377  0.25498  1.0000
  O   O1        1.0  0.67243  0.83144  0.87732  1.0000
  O   O2        1.0  0.32755  0.16856  0.12269  1.0000
  O   O3        1.0  0.68475  0.89615  0.00246  1.0000
  O   O4        1.0  0.31526  0.10385  0.99754  1.0000
  O   O5        1.0  0.64787  0.64302  0.76027  1.0000
  O   O6        1.0  0.35212  0.35698  0.23973  1.0000
  O   O7        1.0  0.69922  0.54299  0.63828  1.0000
  O   O8        1.0  0.30079  0.45701  0.36172  1.0000
  O   O9        1.0  0.89332  0.01932  0.63559  1.0000
  O   O10       1.0  0.10668  0.98069  0.36441  1.0000
  O   O11       1.0  0.15094  0.01806  0.57186  1.0000
  O   O12       1.0  0.84906  0.98194  0.42814  1.0000
  O   O13       1.0  0.01675  0.36057  0.93188  1.0000
  O   O14       1.0  0.98325  0.63942  0.06812  1.0000
  O   O15       1.0  0.27856  0.35714  0.89124  1.0000
  O   O16       1.0  0.72144  0.64286  0.10875  1.0000
  O   O17       1.0  0.75045  0.81828  0.58803  1.0000
  O   O18       1.0  0.24954  0.18173  0.41197  1.0000
