data_image0
_chemical_formula_structural       Cu2H24C26S2N14
_chemical_formula_sum              "Cu2 H24 C26 S2 N14"
_cell_length_a       5.48831
_cell_length_b       10.7539
_cell_length_c       15.1926
_cell_angle_alpha    89.9997
_cell_angle_beta     90.001
_cell_angle_gamma    109.511

_space_group_name_H-M_alt    "P 1"
_space_group_IT_number       1

loop_
  _space_group_symop_operation_xyz
  'x, y, z'

loop_
  _atom_site_type_symbol
  _atom_site_label
  _atom_site_symmetry_multiplicity
  _atom_site_fract_x
  _atom_site_fract_y
  _atom_site_fract_z
  _atom_site_occupancy
  Cu  Cu1       1.0  0.51934  0.59649  0.25000  1.0000
  Cu  Cu2       1.0  0.48066  0.40351  0.75000  1.0000
  H   H1        1.0  0.95989  0.54915  0.38815  1.0000
  H   H2        1.0  0.04009  0.45085  0.88816  1.0000
  H   H3        1.0  0.04010  0.45084  0.61184  1.0000
  H   H4        1.0  0.95991  0.54916  0.11184  1.0000
  H   H5        1.0  0.15565  0.35573  0.37490  1.0000
  H   H6        1.0  0.84432  0.64427  0.87490  1.0000
  H   H7        1.0  0.84434  0.64427  0.62509  1.0000
  H   H8        1.0  0.15568  0.35573  0.12509  1.0000
  H   H9        1.0  0.10891  0.19701  0.49922  1.0000
  H   H10       1.0  0.89108  0.80298  0.99922  1.0000
  H   H11       1.0  0.89107  0.80299  0.50078  1.0000
  H   H12       1.0  0.10895  0.19701  0.00077  1.0000
  H   H13       1.0  0.34105  0.26217  0.58347  1.0000
  H   H14       1.0  0.65894  0.73783  0.08348  1.0000
  H   H15       1.0  0.65893  0.73784  0.41653  1.0000
  H   H16       1.0  0.34109  0.26217  0.91652  1.0000
  H   H17       1.0  0.18083  0.02621  0.39152  1.0000
  H   H18       1.0  0.81918  0.97378  0.89152  1.0000
  H   H19       1.0  0.81917  0.97379  0.60848  1.0000
  H   H20       1.0  0.18087  0.02622  0.10848  1.0000
  H   H21       1.0  0.34781  0.83982  0.37743  1.0000
  H   H22       1.0  0.65220  0.16019  0.87742  1.0000
  H   H23       1.0  0.65217  0.16018  0.62258  1.0000
  H   H24       1.0  0.34786  0.83983  0.12258  1.0000
  C   C1        1.0  0.08358  0.71504  0.25000  1.0000
  C   C2        1.0  0.91639  0.28496  0.75000  1.0000
  C   C3        1.0  0.76631  0.48120  0.40026  1.0000
  C   C4        1.0  0.23366  0.51880  0.90026  1.0000
  C   C5        1.0  0.23369  0.51879  0.59974  1.0000
  C   C6        1.0  0.76634  0.48121  0.09974  1.0000
  C   C7        1.0  0.35948  0.38513  0.39135  1.0000
  C   C8        1.0  0.64050  0.61487  0.89135  1.0000
  C   C9        1.0  0.64051  0.61486  0.60865  1.0000
  C   C10       1.0  0.35949  0.38514  0.10865  1.0000
  C   C11       1.0  0.31451  0.22295  0.51603  1.0000
  C   C12       1.0  0.68548  0.77703  0.01603  1.0000
  C   C13       1.0  0.68546  0.77704  0.48397  1.0000
  C   C14       1.0  0.31455  0.22296  0.98397  1.0000
  C   C15       1.0  0.40643  0.10613  0.50820  1.0000
  C   C16       1.0  0.59355  0.89387  0.00822  1.0000
  C   C17       1.0  0.59353  0.89386  0.49179  1.0000
  C   C18       1.0  0.40648  0.10614  0.99181  1.0000
  C   C19       1.0  0.32201  0.01574  0.43912  1.0000
  C   C20       1.0  0.67800  0.98427  0.93913  1.0000
  C   C21       1.0  0.67797  0.98426  0.56088  1.0000
  C   C22       1.0  0.32205  0.01575  0.06088  1.0000
  C   C23       1.0  0.41509  0.91043  0.43098  1.0000
  C   C24       1.0  0.58490  0.08959  0.93098  1.0000
  C   C25       1.0  0.58488  0.08958  0.56902  1.0000
  C   C26       1.0  0.41513  0.91044  0.06903  1.0000
  S   S1        1.0  0.87547  0.79371  0.25000  1.0000
  S   S2        1.0  0.12454  0.20626  0.75000  1.0000
  N   N1        1.0  0.23299  0.65667  0.25000  1.0000
  N   N2        1.0  0.76699  0.34331  0.75000  1.0000
  N   N3        1.0  0.55240  0.48224  0.35419  1.0000
  N   N4        1.0  0.44758  0.51776  0.85419  1.0000
  N   N5        1.0  0.44760  0.51775  0.64581  1.0000
  N   N6        1.0  0.55242  0.48226  0.14581  1.0000
  N   N7        1.0  0.45478  0.32961  0.45621  1.0000
  N   N8        1.0  0.54521  0.67039  0.95621  1.0000
  N   N9        1.0  0.54521  0.67039  0.54379  1.0000
  N   N10       1.0  0.45481  0.32961  0.04378  1.0000
  N   N11       1.0  0.71494  0.38960  0.46290  1.0000
  N   N12       1.0  0.28505  0.61040  0.96290  1.0000
  N   N13       1.0  0.28505  0.61040  0.53710  1.0000
  N   N14       1.0  0.71497  0.38961  0.03710  1.0000
