data_image0
_chemical_formula_structural       V6Cu2H16C20N4O17
_chemical_formula_sum              "V6 Cu2 H16 C20 N4 O17"
_cell_length_a       8.01075
_cell_length_b       9.62493
_cell_length_c       10.5468
_cell_angle_alpha    98.8928
_cell_angle_beta     102.667
_cell_angle_gamma    106.274

_space_group_name_H-M_alt    "P 1"
_space_group_IT_number       1

loop_
  _space_group_symop_operation_xyz
  'x, y, z'

loop_
  _atom_site_type_symbol
  _atom_site_label
  _atom_site_symmetry_multiplicity
  _atom_site_fract_x
  _atom_site_fract_y
  _atom_site_fract_z
  _atom_site_occupancy
  V   V1        1.0  0.23010  0.01036  0.56194  1.0000
  V   V2        1.0  0.76989  0.98965  0.43806  1.0000
  V   V3        1.0  0.76005  0.05691  0.83994  1.0000
  V   V4        1.0  0.23996  0.94310  0.16007  1.0000
  V   V5        1.0  0.22436  0.09040  0.88024  1.0000
  V   V6        1.0  0.77564  0.90960  0.11977  1.0000
  Cu  Cu1       1.0  0.47364  0.75868  0.55891  1.0000
  Cu  Cu2       1.0  0.52637  0.24132  0.44110  1.0000
  H   H1        1.0  0.42962  0.79838  0.84009  1.0000
  H   H2        1.0  0.57038  0.20161  0.15991  1.0000
  H   H3        1.0  0.02797  0.29525  0.59513  1.0000
  H   H4        1.0  0.97202  0.70474  0.40486  1.0000
  H   H5        1.0  0.04031  0.37950  0.83179  1.0000
  H   H6        1.0  0.95969  0.62050  0.16821  1.0000
  H   H7        1.0  0.46563  0.64620  0.27365  1.0000
  H   H8        1.0  0.53437  0.35380  0.72634  1.0000
  H   H9        1.0  0.25008  0.63810  0.96092  1.0000
  H   H10       1.0  0.74993  0.36190  0.03908  1.0000
  H   H11       1.0  0.29109  0.40995  0.09825  1.0000
  H   H12       1.0  0.70890  0.59006  0.90175  1.0000
  H   H13       1.0  0.06717  0.20728  0.15842  1.0000
  H   H14       1.0  0.93283  0.79272  0.84158  1.0000
  H   H15       1.0  0.03400  0.24339  0.38915  1.0000
  H   H16       1.0  0.96600  0.75660  0.61085  1.0000
  C   C1        1.0  0.23035  0.46428  0.45276  1.0000
  C   C2        1.0  0.76964  0.53571  0.54724  1.0000
  C   C3        1.0  0.33960  0.68623  0.79026  1.0000
  C   C4        1.0  0.66039  0.31377  0.20974  1.0000
  C   C5        1.0  0.11745  0.40546  0.65172  1.0000
  C   C6        1.0  0.88256  0.59453  0.34828  1.0000
  C   C7        1.0  0.22359  0.50126  0.59180  1.0000
  C   C8        1.0  0.77641  0.49873  0.40820  1.0000
  C   C9        1.0  0.12486  0.45336  0.78522  1.0000
  C   C10       1.0  0.87515  0.54664  0.21478  1.0000
  C   C11       1.0  0.36864  0.55379  0.29388  1.0000
  C   C12       1.0  0.63135  0.44620  0.70611  1.0000
  C   C13       1.0  0.23808  0.59547  0.85613  1.0000
  C   C14       1.0  0.76192  0.40453  0.14387  1.0000
  C   C15       1.0  0.26954  0.42300  0.19730  1.0000
  C   C16       1.0  0.73046  0.57700  0.80270  1.0000
  C   C17       1.0  0.14736  0.31069  0.23163  1.0000
  C   C18       1.0  0.85263  0.68931  0.76837  1.0000
  C   C19       1.0  0.12766  0.33061  0.36064  1.0000
  C   C20       1.0  0.87234  0.66939  0.63936  1.0000
  N   N1        1.0  0.34836  0.57257  0.41744  1.0000
  N   N2        1.0  0.65163  0.42743  0.58256  1.0000
  N   N3        1.0  0.33195  0.64007  0.66188  1.0000
  N   N4        1.0  0.66805  0.35992  0.33812  1.0000
  O   O1        1.0  0.26396  0.86507  0.48200  1.0000
  O   O2        1.0  0.73604  0.13494  0.51801  1.0000
  O   O3        1.0  0.26183  0.00085  0.73513  1.0000
  O   O4        1.0  0.73817  0.99916  0.26488  1.0000
  O   O5        1.0  0.63585  0.82955  0.45609  1.0000
  O   O6        1.0  0.36415  0.17044  0.54391  1.0000
  O   O7        1.0  0.61782  0.91947  0.71135  1.0000
  O   O8        1.0  0.38220  0.08054  0.28866  1.0000
  O   O9        1.0  0.00000  0.00000  0.50000  1.0000
  O   O10       1.0  0.26952  0.99266  0.00506  1.0000
  O   O11       1.0  0.73047  0.00734  0.99495  1.0000
  O   O12       1.0  0.72155  0.21328  0.83673  1.0000
  O   O13       1.0  0.27843  0.78672  0.16325  1.0000
  O   O14       1.0  0.35181  0.26254  0.92737  1.0000
  O   O15       1.0  0.64821  0.73746  0.07264  1.0000
  O   O16       1.0  0.99550  0.08036  0.84464  1.0000
  O   O17       1.0  0.00452  0.91966  0.15538  1.0000
