data_image0
_chemical_formula_structural       Zn2H32C38N6O10
_chemical_formula_sum              "Zn2 H32 C38 N6 O10"
_cell_length_a       9.764
_cell_length_b       10.1766
_cell_length_c       10.1604
_cell_angle_alpha    83.9103
_cell_angle_beta     76.9283
_cell_angle_gamma    62.1243

_space_group_name_H-M_alt    "P 1"
_space_group_IT_number       1

loop_
  _space_group_symop_operation_xyz
  'x, y, z'

loop_
  _atom_site_type_symbol
  _atom_site_label
  _atom_site_symmetry_multiplicity
  _atom_site_fract_x
  _atom_site_fract_y
  _atom_site_fract_z
  _atom_site_occupancy
  Zn  Zn1       1.0  0.37580  0.97222  0.25936  1.0000
  Zn  Zn2       1.0  0.62420  0.02778  0.74064  1.0000
  H   H1        1.0  0.89848  0.75952  0.50756  1.0000
  H   H2        1.0  0.10152  0.24048  0.49243  1.0000
  H   H3        1.0  0.05547  0.68335  0.36483  1.0000
  H   H4        1.0  0.94453  0.31665  0.63516  1.0000
  H   H5        1.0  0.70295  0.92846  0.04828  1.0000
  H   H6        1.0  0.29705  0.07154  0.95172  1.0000
  H   H7        1.0  0.39544  0.53673  0.66309  1.0000
  H   H8        1.0  0.60456  0.46327  0.33691  1.0000
  H   H9        1.0  0.45604  0.69806  0.47791  1.0000
  H   H10       1.0  0.54397  0.30194  0.52208  1.0000
  H   H11       1.0  0.99434  0.05699  0.63451  1.0000
  H   H12       1.0  0.00566  0.94300  0.36549  1.0000
  H   H13       1.0  0.17840  0.49658  0.78665  1.0000
  H   H14       1.0  0.82160  0.50342  0.21335  1.0000
  H   H15       1.0  0.00889  0.65075  0.86977  1.0000
  H   H16       1.0  0.99111  0.34925  0.13023  1.0000
  H   H17       1.0  0.24396  0.77087  0.95071  1.0000
  H   H18       1.0  0.75604  0.22913  0.04929  1.0000
  H   H19       1.0  0.38856  0.47565  0.28359  1.0000
  H   H20       1.0  0.61144  0.52435  0.71642  1.0000
  H   H21       1.0  0.95001  0.88237  0.80695  1.0000
  H   H22       1.0  0.04999  0.11763  0.19305  1.0000
  H   H23       1.0  0.98779  0.77216  0.13837  1.0000
  H   H24       1.0  0.01221  0.22784  0.86163  1.0000
  H   H25       1.0  0.21005  0.35926  0.99041  1.0000
  H   H26       1.0  0.78995  0.64074  0.00959  1.0000
  H   H27       1.0  0.60974  0.83067  0.46534  1.0000
  H   H28       1.0  0.39026  0.16933  0.53466  1.0000
  H   H29       1.0  0.99689  0.47311  0.35519  1.0000
  H   H30       1.0  0.00310  0.52689  0.64481  1.0000
  H   H31       1.0  0.82801  0.55308  0.48804  1.0000
  H   H32       1.0  0.17199  0.44692  0.51196  1.0000
  C   C1        1.0  0.29723  0.40497  0.14727  1.0000
  C   C2        1.0  0.70276  0.59504  0.85274  1.0000
  C   C3        1.0  0.93908  0.69325  0.41541  1.0000
  C   C4        1.0  0.06092  0.30675  0.58459  1.0000
  C   C5        1.0  0.22986  0.89404  0.53727  1.0000
  C   C6        1.0  0.77014  0.10596  0.46273  1.0000
  C   C7        1.0  0.72511  0.88449  0.14752  1.0000
  C   C8        1.0  0.27489  0.11551  0.85248  1.0000
  C   C9        1.0  0.31207  0.65247  0.64815  1.0000
  C   C10       1.0  0.68793  0.34753  0.35185  1.0000
  C   C11       1.0  0.34401  0.74259  0.54955  1.0000
  C   C12       1.0  0.65599  0.25741  0.45045  1.0000
  C   C13       1.0  0.08668  0.94344  0.63710  1.0000
  C   C14       1.0  0.91332  0.05656  0.36290  1.0000
  C   C15       1.0  0.13836  0.60195  0.83766  1.0000
  C   C16       1.0  0.86165  0.39805  0.16234  1.0000
  C   C17       1.0  0.32131  0.26443  0.22599  1.0000
  C   C18       1.0  0.67869  0.73557  0.77401  1.0000
  C   C19       1.0  0.25825  0.66803  0.00450  1.0000
  C   C20       1.0  0.74176  0.33197  0.99550  1.0000
  C   C21       1.0  0.32239  0.63333  0.12156  1.0000
  C   C22       1.0  0.67761  0.36667  0.87844  1.0000
  C   C23       1.0  0.34011  0.50282  0.19232  1.0000
  C   C24       1.0  0.65988  0.49718  0.80768  1.0000
  C   C25       1.0  0.37191  0.73221  0.17661  1.0000
  C   C26       1.0  0.62809  0.26779  0.82339  1.0000
  C   C27       1.0  0.06030  0.84842  0.73303  1.0000
  C   C28       1.0  0.93970  0.15158  0.26697  1.0000
  C   C29       1.0  0.21530  0.57047  0.95843  1.0000
  C   C30       1.0  0.78470  0.42953  0.04157  1.0000
  C   C31       1.0  0.86632  0.80708  0.19003  1.0000
  C   C32       1.0  0.13368  0.19292  0.80997  1.0000
  C   C33       1.0  0.23715  0.43857  0.02902  1.0000
  C   C34       1.0  0.76285  0.56143  0.97098  1.0000
  C   C35       1.0  0.66967  0.83601  0.36243  1.0000
  C   C36       1.0  0.33033  0.16399  0.63757  1.0000
  C   C37       1.0  0.94837  0.53989  0.44817  1.0000
  C   C38       1.0  0.05162  0.46011  0.55183  1.0000
  N   N1        1.0  0.82899  0.77733  0.32567  1.0000
  N   N2        1.0  0.17101  0.22267  0.67433  1.0000
  N   N3        1.0  0.17076  0.70390  0.73781  1.0000
  N   N4        1.0  0.82924  0.29610  0.26219  1.0000
  N   N5        1.0  0.60399  0.90058  0.25615  1.0000
  N   N6        1.0  0.39601  0.09943  0.74385  1.0000
  O   O1        1.0  0.28584  0.17445  0.17558  1.0000
  O   O2        1.0  0.71415  0.82555  0.82443  1.0000
  O   O3        1.0  0.37290  0.24156  0.33242  1.0000
  O   O4        1.0  0.62711  0.75843  0.66757  1.0000
  O   O5        1.0  0.24894  0.98437  0.44474  1.0000
  O   O6        1.0  0.75106  0.01563  0.55526  1.0000
  O   O7        1.0  0.30705  0.87209  0.14464  1.0000
  O   O8        1.0  0.69295  0.12790  0.85536  1.0000
  O   O9        1.0  0.46934  0.67722  0.25359  1.0000
  O   O10       1.0  0.53066  0.32277  0.74640  1.0000
