data_image0
_chemical_formula_structural       H8Pb2C4S2O12
_chemical_formula_sum              "H8 Pb2 C4 S2 O12"
_cell_length_a       6.38248
_cell_length_b       6.38329
_cell_length_c       9.09468
_cell_angle_alpha    101.237
_cell_angle_beta     104.264
_cell_angle_gamma    111.746

_space_group_name_H-M_alt    "P 1"
_space_group_IT_number       1

loop_
  _space_group_symop_operation_xyz
  'x, y, z'

loop_
  _atom_site_type_symbol
  _atom_site_label
  _atom_site_symmetry_multiplicity
  _atom_site_fract_x
  _atom_site_fract_y
  _atom_site_fract_z
  _atom_site_occupancy
  H   H1        1.0  0.79901  0.54274  0.59289  1.0000
  H   H2        1.0  0.94868  0.20497  0.40699  1.0000
  H   H3        1.0  0.20101  0.45724  0.40710  1.0000
  H   H4        1.0  0.05136  0.79504  0.59304  1.0000
  H   H5        1.0  0.18763  0.36450  0.77462  1.0000
  H   H6        1.0  0.58857  0.41167  0.22515  1.0000
  H   H7        1.0  0.81238  0.63549  0.22541  1.0000
  H   H8        1.0  0.41140  0.58832  0.77484  1.0000
  Pb  Pb1       1.0  0.37629  0.75043  0.12701  1.0000
  Pb  Pb2       1.0  0.62372  0.24957  0.87299  1.0000
  C   C1        1.0  0.03980  0.78962  0.82895  1.0000
  C   C2        1.0  0.96011  0.21040  0.17100  1.0000
  C   C3        1.0  0.91799  0.73360  0.65057  1.0000
  C   C4        1.0  0.08198  0.26642  0.34936  1.0000
  S   S1        1.0  0.72860  0.87987  0.60752  1.0000
  S   S2        1.0  0.27150  0.12011  0.39250  1.0000
  O   O1        1.0  0.93657  0.65573  0.90132  1.0000
  O   O2        1.0  0.75413  0.03456  0.09845  1.0000
  O   O3        1.0  0.06351  0.34438  0.09870  1.0000
  O   O4        1.0  0.24575  0.96535  0.90159  1.0000
  O   O5        1.0  0.62909  0.80504  0.43296  1.0000
  O   O6        1.0  0.37095  0.19499  0.56713  1.0000
  O   O7        1.0  0.88273  0.13902  0.68123  1.0000
  O   O8        1.0  0.45701  0.20092  0.31875  1.0000
  O   O9        1.0  0.11720  0.86089  0.31871  1.0000
  O   O10       1.0  0.54302  0.79910  0.68122  1.0000
  O   O11       1.0  0.34892  0.49426  0.84224  1.0000
  O   O12       1.0  0.65109  0.50576  0.15777  1.0000
