data_image0
_chemical_formula_structural       Gd4H20C36O24
_chemical_formula_sum              "Gd4 H20 C36 O24"
_cell_length_a       6.63278
_cell_length_b       10.6994
_cell_length_c       12.9786
_cell_angle_alpha    90
_cell_angle_beta     90
_cell_angle_gamma    95.153

_space_group_name_H-M_alt    "P 1"
_space_group_IT_number       1

loop_
  _space_group_symop_operation_xyz
  'x, y, z'

loop_
  _atom_site_type_symbol
  _atom_site_label
  _atom_site_symmetry_multiplicity
  _atom_site_fract_x
  _atom_site_fract_y
  _atom_site_fract_z
  _atom_site_occupancy
  Gd  Gd1       1.0  0.89787  0.57496  0.37327  1.0000
  Gd  Gd2       1.0  0.60212  0.42504  0.87327  1.0000
  Gd  Gd3       1.0  0.10212  0.42504  0.62673  1.0000
  Gd  Gd4       1.0  0.39787  0.57496  0.12673  1.0000
  H   H1        1.0  0.48161  0.97438  0.22309  1.0000
  H   H2        1.0  0.01839  0.02562  0.72309  1.0000
  H   H3        1.0  0.51839  0.02562  0.77690  1.0000
  H   H4        1.0  0.98161  0.97438  0.27691  1.0000
  H   H5        1.0  0.58710  0.19679  0.27462  1.0000
  H   H6        1.0  0.91290  0.80321  0.77462  1.0000
  H   H7        1.0  0.41290  0.80321  0.72538  1.0000
  H   H8        1.0  0.08710  0.19679  0.22538  1.0000
  H   H9        1.0  0.84514  0.06482  0.55332  1.0000
  H   H10       1.0  0.65487  0.93518  0.05332  1.0000
  H   H11       1.0  0.15486  0.93518  0.44668  1.0000
  H   H12       1.0  0.34514  0.06482  0.94668  1.0000
  H   H13       1.0  0.74348  0.84257  0.50089  1.0000
  H   H14       1.0  0.75653  0.15743  0.00089  1.0000
  H   H15       1.0  0.25653  0.15743  0.49911  1.0000
  H   H16       1.0  0.24347  0.84256  0.99911  1.0000
  H   H17       1.0  0.43049  0.41645  0.36631  1.0000
  H   H18       1.0  0.06951  0.58355  0.86631  1.0000
  H   H19       1.0  0.56951  0.58355  0.63369  1.0000
  H   H20       1.0  0.93049  0.41645  0.13369  1.0000
  C   C1        1.0  0.79389  0.27428  0.44933  1.0000
  C   C2        1.0  0.70611  0.72572  0.94933  1.0000
  C   C3        1.0  0.20611  0.72572  0.55067  1.0000
  C   C4        1.0  0.29390  0.27428  0.05066  1.0000
  C   C5        1.0  0.55475  0.76267  0.32593  1.0000
  C   C6        1.0  0.94525  0.23733  0.82593  1.0000
  C   C7        1.0  0.44525  0.23733  0.67407  1.0000
  C   C8        1.0  0.05475  0.76267  0.17407  1.0000
  C   C9        1.0  0.60578  0.89557  0.35912  1.0000
  C   C10       1.0  0.89422  0.10443  0.85912  1.0000
  C   C11       1.0  0.39422  0.10443  0.64087  1.0000
  C   C12       1.0  0.10578  0.89557  0.14088  1.0000
  C   C13       1.0  0.56085  0.99529  0.29535  1.0000
  C   C14       1.0  0.93916  0.00471  0.79535  1.0000
  C   C15       1.0  0.43916  0.00471  0.70465  1.0000
  C   C16       1.0  0.06084  0.99529  0.20465  1.0000
  C   C17       1.0  0.61993  0.11862  0.32393  1.0000
  C   C18       1.0  0.88007  0.88138  0.82393  1.0000
  C   C19       1.0  0.38007  0.88138  0.67607  1.0000
  C   C20       1.0  0.11993  0.11862  0.17607  1.0000
  C   C21       1.0  0.72398  0.14336  0.41687  1.0000
  C   C22       1.0  0.77603  0.85664  0.91688  1.0000
  C   C23       1.0  0.27602  0.85664  0.58312  1.0000
  C   C24       1.0  0.22398  0.14336  0.08313  1.0000
  C   C25       1.0  0.76646  0.04352  0.48103  1.0000
  C   C26       1.0  0.73354  0.95648  0.98103  1.0000
  C   C27       1.0  0.23354  0.95648  0.51897  1.0000
  C   C28       1.0  0.26646  0.04352  0.01898  1.0000
  C   C29       1.0  0.70879  0.92062  0.45218  1.0000
  C   C30       1.0  0.79121  0.07938  0.95218  1.0000
  C   C31       1.0  0.29121  0.07938  0.54782  1.0000
  C   C32       1.0  0.20879  0.92062  0.04782  1.0000
  C   C33       1.0  0.28323  0.45705  0.36798  1.0000
  C   C34       1.0  0.21677  0.54295  0.86798  1.0000
  C   C35       1.0  0.71677  0.54295  0.63202  1.0000
  C   C36       1.0  0.78323  0.45706  0.13202  1.0000
  O   O1        1.0  0.76801  0.36391  0.38680  1.0000
  O   O2        1.0  0.73199  0.63609  0.88680  1.0000
  O   O3        1.0  0.23199  0.63609  0.61320  1.0000
  O   O4        1.0  0.26801  0.36391  0.11320  1.0000
  O   O5        1.0  0.61166  0.67502  0.38415  1.0000
  O   O6        1.0  0.88834  0.32498  0.88415  1.0000
  O   O7        1.0  0.38834  0.32498  0.61585  1.0000
  O   O8        1.0  0.11166  0.67502  0.11585  1.0000
  O   O9        1.0  0.46333  0.74221  0.24132  1.0000
  O   O10       1.0  0.03667  0.25779  0.74132  1.0000
  O   O11       1.0  0.53667  0.25779  0.75868  1.0000
  O   O12       1.0  0.96333  0.74221  0.25868  1.0000
  O   O13       1.0  0.21845  0.51018  0.28803  1.0000
  O   O14       1.0  0.28155  0.48982  0.78803  1.0000
  O   O15       1.0  0.78155  0.48982  0.71197  1.0000
  O   O16       1.0  0.71845  0.51018  0.21197  1.0000
  O   O17       1.0  0.87855  0.28747  0.53715  1.0000
  O   O18       1.0  0.62145  0.71253  0.03716  1.0000
  O   O19       1.0  0.12145  0.71253  0.46284  1.0000
  O   O20       1.0  0.37855  0.28747  0.96285  1.0000
  O   O21       1.0  0.17784  0.44935  0.44951  1.0000
  O   O22       1.0  0.32216  0.55065  0.94951  1.0000
  O   O23       1.0  0.82216  0.55065  0.55049  1.0000
  O   O24       1.0  0.67784  0.44935  0.05049  1.0000
