data_image0
_chemical_formula_structural       Tb4H20C36O24
_chemical_formula_sum              "Tb4 H20 C36 O24"
_cell_length_a       6.61359
_cell_length_b       10.7097
_cell_length_c       12.9329
_cell_angle_alpha    90
_cell_angle_beta     90.0002
_cell_angle_gamma    95.4247

_space_group_name_H-M_alt    "P 1"
_space_group_IT_number       1

loop_
  _space_group_symop_operation_xyz
  'x, y, z'

loop_
  _atom_site_type_symbol
  _atom_site_label
  _atom_site_symmetry_multiplicity
  _atom_site_fract_x
  _atom_site_fract_y
  _atom_site_fract_z
  _atom_site_occupancy
  Tb  Tb1       1.0  0.10020  0.42571  0.87300  1.0000
  Tb  Tb2       1.0  0.39980  0.57429  0.37300  1.0000
  Tb  Tb3       1.0  0.89980  0.57430  0.12700  1.0000
  Tb  Tb4       1.0  0.60020  0.42571  0.62700  1.0000
  H   H1        1.0  0.75479  0.15650  0.49791  1.0000
  H   H2        1.0  0.74520  0.84350  0.99791  1.0000
  H   H3        1.0  0.24521  0.84350  0.50209  1.0000
  H   H4        1.0  0.25480  0.15650  0.00209  1.0000
  H   H5        1.0  0.65533  0.93371  0.44559  1.0000
  H   H6        1.0  0.84467  0.06629  0.94559  1.0000
  H   H7        1.0  0.34467  0.06629  0.55441  1.0000
  H   H8        1.0  0.15533  0.93371  0.05441  1.0000
  H   H9        1.0  0.90945  0.80460  0.72716  1.0000
  H   H10       1.0  0.59055  0.19540  0.22715  1.0000
  H   H11       1.0  0.09055  0.19540  0.27285  1.0000
  H   H12       1.0  0.40945  0.80460  0.77285  1.0000
  H   H13       1.0  0.01355  0.02730  0.77842  1.0000
  H   H14       1.0  0.48645  0.97270  0.27842  1.0000
  H   H15       1.0  0.98645  0.97270  0.22158  1.0000
  H   H16       1.0  0.51355  0.02730  0.72158  1.0000
  H   H17       1.0  0.56877  0.58320  0.86723  1.0000
  H   H18       1.0  0.93123  0.41680  0.36723  1.0000
  H   H19       1.0  0.43123  0.41680  0.13277  1.0000
  H   H20       1.0  0.06877  0.58320  0.63277  1.0000
  C   C1        1.0  0.89089  0.10495  0.64109  1.0000
  C   C2        1.0  0.60911  0.89505  0.14109  1.0000
  C   C3        1.0  0.10911  0.89505  0.35891  1.0000
  C   C4        1.0  0.39089  0.10495  0.85891  1.0000
  C   C5        1.0  0.78947  0.07896  0.54722  1.0000
  C   C6        1.0  0.71053  0.92105  0.04722  1.0000
  C   C7        1.0  0.21053  0.92104  0.45278  1.0000
  C   C8        1.0  0.28947  0.07895  0.95278  1.0000
  C   C9        1.0  0.73302  0.95577  0.51840  1.0000
  C   C10       1.0  0.76698  0.04423  0.01840  1.0000
  C   C11       1.0  0.26699  0.04423  0.48160  1.0000
  C   C12       1.0  0.23302  0.95577  0.98160  1.0000
  C   C13       1.0  0.77491  0.85654  0.58339  1.0000
  C   C14       1.0  0.72509  0.14346  0.08339  1.0000
  C   C15       1.0  0.22509  0.14345  0.41661  1.0000
  C   C16       1.0  0.27491  0.85654  0.91661  1.0000
  C   C17       1.0  0.87734  0.88221  0.67710  1.0000
  C   C18       1.0  0.62266  0.11780  0.17710  1.0000
  C   C19       1.0  0.12266  0.11779  0.32290  1.0000
  C   C20       1.0  0.37734  0.88221  0.82290  1.0000
  C   C21       1.0  0.93555  0.00579  0.70555  1.0000
  C   C22       1.0  0.56445  0.99421  0.20555  1.0000
  C   C23       1.0  0.06445  0.99421  0.29445  1.0000
  C   C24       1.0  0.43555  0.00579  0.79445  1.0000
  C   C25       1.0  0.94058  0.23804  0.67422  1.0000
  C   C26       1.0  0.55941  0.76196  0.17422  1.0000
  C   C27       1.0  0.05942  0.76196  0.32578  1.0000
  C   C28       1.0  0.44059  0.23804  0.82578  1.0000
  C   C29       1.0  0.70508  0.72533  0.55116  1.0000
  C   C30       1.0  0.79493  0.27467  0.05116  1.0000
  C   C31       1.0  0.29492  0.27467  0.44884  1.0000
  C   C32       1.0  0.20507  0.72533  0.94884  1.0000
  C   C33       1.0  0.71579  0.54216  0.86863  1.0000
  C   C34       1.0  0.78421  0.45784  0.36862  1.0000
  C   C35       1.0  0.28422  0.45784  0.13138  1.0000
  C   C36       1.0  0.21579  0.54216  0.63138  1.0000
  O   O1        1.0  0.03174  0.25932  0.75919  1.0000
  O   O2        1.0  0.46826  0.74068  0.25919  1.0000
  O   O3        1.0  0.96826  0.74068  0.24081  1.0000
  O   O4        1.0  0.53174  0.25932  0.74081  1.0000
  O   O5        1.0  0.88310  0.32493  0.61537  1.0000
  O   O6        1.0  0.61690  0.67507  0.11537  1.0000
  O   O7        1.0  0.11690  0.67507  0.38463  1.0000
  O   O8        1.0  0.38310  0.32493  0.88463  1.0000
  O   O9        1.0  0.62152  0.71173  0.46273  1.0000
  O   O10       1.0  0.87849  0.28827  0.96273  1.0000
  O   O11       1.0  0.37848  0.28827  0.53727  1.0000
  O   O12       1.0  0.12151  0.71173  0.03727  1.0000
  O   O13       1.0  0.72985  0.63608  0.61434  1.0000
  O   O14       1.0  0.77016  0.36392  0.11434  1.0000
  O   O15       1.0  0.27015  0.36392  0.38567  1.0000
  O   O16       1.0  0.22984  0.63608  0.88566  1.0000
  O   O17       1.0  0.77988  0.48945  0.78806  1.0000
  O   O18       1.0  0.72013  0.51055  0.28806  1.0000
  O   O19       1.0  0.22012  0.51055  0.21194  1.0000
  O   O20       1.0  0.27987  0.48945  0.71194  1.0000
  O   O21       1.0  0.82173  0.54888  0.95038  1.0000
  O   O22       1.0  0.67827  0.45111  0.45038  1.0000
  O   O23       1.0  0.17827  0.45112  0.04962  1.0000
  O   O24       1.0  0.32173  0.54888  0.54962  1.0000
