data_image0
_chemical_formula_structural       CoH24C26S2N2O6
_chemical_formula_sum              "Co1 H24 C26 S2 N2 O6"
_cell_length_a       6.96307
_cell_length_b       8.88571
_cell_length_c       10.1725
_cell_angle_alpha    76.3566
_cell_angle_beta     77.6278
_cell_angle_gamma    81.6819

_space_group_name_H-M_alt    "P 1"
_space_group_IT_number       1

loop_
  _space_group_symop_operation_xyz
  'x, y, z'

loop_
  _atom_site_type_symbol
  _atom_site_label
  _atom_site_symmetry_multiplicity
  _atom_site_fract_x
  _atom_site_fract_y
  _atom_site_fract_z
  _atom_site_occupancy
  Co  Co1       1.0  0.50000  0.50000  0.50000  1.0000
  H   H1        1.0  0.87713  0.51000  0.62470  1.0000
  H   H2        1.0  0.12287  0.49000  0.37530  1.0000
  H   H3        1.0  0.20414  0.13976  0.95438  1.0000
  H   H4        1.0  0.79586  0.86023  0.04562  1.0000
  H   H5        1.0  0.68487  0.42571  0.85113  1.0000
  H   H6        1.0  0.31513  0.57430  0.14888  1.0000
  H   H7        1.0  0.98374  0.24627  0.79085  1.0000
  H   H8        1.0  0.01625  0.75373  0.20915  1.0000
  H   H9        1.0  0.60878  0.49000  0.08517  1.0000
  H   H10       1.0  0.39122  0.51001  0.91484  1.0000
  H   H11       1.0  0.29388  0.96434  0.11394  1.0000
  H   H12       1.0  0.70611  0.03566  0.88607  1.0000
  H   H13       1.0  0.46260  0.11172  0.06026  1.0000
  H   H14       1.0  0.53739  0.88828  0.93973  1.0000
  H   H15       1.0  0.35171  0.73936  0.28881  1.0000
  H   H16       1.0  0.64829  0.26064  0.71119  1.0000
  H   H17       1.0  0.66451  0.13935  0.24385  1.0000
  H   H18       1.0  0.33548  0.86066  0.75615  1.0000
  H   H19       1.0  0.83943  0.98254  0.43258  1.0000
  H   H20       1.0  0.16057  0.01746  0.56741  1.0000
  H   H21       1.0  0.74802  0.71535  0.54468  1.0000
  H   H22       1.0  0.25200  0.28465  0.45531  1.0000
  H   H23       1.0  0.86288  0.41013  0.51548  1.0000
  H   H24       1.0  0.13713  0.58987  0.48452  1.0000
  C   C1        1.0  0.80581  0.39283  0.29015  1.0000
  C   C2        1.0  0.19420  0.60717  0.70985  1.0000
  C   C3        1.0  0.86248  0.35352  0.15139  1.0000
  C   C4        1.0  0.13753  0.64647  0.84862  1.0000
  C   C5        1.0  0.03510  0.25308  0.11624  1.0000
  C   C6        1.0  0.96490  0.74691  0.88377  1.0000
  C   C7        1.0  0.07369  0.21552  0.98556  1.0000
  C   C8        1.0  0.92630  0.78447  0.01444  1.0000
  C   C9        1.0  0.77941  0.37546  0.92618  1.0000
  C   C10       1.0  0.22059  0.62455  0.07383  1.0000
  C   C11       1.0  0.94779  0.27560  0.89216  1.0000
  C   C12       1.0  0.05220  0.72440  0.10784  1.0000
  C   C13       1.0  0.73872  0.41281  0.05519  1.0000
  C   C14       1.0  0.26128  0.58720  0.94481  1.0000
  C   C15       1.0  0.37052  0.04279  0.14909  1.0000
  C   C16       1.0  0.62947  0.95720  0.85091  1.0000
  C   C17       1.0  0.45826  0.79904  0.31636  1.0000
  C   C18       1.0  0.54173  0.20096  0.68364  1.0000
  C   C19       1.0  0.49178  0.95258  0.25285  1.0000
  C   C20       1.0  0.50821  0.04742  0.74714  1.0000
  C   C21       1.0  0.63298  0.02047  0.29305  1.0000
  C   C22       1.0  0.36702  0.97953  0.70694  1.0000
  C   C23       1.0  0.72903  0.93412  0.39764  1.0000
  C   C24       1.0  0.27097  0.06588  0.60235  1.0000
  C   C25       1.0  0.68119  0.78383  0.45990  1.0000
  C   C26       1.0  0.31882  0.21618  0.54009  1.0000
  S   S1        1.0  0.19006  0.17509  0.23671  1.0000
  S   S2        1.0  0.80993  0.82490  0.76329  1.0000
  N   N1        1.0  0.55021  0.71520  0.41857  1.0000
  N   N2        1.0  0.44979  0.28480  0.58143  1.0000
  O   O1        1.0  0.62520  0.44563  0.32622  1.0000
  O   O2        1.0  0.37479  0.55436  0.67378  1.0000
  O   O3        1.0  0.93710  0.36726  0.36507  1.0000
  O   O4        1.0  0.06290  0.63274  0.63494  1.0000
  O   O5        1.0  0.79212  0.44435  0.60189  1.0000
  O   O6        1.0  0.20788  0.55565  0.39811  1.0000
