data_image0
_chemical_formula_structural       Zn4H28C40N12O20
_chemical_formula_sum              "Zn4 H28 C40 N12 O20"
_cell_length_a       10.3643
_cell_length_b       10.6015
_cell_length_c       11.063
_cell_angle_alpha    90
_cell_angle_beta     116.037
_cell_angle_gamma    90.0001

_space_group_name_H-M_alt    "P 1"
_space_group_IT_number       1

loop_
  _space_group_symop_operation_xyz
  'x, y, z'

loop_
  _atom_site_type_symbol
  _atom_site_label
  _atom_site_symmetry_multiplicity
  _atom_site_fract_x
  _atom_site_fract_y
  _atom_site_fract_z
  _atom_site_occupancy
  Zn  Zn1       1.0  0.81100  0.60977  0.18239  1.0000
  Zn  Zn2       1.0  0.18900  0.10977  0.31761  1.0000
  Zn  Zn3       1.0  0.18900  0.39023  0.81761  1.0000
  Zn  Zn4       1.0  0.81100  0.89023  0.68239  1.0000
  H   H1        1.0  0.58537  0.39825  0.31639  1.0000
  H   H2        1.0  0.41463  0.89825  0.18361  1.0000
  H   H3        1.0  0.41463  0.60174  0.68361  1.0000
  H   H4        1.0  0.58537  0.10175  0.81639  1.0000
  H   H5        1.0  0.54501  0.28270  0.67105  1.0000
  H   H6        1.0  0.45499  0.78270  0.82895  1.0000
  H   H7        1.0  0.45499  0.71730  0.32895  1.0000
  H   H8        1.0  0.54501  0.21730  0.17105  1.0000
  H   H9        1.0  0.87220  0.23022  0.91393  1.0000
  H   H10       1.0  0.12780  0.73022  0.58607  1.0000
  H   H11       1.0  0.12780  0.76978  0.08607  1.0000
  H   H12       1.0  0.87220  0.26978  0.41393  1.0000
  H   H13       1.0  0.88981  0.53053  0.70560  1.0000
  H   H14       1.0  0.11019  0.03053  0.79440  1.0000
  H   H15       1.0  0.11019  0.46947  0.29439  1.0000
  H   H16       1.0  0.88981  0.96947  0.20560  1.0000
  H   H17       1.0  0.71367  0.60492  0.86730  1.0000
  H   H18       1.0  0.28633  0.10492  0.63270  1.0000
  H   H19       1.0  0.28633  0.39508  0.13271  1.0000
  H   H20       1.0  0.71367  0.89508  0.36730  1.0000
  H   H21       1.0  0.01803  0.78494  0.29487  1.0000
  H   H22       1.0  0.98197  0.28494  0.20513  1.0000
  H   H23       1.0  0.98197  0.21506  0.70513  1.0000
  H   H24       1.0  0.01803  0.71506  0.79487  1.0000
  H   H25       1.0  0.93426  0.79415  0.12855  1.0000
  H   H26       1.0  0.06574  0.29415  0.37145  1.0000
  H   H27       1.0  0.06574  0.20585  0.87145  1.0000
  H   H28       1.0  0.93426  0.70585  0.62855  1.0000
  C   C1        1.0  0.62511  0.40048  0.42516  1.0000
  C   C2        1.0  0.37489  0.90048  0.07484  1.0000
  C   C3        1.0  0.37489  0.59952  0.57485  1.0000
  C   C4        1.0  0.62511  0.09952  0.92515  1.0000
  C   C5        1.0  0.55381  0.33136  0.48474  1.0000
  C   C6        1.0  0.44619  0.83136  0.01526  1.0000
  C   C7        1.0  0.44618  0.66864  0.51526  1.0000
  C   C8        1.0  0.55381  0.16864  0.98473  1.0000
  C   C9        1.0  0.60296  0.33405  0.62465  1.0000
  C   C10       1.0  0.39703  0.83405  0.87535  1.0000
  C   C11       1.0  0.39703  0.66596  0.37535  1.0000
  C   C12       1.0  0.60296  0.16595  0.12465  1.0000
  C   C13       1.0  0.72324  0.40684  0.70078  1.0000
  C   C14       1.0  0.27676  0.90684  0.79922  1.0000
  C   C15       1.0  0.27676  0.59316  0.29922  1.0000
  C   C16       1.0  0.72324  0.09316  0.20078  1.0000
  C   C17       1.0  0.79539  0.47600  0.64219  1.0000
  C   C18       1.0  0.20461  0.97600  0.85781  1.0000
  C   C19       1.0  0.20461  0.52400  0.35781  1.0000
  C   C20       1.0  0.79539  0.02400  0.14219  1.0000
  C   C21       1.0  0.74646  0.47257  0.50286  1.0000
  C   C22       1.0  0.25354  0.97257  0.99714  1.0000
  C   C23       1.0  0.25354  0.52743  0.49714  1.0000
  C   C24       1.0  0.74646  0.02743  0.00286  1.0000
  C   C25       1.0  0.84647  0.32310  0.93779  1.0000
  C   C26       1.0  0.15353  0.82310  0.56221  1.0000
  C   C27       1.0  0.15353  0.67690  0.06221  1.0000
  C   C28       1.0  0.84648  0.17690  0.43779  1.0000
  C   C29       1.0  0.76642  0.51666  0.91429  1.0000
  C   C30       1.0  0.23358  0.01666  0.58571  1.0000
  C   C31       1.0  0.23358  0.48334  0.08571  1.0000
  C   C32       1.0  0.76642  0.98334  0.41429  1.0000
  C   C33       1.0  0.42323  0.25669  0.39652  1.0000
  C   C34       1.0  0.57677  0.75669  0.10348  1.0000
  C   C35       1.0  0.57677  0.74331  0.60348  1.0000
  C   C36       1.0  0.42323  0.24331  0.89652  1.0000
  C   C37       1.0  0.82174  0.54387  0.43528  1.0000
  C   C38       1.0  0.17826  0.04387  0.06472  1.0000
  C   C39       1.0  0.17826  0.45613  0.56472  1.0000
  C   C40       1.0  0.82174  0.95612  0.93528  1.0000
  N   N1        1.0  0.77490  0.41385  0.84417  1.0000
  N   N2        1.0  0.22510  0.91385  0.65583  1.0000
  N   N3        1.0  0.22510  0.58615  0.15583  1.0000
  N   N4        1.0  0.77490  0.08615  0.34417  1.0000
  N   N5        1.0  0.88073  0.36724  0.05938  1.0000
  N   N6        1.0  0.11927  0.86724  0.44062  1.0000
  N   N7        1.0  0.11927  0.63276  0.94062  1.0000
  N   N8        1.0  0.88073  0.13276  0.55938  1.0000
  N   N9        1.0  0.82958  0.48926  0.04411  1.0000
  N   N10       1.0  0.17042  0.98926  0.45589  1.0000
  N   N11       1.0  0.17042  0.51074  0.95589  1.0000
  N   N12       1.0  0.82958  0.01074  0.54411  1.0000
  O   O1        1.0  0.37505  0.26295  0.27081  1.0000
  O   O2        1.0  0.62494  0.76295  0.22919  1.0000
  O   O3        1.0  0.62494  0.73705  0.72919  1.0000
  O   O4        1.0  0.37506  0.23705  0.77081  1.0000
  O   O5        1.0  0.36651  0.18859  0.45738  1.0000
  O   O6        1.0  0.63349  0.68859  0.04262  1.0000
  O   O7        1.0  0.63349  0.81141  0.54263  1.0000
  O   O8        1.0  0.36651  0.31141  0.95738  1.0000
  O   O9        1.0  0.79555  0.50267  0.31690  1.0000
  O   O10       1.0  0.20445  0.00267  0.18310  1.0000
  O   O11       1.0  0.20445  0.49733  0.68310  1.0000
  O   O12       1.0  0.79555  0.99733  0.81690  1.0000
  O   O13       1.0  0.90321  0.63512  0.49227  1.0000
  O   O14       1.0  0.09679  0.13511  0.00773  1.0000
  O   O15       1.0  0.09679  0.36488  0.50773  1.0000
  O   O16       1.0  0.90321  0.86489  0.99227  1.0000
  O   O17       1.0  0.96272  0.73610  0.20936  1.0000
  O   O18       1.0  0.03728  0.23609  0.29063  1.0000
  O   O19       1.0  0.03728  0.26390  0.79063  1.0000
  O   O20       1.0  0.96272  0.76391  0.70937  1.0000
