data_image0
_chemical_formula_structural       Zn4H28C40N12O20
_chemical_formula_sum              "Zn4 H28 C40 N12 O20"
_cell_length_a       7.5735
_cell_length_b       10.7968
_cell_length_c       14.5096
_cell_angle_alpha    90.1241
_cell_angle_beta     74.8547
_cell_angle_gamma    69.4654

_space_group_name_H-M_alt    "P 1"
_space_group_IT_number       1

loop_
  _space_group_symop_operation_xyz
  'x, y, z'

loop_
  _atom_site_type_symbol
  _atom_site_label
  _atom_site_symmetry_multiplicity
  _atom_site_fract_x
  _atom_site_fract_y
  _atom_site_fract_z
  _atom_site_occupancy
  Zn  Zn1       1.0  0.22685  0.52775  0.50697  1.0000
  Zn  Zn2       1.0  0.76131  0.97225  0.99323  1.0000
  Zn  Zn3       1.0  0.77315  0.47225  0.49303  1.0000
  Zn  Zn4       1.0  0.23869  0.02776  0.00677  1.0000
  H   H1        1.0  0.79972  0.46911  0.85574  1.0000
  H   H2        1.0  0.62465  0.03091  0.64428  1.0000
  H   H3        1.0  0.20027  0.53090  0.14426  1.0000
  H   H4        1.0  0.37535  0.96908  0.35572  1.0000
  H   H5        1.0  0.64312  0.28668  0.11173  1.0000
  H   H6        1.0  0.54225  0.21320  0.38816  1.0000
  H   H7        1.0  0.35689  0.71332  0.88827  1.0000
  H   H8        1.0  0.45776  0.78679  0.61183  1.0000
  H   H9        1.0  0.72070  0.66150  0.13187  1.0000
  H   H10       1.0  0.01464  0.83833  0.36825  1.0000
  H   H11       1.0  0.27930  0.33850  0.86813  1.0000
  H   H12       1.0  0.98537  0.16167  0.63175  1.0000
  H   H13       1.0  0.32194  0.59170  0.27408  1.0000
  H   H14       1.0  0.68792  0.90819  0.22607  1.0000
  H   H15       1.0  0.67805  0.40830  0.72592  1.0000
  H   H16       1.0  0.31208  0.09181  0.77393  1.0000
  H   H17       1.0  0.91413  0.36783  0.25730  1.0000
  H   H18       1.0  0.03974  0.13189  0.24259  1.0000
  H   H19       1.0  0.08586  0.63216  0.74270  1.0000
  H   H20       1.0  0.96027  0.86810  0.75741  1.0000
  H   H21       1.0  0.98886  0.46544  0.64998  1.0000
  H   H22       1.0  0.60363  0.03480  0.85031  1.0000
  H   H23       1.0  0.01113  0.53455  0.35002  1.0000
  H   H24       1.0  0.39637  0.96520  0.14969  1.0000
  H   H25       1.0  0.88924  0.62340  0.63915  1.0000
  H   H26       1.0  0.65120  0.87676  0.86096  1.0000
  H   H27       1.0  0.11077  0.37660  0.36085  1.0000
  H   H28       1.0  0.34878  0.12325  0.13905  1.0000
  C   C1        1.0  0.76808  0.46917  0.93343  1.0000
  C   C2        1.0  0.67072  0.03075  0.56659  1.0000
  C   C3        1.0  0.23192  0.53084  0.06657  1.0000
  C   C4        1.0  0.32928  0.96924  0.43341  1.0000
  C   C5        1.0  0.72803  0.36304  0.97736  1.0000
  C   C6        1.0  0.56871  0.13688  0.52260  1.0000
  C   C7        1.0  0.27198  0.63696  0.02263  1.0000
  C   C8        1.0  0.43130  0.86312  0.47741  1.0000
  C   C9        1.0  0.68249  0.36642  0.07744  1.0000
  C   C10       1.0  0.62684  0.13342  0.42252  1.0000
  C   C11       1.0  0.31751  0.63358  0.92256  1.0000
  C   C12       1.0  0.37317  0.86658  0.57748  1.0000
  C   C13       1.0  0.68279  0.47284  0.13089  1.0000
  C   C14       1.0  0.78700  0.02691  0.36912  1.0000
  C   C15       1.0  0.31721  0.52716  0.86911  1.0000
  C   C16       1.0  0.21300  0.97308  0.63088  1.0000
  C   C17       1.0  0.72388  0.57816  0.08842  1.0000
  C   C18       1.0  0.89079  0.92165  0.41162  1.0000
  C   C19       1.0  0.27612  0.42185  0.91158  1.0000
  C   C20       1.0  0.10922  0.07834  0.58838  1.0000
  C   C21       1.0  0.76343  0.57751  0.98868  1.0000
  C   C22       1.0  0.82970  0.92238  0.51136  1.0000
  C   C23       1.0  0.23657  0.42249  0.01132  1.0000
  C   C24       1.0  0.17030  0.07761  0.48864  1.0000
  C   C25       1.0  0.45050  0.53370  0.29618  1.0000
  C   C26       1.0  0.78067  0.96612  0.20389  1.0000
  C   C27       1.0  0.54949  0.46630  0.70382  1.0000
  C   C28       1.0  0.21933  0.03388  0.79611  1.0000
  C   C29       1.0  0.75665  0.41966  0.28744  1.0000
  C   C30       1.0  0.96421  0.08009  0.21249  1.0000
  C   C31       1.0  0.24334  0.58034  0.71256  1.0000
  C   C32       1.0  0.03579  0.91990  0.78751  1.0000
  C   C33       1.0  0.72181  0.24563  0.92289  1.0000
  C   C34       1.0  0.39072  0.25439  0.57701  1.0000
  C   C35       1.0  0.27819  0.75437  0.07711  1.0000
  C   C36       1.0  0.60929  0.74561  0.42299  1.0000
  C   C37       1.0  0.78318  0.70060  0.94670  1.0000
  C   C38       1.0  0.93067  0.79939  0.55340  1.0000
  C   C39       1.0  0.21681  0.29941  0.05330  1.0000
  C   C40       1.0  0.06933  0.20061  0.44660  1.0000
  N   N1        1.0  0.63234  0.47587  0.23358  1.0000
  N   N2        1.0  0.84231  0.02382  0.26643  1.0000
  N   N3        1.0  0.36765  0.52413  0.76642  1.0000
  N   N4        1.0  0.15769  0.97617  0.73357  1.0000
  N   N5        1.0  0.46207  0.51149  0.38424  1.0000
  N   N6        1.0  0.85791  0.98843  0.11581  1.0000
  N   N7        1.0  0.53793  0.48851  0.61576  1.0000
  N   N8        1.0  0.14208  0.01157  0.88419  1.0000
  N   N9        1.0  0.65564  0.44017  0.37887  1.0000
  N   N10       1.0  0.97489  0.05970  0.12110  1.0000
  N   N11       1.0  0.34435  0.55982  0.62113  1.0000
  N   N12       1.0  0.02510  0.94030  0.87889  1.0000
  O   O1        1.0  0.66861  0.16438  0.97904  1.0000
  O   O2        1.0  0.31239  0.33554  0.52081  1.0000
  O   O3        1.0  0.33140  0.83562  0.02095  1.0000
  O   O4        1.0  0.68763  0.66445  0.47919  1.0000
  O   O5        1.0  0.76079  0.23517  0.83325  1.0000
  O   O6        1.0  0.32968  0.26507  0.66667  1.0000
  O   O7        1.0  0.23921  0.76484  0.16675  1.0000
  O   O8        1.0  0.67033  0.73493  0.33333  1.0000
  O   O9        1.0  0.78158  0.78718  0.00796  1.0000
  O   O10       1.0  0.07693  0.71279  0.49214  1.0000
  O   O11       1.0  0.21840  0.21283  0.99204  1.0000
  O   O12       1.0  0.92308  0.28721  0.50786  1.0000
  O   O13       1.0  0.79280  0.71401  0.85894  1.0000
  O   O14       1.0  0.86601  0.78612  0.64121  1.0000
  O   O15       1.0  0.20721  0.28600  0.14107  1.0000
  O   O16       1.0  0.13398  0.21388  0.35879  1.0000
  O   O17       1.0  0.93005  0.52966  0.60919  1.0000
  O   O18       1.0  0.56804  0.97046  0.89091  1.0000
  O   O19       1.0  0.06998  0.47034  0.39081  1.0000
  O   O20       1.0  0.43194  0.02954  0.10909  1.0000
