data_image0
_chemical_formula_structural       Zn2H14C20N6O10
_chemical_formula_sum              "Zn2 H14 C20 N6 O10"
_cell_length_a       7.6422
_cell_length_b       7.64218
_cell_length_c       9.85721
_cell_angle_alpha    70.2352
_cell_angle_beta     70.235
_cell_angle_gamma    84.6973

_space_group_name_H-M_alt    "P 1"
_space_group_IT_number       1

loop_
  _space_group_symop_operation_xyz
  'x, y, z'

loop_
  _atom_site_type_symbol
  _atom_site_label
  _atom_site_symmetry_multiplicity
  _atom_site_fract_x
  _atom_site_fract_y
  _atom_site_fract_z
  _atom_site_occupancy
  Zn  Zn1       1.0  0.39163  0.25347  0.77742  1.0000
  Zn  Zn2       1.0  0.25347  0.39164  0.27742  1.0000
  H   H1        1.0  0.45091  0.73344  0.62054  1.0000
  H   H2        1.0  0.73344  0.45092  0.12054  1.0000
  H   H3        1.0  0.65506  0.76906  0.14879  1.0000
  H   H4        1.0  0.76906  0.65506  0.64878  1.0000
  H   H5        1.0  0.81184  0.19347  0.28860  1.0000
  H   H6        1.0  0.19347  0.81183  0.78859  1.0000
  H   H7        1.0  0.08865  0.16372  0.10552  1.0000
  H   H8        1.0  0.16372  0.08865  0.60552  1.0000
  H   H9        1.0  0.72310  0.05792  0.90009  1.0000
  H   H10       1.0  0.05792  0.72310  0.40008  1.0000
  H   H11       1.0  0.36958  0.03422  0.08275  1.0000
  H   H12       1.0  0.03422  0.36958  0.58274  1.0000
  H   H13       1.0  0.35304  0.90713  0.99384  1.0000
  H   H14       1.0  0.90713  0.35305  0.49384  1.0000
  C   C1        1.0  0.53384  0.80704  0.50323  1.0000
  C   C2        1.0  0.80704  0.53385  0.00322  1.0000
  C   C3        1.0  0.54623  0.73185  0.38919  1.0000
  C   C4        1.0  0.73185  0.54623  0.88918  1.0000
  C   C5        1.0  0.65052  0.82581  0.23722  1.0000
  C   C6        1.0  0.82582  0.65053  0.73721  1.0000
  C   C7        1.0  0.74636  0.98945  0.20285  1.0000
  C   C8        1.0  0.98946  0.74636  0.70284  1.0000
  C   C9        1.0  0.73734  0.06446  0.31578  1.0000
  C   C10       1.0  0.06447  0.73733  0.81578  1.0000
  C   C11       1.0  0.62746  0.97501  0.46596  1.0000
  C   C12       1.0  0.97502  0.62746  0.96595  1.0000
  C   C13       1.0  0.03126  0.16094  0.01965  1.0000
  C   C14       1.0  0.16095  0.03126  0.51965  1.0000
  C   C15       1.0  0.84608  0.10343  0.91225  1.0000
  C   C16       1.0  0.10343  0.84608  0.41225  1.0000
  C   C17       1.0  0.43810  0.55723  0.42454  1.0000
  C   C18       1.0  0.55723  0.43811  0.92453  1.0000
  C   C19       1.0  0.60226  0.07623  0.57779  1.0000
  C   C20       1.0  0.07624  0.60225  0.07778  1.0000
  N   N1        1.0  0.86417  0.08133  0.05135  1.0000
  N   N2        1.0  0.08133  0.86417  0.55134  1.0000
  N   N3        1.0  0.11128  0.22631  0.87078  1.0000
  N   N4        1.0  0.22631  0.11128  0.37077  1.0000
  N   N5        1.0  0.99459  0.19215  0.80155  1.0000
  N   N6        1.0  0.19214  0.99460  0.30155  1.0000
  O   O1        1.0  0.35685  0.45910  0.56014  1.0000
  O   O2        1.0  0.45910  0.35686  0.06013  1.0000
  O   O3        1.0  0.43376  0.52775  0.30430  1.0000
  O   O4        1.0  0.52775  0.43377  0.80429  1.0000
  O   O5        1.0  0.44028  0.05482  0.68127  1.0000
  O   O6        1.0  0.05481  0.44027  0.18127  1.0000
  O   O7        1.0  0.72925  0.18109  0.56270  1.0000
  O   O8        1.0  0.18111  0.72923  0.06269  1.0000
  O   O9        1.0  0.42414  0.01612  0.98243  1.0000
  O   O10       1.0  0.01612  0.42414  0.48242  1.0000
