data_image0
_chemical_formula_structural       Ni3H40C54N12O14
_chemical_formula_sum              "Ni3 H40 C54 N12 O14"
_cell_length_a       9.99554
_cell_length_b       12.3722
_cell_length_c       13.4279
_cell_angle_alpha    85.7077
_cell_angle_beta     67.4476
_cell_angle_gamma    73.606

_space_group_name_H-M_alt    "P 1"
_space_group_IT_number       1

loop_
  _space_group_symop_operation_xyz
  'x, y, z'

loop_
  _atom_site_type_symbol
  _atom_site_label
  _atom_site_symmetry_multiplicity
  _atom_site_fract_x
  _atom_site_fract_y
  _atom_site_fract_z
  _atom_site_occupancy
  Ni  Ni1       1.0  0.61606  0.07862  0.57846  1.0000
  Ni  Ni2       1.0  0.38395  0.92139  0.42154  1.0000
  Ni  Ni3       1.0  0.99999  0.50000  0.00001  1.0000
  H   H1        1.0  0.93501  0.88158  0.54524  1.0000
  H   H2        1.0  0.06500  0.11842  0.45476  1.0000
  H   H3        1.0  0.48143  0.87519  0.70402  1.0000
  H   H4        1.0  0.51859  0.12481  0.29597  1.0000
  H   H5        1.0  0.66912  0.66123  0.70674  1.0000
  H   H6        1.0  0.33090  0.33877  0.29326  1.0000
  H   H7        1.0  0.05315  0.69224  0.42420  1.0000
  H   H8        1.0  0.94685  0.30776  0.57579  1.0000
  H   H9        1.0  0.92203  0.59239  0.75473  1.0000
  H   H10       1.0  0.07798  0.40762  0.24527  1.0000
  H   H11       1.0  0.31544  0.28022  0.64108  1.0000
  H   H12       1.0  0.68457  0.71978  0.35892  1.0000
  H   H13       1.0  0.73293  0.25524  0.38728  1.0000
  H   H14       1.0  0.26708  0.74477  0.61272  1.0000
  H   H15       1.0  0.52962  0.45388  0.36833  1.0000
  H   H16       1.0  0.47039  0.54612  0.63167  1.0000
  H   H17       1.0  0.29150  0.54015  0.37508  1.0000
  H   H18       1.0  0.70849  0.45985  0.62491  1.0000
  H   H19       1.0  0.15575  0.44228  0.70857  1.0000
  H   H20       1.0  0.84426  0.55772  0.29142  1.0000
  H   H21       1.0  0.32350  0.31034  0.97798  1.0000
  H   H22       1.0  0.67649  0.68966  0.02204  1.0000
  H   H23       1.0  0.87414  0.30940  0.16009  1.0000
  H   H24       1.0  0.12586  0.69059  0.83991  1.0000
  H   H25       1.0  0.06476  0.09439  0.15863  1.0000
  H   H26       1.0  0.93524  0.90560  0.84136  1.0000
  H   H27       1.0  0.44365  0.12788  0.86048  1.0000
  H   H28       1.0  0.55634  0.87212  0.13953  1.0000
  H   H29       1.0  0.32146  0.02464  0.19159  1.0000
  H   H30       1.0  0.67851  0.97536  0.80842  1.0000
  H   H31       1.0  0.07852  0.02035  0.59814  1.0000
  H   H32       1.0  0.92147  0.97966  0.40186  1.0000
  H   H33       1.0  0.72047  0.28601  0.80999  1.0000
  H   H34       1.0  0.27952  0.71399  0.19002  1.0000
  H   H35       1.0  0.17380  0.22397  0.79435  1.0000
  H   H36       1.0  0.82620  0.77603  0.20564  1.0000
  H   H37       1.0  0.75117  0.46110  0.04593  1.0000
  H   H38       1.0  0.24881  0.53890  0.95407  1.0000
  H   H39       1.0  0.70977  0.56618  0.13034  1.0000
  H   H40       1.0  0.29022  0.43382  0.86967  1.0000
  C   C1        1.0  0.83464  0.85316  0.58738  1.0000
  C   C2        1.0  0.16537  0.14685  0.41262  1.0000
  C   C3        1.0  0.60304  0.84509  0.67249  1.0000
  C   C4        1.0  0.39697  0.15491  0.32750  1.0000
  C   C5        1.0  0.69382  0.73928  0.67451  1.0000
  C   C6        1.0  0.30619  0.26073  0.32548  1.0000
  C   C7        1.0  0.97417  0.65367  0.59246  1.0000
  C   C8        1.0  0.02585  0.34634  0.40754  1.0000
  C   C9        1.0  0.07806  0.63782  0.48596  1.0000
  C   C10       1.0  0.92195  0.36217  0.51404  1.0000
  C   C11       1.0  0.00180  0.58097  0.67131  1.0000
  C   C12       1.0  0.99821  0.41903  0.32869  1.0000
  C   C13       1.0  0.40249  0.30091  0.57118  1.0000
  C   C14       1.0  0.59751  0.69909  0.42881  1.0000
  C   C15       1.0  0.61506  0.29034  0.43716  1.0000
  C   C16       1.0  0.38495  0.70966  0.56284  1.0000
  C   C17       1.0  0.51524  0.38822  0.42626  1.0000
  C   C18       1.0  0.48476  0.61177  0.57374  1.0000
  C   C19       1.0  0.24189  0.48097  0.53815  1.0000
  C   C20       1.0  0.75812  0.51903  0.46184  1.0000
  C   C21       1.0  0.21185  0.55178  0.45861  1.0000
  C   C22       1.0  0.78815  0.44821  0.54139  1.0000
  C   C23       1.0  0.13575  0.49516  0.64434  1.0000
  C   C24       1.0  0.86427  0.50484  0.35566  1.0000
  C   C25       1.0  0.22381  0.28357  0.02479  1.0000
  C   C26       1.0  0.77618  0.71643  0.97521  1.0000
  C   C27       1.0  0.99549  0.27764  0.12199  1.0000
  C   C28       1.0  0.00451  0.72235  0.87802  1.0000
  C   C29       1.0  0.08784  0.17179  0.12258  1.0000
  C   C30       1.0  0.91215  0.82820  0.87743  1.0000
  C   C31       1.0  0.36781  0.08621  0.02979  1.0000
  C   C32       1.0  0.63219  0.91379  0.97021  1.0000
  C   C33       1.0  0.46849  0.07339  0.92228  1.0000
  C   C34       1.0  0.53150  0.92662  0.07772  1.0000
  C   C35       1.0  0.39823  0.01325  0.10749  1.0000
  C   C36       1.0  0.60178  0.98675  0.89250  1.0000
  C   C37       1.0  0.14322  0.11354  0.69298  1.0000
  C   C38       1.0  0.85678  0.88646  0.30702  1.0000
  C   C39       1.0  0.03987  0.08825  0.65830  1.0000
  C   C40       1.0  0.96013  0.91174  0.34170  1.0000
  C   C41       1.0  0.88861  0.15197  0.69822  1.0000
  C   C42       1.0  0.11139  0.84803  0.30178  1.0000
  C   C43       1.0  0.83862  0.23786  0.77715  1.0000
  C   C44       1.0  0.16137  0.76214  0.22285  1.0000
  C   C45       1.0  0.94206  0.26509  0.81041  1.0000
  C   C46       1.0  0.05793  0.73492  0.18959  1.0000
  C   C47       1.0  0.09362  0.20273  0.76809  1.0000
  C   C48       1.0  0.90636  0.79728  0.23191  1.0000
  C   C49       1.0  0.30806  0.05207  0.64159  1.0000
  C   C50       1.0  0.69193  0.94792  0.35842  1.0000
  C   C51       1.0  0.78513  0.13299  0.64973  1.0000
  C   C52       1.0  0.21488  0.86702  0.35027  1.0000
  C   C53       1.0  0.89507  0.36225  0.88848  1.0000
  C   C54       1.0  0.10493  0.63775  0.11152  1.0000
  N   N1        1.0  0.69177  0.91531  0.61840  1.0000
  N   N2        1.0  0.30823  0.08470  0.38161  1.0000
  N   N3        1.0  0.84075  0.74491  0.61923  1.0000
  N   N4        1.0  0.15926  0.25510  0.38076  1.0000
  N   N5        1.0  0.54295  0.23691  0.52749  1.0000
  N   N6        1.0  0.45706  0.76309  0.47250  1.0000
  N   N7        1.0  0.37959  0.39463  0.51248  1.0000
  N   N8        1.0  0.62041  0.60536  0.48752  1.0000
  N   N9        1.0  0.08167  0.34671  0.06076  1.0000
  N   N10       1.0  0.91831  0.65328  0.93926  1.0000
  N   N11       1.0  0.23290  0.17641  0.05968  1.0000
  N   N12       1.0  0.76709  0.82359  0.94032  1.0000
  O   O1        1.0  0.39687  0.08852  0.66957  1.0000
  O   O2        1.0  0.60312  0.91149  0.33044  1.0000
  O   O3        1.0  0.34850  0.97040  0.57586  1.0000
  O   O4        1.0  0.65150  0.02961  0.42414  1.0000
  O   O5        1.0  0.83998  0.09755  0.55116  1.0000
  O   O6        1.0  0.16003  0.90244  0.44884  1.0000
  O   O7        1.0  0.64473  0.15109  0.70621  1.0000
  O   O8        1.0  0.35527  0.84891  0.29378  1.0000
  O   O9        1.0  0.75830  0.39534  0.95273  1.0000
  O   O10       1.0  0.24169  0.60465  0.04726  1.0000
  O   O11       1.0  0.00138  0.40372  0.88323  1.0000
  O   O12       1.0  0.99862  0.59628  0.11678  1.0000
  O   O13       1.0  0.77815  0.49212  0.10385  1.0000
  O   O14       1.0  0.22183  0.50787  0.89616  1.0000
