data_image0
_chemical_formula_structural       Zn2H32C52N8Cl4O8
_chemical_formula_sum              "Zn2 H32 C52 N8 Cl4 O8"
_cell_length_a       11.0034
_cell_length_b       11.3736
_cell_length_c       11.3736
_cell_angle_alpha    110.189
_cell_angle_beta     99.7905
_cell_angle_gamma    99.7909

_space_group_name_H-M_alt    "P 1"
_space_group_IT_number       1

loop_
  _space_group_symop_operation_xyz
  'x, y, z'

loop_
  _atom_site_type_symbol
  _atom_site_label
  _atom_site_symmetry_multiplicity
  _atom_site_fract_x
  _atom_site_fract_y
  _atom_site_fract_z
  _atom_site_occupancy
  Zn  Zn1       1.0  0.75000  0.77840  0.22160  1.0000
  Zn  Zn2       1.0  0.25000  0.22160  0.77840  1.0000
  H   H1        1.0  0.96025  0.02050  0.37002  1.0000
  H   H2        1.0  0.53974  0.62998  0.97949  1.0000
  H   H3        1.0  0.03975  0.97950  0.62998  1.0000
  H   H4        1.0  0.46025  0.37002  0.02051  1.0000
  H   H5        1.0  0.99816  0.25539  0.41283  1.0000
  H   H6        1.0  0.50183  0.58717  0.74460  1.0000
  H   H7        1.0  0.00184  0.74460  0.58717  1.0000
  H   H8        1.0  0.49816  0.41283  0.25541  1.0000
  H   H9        1.0  0.61094  0.18059  0.19852  1.0000
  H   H10       1.0  0.88906  0.80148  0.81940  1.0000
  H   H11       1.0  0.38905  0.81940  0.80148  1.0000
  H   H12       1.0  0.11094  0.19852  0.18060  1.0000
  H   H13       1.0  0.58632  0.94707  0.16839  1.0000
  H   H14       1.0  0.91368  0.83160  0.05293  1.0000
  H   H15       1.0  0.41368  0.05292  0.83160  1.0000
  H   H16       1.0  0.08632  0.16839  0.94707  1.0000
  H   H17       1.0  0.73431  0.40538  0.32994  1.0000
  H   H18       1.0  0.76569  0.67007  0.59462  1.0000
  H   H19       1.0  0.26568  0.59462  0.67006  1.0000
  H   H20       1.0  0.23431  0.32993  0.40538  1.0000
  H   H21       1.0  0.89148  0.43787  0.42561  1.0000
  H   H22       1.0  0.60853  0.57439  0.56212  1.0000
  H   H23       1.0  0.10852  0.56213  0.57439  1.0000
  H   H24       1.0  0.39147  0.42561  0.43787  1.0000
  H   H25       1.0  0.65941  0.37791  0.89021  1.0000
  H   H26       1.0  0.84059  0.10980  0.62210  1.0000
  H   H27       1.0  0.34059  0.62209  0.10980  1.0000
  H   H28       1.0  0.15941  0.89020  0.37790  1.0000
  H   H29       1.0  0.25340  0.55675  0.27331  1.0000
  H   H30       1.0  0.24660  0.72669  0.44326  1.0000
  H   H31       1.0  0.74660  0.44326  0.72669  1.0000
  H   H32       1.0  0.75340  0.27331  0.55674  1.0000
  C   C1        1.0  0.88513  0.05988  0.33410  1.0000
  C   C2        1.0  0.61486  0.66589  0.94012  1.0000
  C   C3        1.0  0.11486  0.94012  0.66589  1.0000
  C   C4        1.0  0.38513  0.33411  0.05988  1.0000
  C   C5        1.0  0.90580  0.19075  0.35613  1.0000
  C   C6        1.0  0.59420  0.64387  0.80924  1.0000
  C   C7        1.0  0.09420  0.80924  0.64387  1.0000
  C   C8        1.0  0.40580  0.35613  0.19076  1.0000
  C   C9        1.0  0.80711  0.23714  0.30749  1.0000
  C   C10       1.0  0.69289  0.69251  0.76285  1.0000
  C   C11       1.0  0.19289  0.76285  0.69251  1.0000
  C   C12       1.0  0.30711  0.30749  0.23715  1.0000
  C   C13       1.0  0.69015  0.14812  0.23772  1.0000
  C   C14       1.0  0.80985  0.76228  0.85187  1.0000
  C   C15       1.0  0.30985  0.85188  0.76228  1.0000
  C   C16       1.0  0.19015  0.23772  0.14813  1.0000
  C   C17       1.0  0.67630  0.01915  0.22034  1.0000
  C   C18       1.0  0.82370  0.77965  0.98085  1.0000
  C   C19       1.0  0.32370  0.98085  0.77966  1.0000
  C   C20       1.0  0.17630  0.22034  0.01915  1.0000
  C   C21       1.0  0.82543  0.37894  0.33168  1.0000
  C   C22       1.0  0.67457  0.66832  0.62105  1.0000
  C   C23       1.0  0.17457  0.62105  0.66832  1.0000
  C   C24       1.0  0.32543  0.33168  0.37895  1.0000
  C   C25       1.0  0.79089  0.39393  0.11941  1.0000
  C   C26       1.0  0.70912  0.88059  0.60607  1.0000
  C   C27       1.0  0.20911  0.60607  0.88059  1.0000
  C   C28       1.0  0.29089  0.11941  0.39393  1.0000
  C   C29       1.0  0.84290  0.43125  0.02249  1.0000
  C   C30       1.0  0.65710  0.97752  0.56874  1.0000
  C   C31       1.0  0.15710  0.56875  0.97752  1.0000
  C   C32       1.0  0.34290  0.02249  0.43125  1.0000
  C   C33       1.0  0.97537  0.48185  0.04678  1.0000
  C   C34       1.0  0.52463  0.95322  0.51814  1.0000
  C   C35       1.0  0.02463  0.51814  0.95322  1.0000
  C   C36       1.0  0.47537  0.04678  0.48186  1.0000
  C   C37       1.0  0.05990  0.49703  0.16247  1.0000
  C   C38       1.0  0.44011  0.83753  0.50297  1.0000
  C   C39       1.0  0.94010  0.50297  0.83753  1.0000
  C   C40       1.0  0.55990  0.16247  0.49703  1.0000
  C   C41       1.0  0.01006  0.45970  0.26053  1.0000
  C   C42       1.0  0.48994  0.73947  0.54030  1.0000
  C   C43       1.0  0.98994  0.54030  0.73947  1.0000
  C   C44       1.0  0.51006  0.26053  0.45970  1.0000
  C   C45       1.0  0.76147  0.41708  0.90810  1.0000
  C   C46       1.0  0.73854  0.09191  0.58292  1.0000
  C   C47       1.0  0.23854  0.58292  0.09191  1.0000
  C   C48       1.0  0.26147  0.90809  0.41708  1.0000
  C   C49       1.0  0.18975  0.54663  0.18396  1.0000
  C   C50       1.0  0.31025  0.81604  0.45337  1.0000
  C   C51       1.0  0.81025  0.45337  0.81604  1.0000
  C   C52       1.0  0.68975  0.18397  0.54663  1.0000
  N   N1        1.0  0.77227  0.97532  0.26733  1.0000
  N   N2        1.0  0.72772  0.73266  0.02468  1.0000
  N   N3        1.0  0.22773  0.02468  0.73266  1.0000
  N   N4        1.0  0.27227  0.26733  0.97532  1.0000
  N   N5        1.0  0.87831  0.41091  0.23282  1.0000
  N   N6        1.0  0.62170  0.76719  0.58909  1.0000
  N   N7        1.0  0.12169  0.58909  0.76718  1.0000
  N   N8        1.0  0.37831  0.23282  0.41091  1.0000
  Cl  Cl1       1.0  0.93223  0.75028  0.31265  1.0000
  Cl  Cl2       1.0  0.56778  0.68735  0.24973  1.0000
  Cl  Cl3       1.0  0.06778  0.24973  0.68735  1.0000
  Cl  Cl4       1.0  0.43223  0.31264  0.75028  1.0000
  O   O1        1.0  0.67638  0.34891  0.10380  1.0000
  O   O2        1.0  0.82362  0.89621  0.65109  1.0000
  O   O3        1.0  0.32362  0.65109  0.89620  1.0000
  O   O4        1.0  0.17638  0.10380  0.34891  1.0000
  O   O5        1.0  0.08030  0.46882  0.36206  1.0000
  O   O6        1.0  0.41970  0.63794  0.53118  1.0000
  O   O7        1.0  0.91970  0.53118  0.63794  1.0000
  O   O8        1.0  0.58030  0.36206  0.46882  1.0000
