data_image0
_chemical_formula_structural       Zn4H36C68N16O16
_chemical_formula_sum              "Zn4 H36 C68 N16 O16"
_cell_length_a       10.0839
_cell_length_b       10.3791
_cell_length_c       13.4651
_cell_angle_alpha    93.8777
_cell_angle_beta     90.0007
_cell_angle_gamma    90

_space_group_name_H-M_alt    "P 1"
_space_group_IT_number       1

loop_
  _space_group_symop_operation_xyz
  'x, y, z'

loop_
  _atom_site_type_symbol
  _atom_site_label
  _atom_site_symmetry_multiplicity
  _atom_site_fract_x
  _atom_site_fract_y
  _atom_site_fract_z
  _atom_site_occupancy
  Zn  Zn1       1.0  0.88267  0.17122  0.31197  1.0000
  Zn  Zn2       1.0  0.38267  0.82879  0.18800  1.0000
  Zn  Zn3       1.0  0.11732  0.82878  0.68801  1.0000
  Zn  Zn4       1.0  0.61733  0.17121  0.81199  1.0000
  H   H1        1.0  0.61345  0.30116  0.37395  1.0000
  H   H2        1.0  0.11345  0.69885  0.12601  1.0000
  H   H3        1.0  0.38656  0.69885  0.62604  1.0000
  H   H4        1.0  0.88655  0.30115  0.87399  1.0000
  H   H5        1.0  0.53247  0.52704  0.42088  1.0000
  H   H6        1.0  0.03247  0.47296  0.07913  1.0000
  H   H7        1.0  0.46753  0.47296  0.57914  1.0000
  H   H8        1.0  0.96753  0.52703  0.92089  1.0000
  H   H9        1.0  0.69614  0.70676  0.43982  1.0000
  H   H10       1.0  0.19613  0.29324  0.06022  1.0000
  H   H11       1.0  0.30386  0.29325  0.56020  1.0000
  H   H12       1.0  0.80387  0.70675  0.93981  1.0000
  H   H13       1.0  0.93510  0.77869  0.43244  1.0000
  H   H14       1.0  0.43508  0.22131  0.06760  1.0000
  H   H15       1.0  0.06491  0.22131  0.56756  1.0000
  H   H16       1.0  0.56492  0.77869  0.93243  1.0000
  H   H17       1.0  0.17202  0.72284  0.39932  1.0000
  H   H18       1.0  0.67201  0.27716  0.10071  1.0000
  H   H19       1.0  0.82798  0.27716  0.60068  1.0000
  H   H20       1.0  0.32799  0.72284  0.89931  1.0000
  H   H21       1.0  0.34278  0.55844  0.35404  1.0000
  H   H22       1.0  0.84277  0.44155  0.14597  1.0000
  H   H23       1.0  0.65723  0.44154  0.64597  1.0000
  H   H24       1.0  0.15723  0.55844  0.85405  1.0000
  H   H25       1.0  0.40015  0.32039  0.32223  1.0000
  H   H26       1.0  0.90017  0.67961  0.17777  1.0000
  H   H27       1.0  0.59984  0.67960  0.67777  1.0000
  H   H28       1.0  0.09984  0.32038  0.82226  1.0000
  H   H29       1.0  0.21836  0.15886  0.31728  1.0000
  H   H30       1.0  0.71839  0.84114  0.18270  1.0000
  H   H31       1.0  0.78163  0.84114  0.68271  1.0000
  H   H32       1.0  0.28163  0.15885  0.81729  1.0000
  H   H33       1.0  0.60240  0.08721  0.14699  1.0000
  H   H34       1.0  0.10238  0.91279  0.35299  1.0000
  H   H35       1.0  0.39760  0.91279  0.85300  1.0000
  H   H36       1.0  0.89760  0.08721  0.64700  1.0000
  C   C1        1.0  0.68140  0.38304  0.37982  1.0000
  C   C2        1.0  0.18140  0.61697  0.12015  1.0000
  C   C3        1.0  0.31860  0.61697  0.62018  1.0000
  C   C4        1.0  0.81860  0.38303  0.87985  1.0000
  C   C5        1.0  0.63723  0.50900  0.40661  1.0000
  C   C6        1.0  0.13723  0.49100  0.09339  1.0000
  C   C7        1.0  0.36277  0.49100  0.59340  1.0000
  C   C8        1.0  0.86277  0.50899  0.90663  1.0000
  C   C9        1.0  0.72800  0.60894  0.41642  1.0000
  C   C10       1.0  0.22799  0.39106  0.08360  1.0000
  C   C11       1.0  0.27200  0.39106  0.58360  1.0000
  C   C12       1.0  0.77201  0.60893  0.91642  1.0000
  C   C13       1.0  0.86364  0.58269  0.39925  1.0000
  C   C14       1.0  0.36364  0.41731  0.10076  1.0000
  C   C15       1.0  0.13636  0.41731  0.60076  1.0000
  C   C16       1.0  0.63637  0.58269  0.89926  1.0000
  C   C17       1.0  0.96427  0.68016  0.40864  1.0000
  C   C18       1.0  0.46426  0.31983  0.09139  1.0000
  C   C19       1.0  0.03574  0.31984  0.59137  1.0000
  C   C20       1.0  0.53575  0.68016  0.90863  1.0000
  C   C21       1.0  0.09443  0.64983  0.39108  1.0000
  C   C22       1.0  0.59442  0.35016  0.10895  1.0000
  C   C23       1.0  0.90557  0.35016  0.60892  1.0000
  C   C24       1.0  0.40559  0.64983  0.89107  1.0000
  C   C25       1.0  0.13389  0.51934  0.36516  1.0000
  C   C26       1.0  0.63388  0.48066  0.13485  1.0000
  C   C27       1.0  0.86612  0.48066  0.63484  1.0000
  C   C28       1.0  0.36612  0.51934  0.86516  1.0000
  C   C29       1.0  0.26765  0.48259  0.35034  1.0000
  C   C30       1.0  0.76765  0.51741  0.14967  1.0000
  C   C31       1.0  0.73235  0.51740  0.64967  1.0000
  C   C32       1.0  0.23236  0.48258  0.85034  1.0000
  C   C33       1.0  0.29829  0.35339  0.33247  1.0000
  C   C34       1.0  0.79830  0.64661  0.16753  1.0000
  C   C35       1.0  0.70170  0.64660  0.66753  1.0000
  C   C36       1.0  0.20170  0.35339  0.83248  1.0000
  C   C37       1.0  0.19567  0.26136  0.32809  1.0000
  C   C38       1.0  0.69568  0.73864  0.17189  1.0000
  C   C39       1.0  0.80432  0.73864  0.67189  1.0000
  C   C40       1.0  0.30433  0.26135  0.82811  1.0000
  C   C41       1.0  0.03709  0.41995  0.35733  1.0000
  C   C42       1.0  0.53710  0.58005  0.14267  1.0000
  C   C43       1.0  0.96291  0.58005  0.64267  1.0000
  C   C44       1.0  0.46291  0.41995  0.85734  1.0000
  C   C45       1.0  0.89953  0.45271  0.37231  1.0000
  C   C46       1.0  0.39952  0.54730  0.12768  1.0000
  C   C47       1.0  0.10048  0.54730  0.62769  1.0000
  C   C48       1.0  0.60048  0.45270  0.87233  1.0000
  C   C49       1.0  0.47645  0.83668  0.39332  1.0000
  C   C50       1.0  0.97646  0.16334  0.10665  1.0000
  C   C51       1.0  0.52354  0.16332  0.60667  1.0000
  C   C52       1.0  0.02354  0.83667  0.89333  1.0000
  C   C53       1.0  0.55080  0.93729  0.34520  1.0000
  C   C54       1.0  0.05080  0.06273  0.15476  1.0000
  C   C55       1.0  0.44920  0.06272  0.65478  1.0000
  C   C56       1.0  0.94919  0.93727  0.84522  1.0000
  C   C57       1.0  0.66591  0.00812  0.36938  1.0000
  C   C58       1.0  0.16591  0.99190  0.13059  1.0000
  C   C59       1.0  0.33409  0.99188  0.63060  1.0000
  C   C60       1.0  0.83409  0.00811  0.86940  1.0000
  C   C61       1.0  0.60261  0.05106  0.22060  1.0000
  C   C62       1.0  0.10259  0.94893  0.27936  1.0000
  C   C63       1.0  0.39740  0.94894  0.77938  1.0000
  C   C64       1.0  0.89739  0.05106  0.72062  1.0000
  C   C65       1.0  0.75711  0.01401  0.45484  1.0000
  C   C66       1.0  0.25710  0.98599  0.04514  1.0000
  C   C67       1.0  0.24289  0.98599  0.54515  1.0000
  C   C68       1.0  0.74290  0.01401  0.95485  1.0000
  N   N1        1.0  0.80872  0.35640  0.36239  1.0000
  N   N2        1.0  0.30873  0.64361  0.13759  1.0000
  N   N3        1.0  0.19128  0.64360  0.63760  1.0000
  N   N4        1.0  0.69128  0.35640  0.86241  1.0000
  N   N5        1.0  0.06860  0.29384  0.33918  1.0000
  N   N6        1.0  0.56861  0.70616  0.16080  1.0000
  N   N7        1.0  0.93139  0.70616  0.66080  1.0000
  N   N8        1.0  0.43139  0.29384  0.83920  1.0000
  N   N9        1.0  0.51265  0.96670  0.25190  1.0000
  N   N10       1.0  0.01265  0.03332  0.24806  1.0000
  N   N11       1.0  0.48734  0.03331  0.74808  1.0000
  N   N12       1.0  0.98734  0.96669  0.75192  1.0000
  N   N13       1.0  0.69672  0.07858  0.29051  1.0000
  N   N14       1.0  0.19671  0.92143  0.20946  1.0000
  N   N15       1.0  0.30328  0.92142  0.70948  1.0000
  N   N16       1.0  0.80328  0.07857  0.79053  1.0000
  O   O1        1.0  0.38962  0.77331  0.33878  1.0000
  O   O2        1.0  0.88962  0.22671  0.16120  1.0000
  O   O3        1.0  0.61039  0.22670  0.66121  1.0000
  O   O4        1.0  0.11038  0.77331  0.83879  1.0000
  O   O5        1.0  0.73827  0.94619  0.52761  1.0000
  O   O6        1.0  0.23827  0.05380  0.97237  1.0000
  O   O7        1.0  0.26173  0.05381  0.47238  1.0000
  O   O8        1.0  0.76175  0.94619  0.02762  1.0000
  O   O9        1.0  0.49768  0.81028  0.48184  1.0000
  O   O10       1.0  0.99769  0.18974  0.01813  1.0000
  O   O11       1.0  0.50232  0.18973  0.51815  1.0000
  O   O12       1.0  0.00232  0.81027  0.98185  1.0000
  O   O13       1.0  0.85888  0.08936  0.45037  1.0000
  O   O14       1.0  0.35888  0.91065  0.04961  1.0000
  O   O15       1.0  0.14112  0.91064  0.54961  1.0000
  O   O16       1.0  0.64112  0.08935  0.95039  1.0000
