data_image0
_chemical_formula_structural       Cu4H28C40N8O14
_chemical_formula_sum              "Cu4 H28 C40 N8 O14"
_cell_length_a       7.22155
_cell_length_b       9.95431
_cell_length_c       13.7784
_cell_angle_alpha    93.5901
_cell_angle_beta     99.1126
_cell_angle_gamma    103.765

_space_group_name_H-M_alt    "P 1"
_space_group_IT_number       1

loop_
  _space_group_symop_operation_xyz
  'x, y, z'

loop_
  _atom_site_type_symbol
  _atom_site_label
  _atom_site_symmetry_multiplicity
  _atom_site_fract_x
  _atom_site_fract_y
  _atom_site_fract_z
  _atom_site_occupancy
  Cu  Cu1       1.0  0.66235  0.38525  0.11944  1.0000
  Cu  Cu2       1.0  0.33767  0.61474  0.88055  1.0000
  Cu  Cu3       1.0  0.89147  0.33012  0.81206  1.0000
  Cu  Cu4       1.0  0.10854  0.66987  0.18793  1.0000
  H   H1        1.0  0.78716  0.80189  0.82846  1.0000
  H   H2        1.0  0.21285  0.19811  0.17158  1.0000
  H   H3        1.0  0.91186  0.87486  0.67336  1.0000
  H   H4        1.0  0.08816  0.12518  0.32669  1.0000
  H   H5        1.0  0.02145  0.70347  0.57026  1.0000
  H   H6        1.0  0.97856  0.29660  0.42976  1.0000
  H   H7        1.0  0.00734  0.46485  0.62706  1.0000
  H   H8        1.0  0.99267  0.53520  0.37293  1.0000
  H   H9        1.0  0.82699  0.95981  0.99763  1.0000
  H   H10       1.0  0.17297  0.04015  0.00238  1.0000
  H   H11       1.0  0.73226  0.81836  0.13460  1.0000
  H   H12       1.0  0.26766  0.18162  0.86542  1.0000
  H   H13       1.0  0.55812  0.91379  0.25782  1.0000
  H   H14       1.0  0.44186  0.08624  0.74220  1.0000
  H   H15       1.0  0.52994  0.15920  0.25097  1.0000
  H   H16       1.0  0.47008  0.84084  0.74902  1.0000
  H   H17       1.0  0.22119  0.17101  0.63269  1.0000
  H   H18       1.0  0.77881  0.82899  0.36729  1.0000
  H   H19       1.0  0.64261  0.95915  0.48764  1.0000
  H   H20       1.0  0.35739  0.04084  0.51235  1.0000
  H   H21       1.0  0.46636  0.70390  0.40909  1.0000
  H   H22       1.0  0.53363  0.29609  0.59090  1.0000
  H   H23       1.0  0.60363  0.30639  0.41941  1.0000
  H   H24       1.0  0.39636  0.69361  0.58058  1.0000
  H   H25       1.0  0.67847  0.61816  0.17596  1.0000
  H   H26       1.0  0.32154  0.38183  0.82404  1.0000
  H   H27       1.0  0.71067  0.60875  0.05424  1.0000
  H   H28       1.0  0.28934  0.39123  0.94575  1.0000
  C   C1        1.0  0.76054  0.54734  0.89651  1.0000
  C   C2        1.0  0.23945  0.45264  0.10349  1.0000
  C   C3        1.0  0.83486  0.59866  0.80718  1.0000
  C   C4        1.0  0.16515  0.40134  0.19283  1.0000
  C   C5        1.0  0.83886  0.73213  0.78146  1.0000
  C   C6        1.0  0.16116  0.26788  0.21857  1.0000
  C   C7        1.0  0.90743  0.77136  0.69566  1.0000
  C   C8        1.0  0.09260  0.22867  0.30438  1.0000
  C   C9        1.0  0.96865  0.67608  0.63799  1.0000
  C   C10       1.0  0.03137  0.32397  0.36203  1.0000
  C   C11       1.0  0.96112  0.54409  0.66838  1.0000
  C   C12       1.0  0.03890  0.45595  0.33163  1.0000
  C   C13       1.0  0.77908  0.22286  0.97633  1.0000
  C   C14       1.0  0.22092  0.77711  0.02366  1.0000
  C   C15       1.0  0.72937  0.13202  0.05379  1.0000
  C   C16       1.0  0.27062  0.86796  0.94621  1.0000
  C   C17       1.0  0.76015  0.99924  0.05497  1.0000
  C   C18       1.0  0.23982  0.00073  0.94503  1.0000
  C   C19       1.0  0.70402  0.92039  0.13044  1.0000
  C   C20       1.0  0.29593  0.07960  0.86957  1.0000
  C   C21       1.0  0.61354  0.97385  0.20049  1.0000
  C   C22       1.0  0.38644  0.02616  0.79952  1.0000
  C   C23       1.0  0.59204  0.10913  0.19612  1.0000
  C   C24       1.0  0.40796  0.89088  0.80388  1.0000
  C   C25       1.0  0.84134  0.14512  0.64353  1.0000
  C   C26       1.0  0.15866  0.85488  0.35646  1.0000
  C   C27       1.0  0.92406  0.07242  0.56811  1.0000
  C   C28       1.0  0.07595  0.92757  0.43188  1.0000
  C   C29       1.0  0.12544  0.09559  0.57448  1.0000
  C   C30       1.0  0.87456  0.90441  0.42551  1.0000
  C   C31       1.0  0.79892  0.97663  0.49292  1.0000
  C   C32       1.0  0.20108  0.02336  0.50708  1.0000
  C   C33       1.0  0.58163  0.51483  0.30127  1.0000
  C   C34       1.0  0.41837  0.48516  0.69872  1.0000
  C   C35       1.0  0.54145  0.50647  0.40430  1.0000
  C   C36       1.0  0.45855  0.49353  0.59568  1.0000
  C   C37       1.0  0.48244  0.61556  0.44965  1.0000
  C   C38       1.0  0.51756  0.38444  0.55034  1.0000
  C   C39       1.0  0.55869  0.39110  0.45518  1.0000
  C   C40       1.0  0.44130  0.60889  0.54480  1.0000
  N   N1        1.0  0.79608  0.42495  0.91385  1.0000
  N   N2        1.0  0.20393  0.57503  0.08614  1.0000
  N   N3        1.0  0.74350  0.34870  0.98815  1.0000
  N   N4        1.0  0.25650  0.65128  0.01184  1.0000
  N   N5        1.0  0.89629  0.50744  0.75107  1.0000
  N   N6        1.0  0.10373  0.49257  0.24893  1.0000
  N   N7        1.0  0.65076  0.18644  0.12527  1.0000
  N   N8        1.0  0.34924  0.81356  0.87472  1.0000
  O   O1        1.0  0.67444  0.62003  0.94466  1.0000
  O   O2        1.0  0.32555  0.37994  0.05534  1.0000
  O   O3        1.0  0.84881  0.17966  0.90360  1.0000
  O   O4        1.0  0.15119  0.82032  0.09639  1.0000
  O   O5        1.0  0.97168  0.23408  0.70778  1.0000
  O   O6        1.0  0.02832  0.76594  0.29219  1.0000
  O   O7        1.0  0.66274  0.11789  0.64193  1.0000
  O   O8        1.0  0.33727  0.88208  0.35807  1.0000
  O   O9        1.0  0.57973  0.62620  0.26194  1.0000
  O   O10       1.0  0.42028  0.37379  0.73805  1.0000
  O   O11       1.0  0.61422  0.40547  0.25876  1.0000
  O   O12       1.0  0.38578  0.59453  0.74123  1.0000
  O   O13       1.0  0.75551  0.58742  0.12450  1.0000
  O   O14       1.0  0.24451  0.41256  0.87550  1.0000
