data_image0
_chemical_formula_structural       Cu4H16C28N12O2
_chemical_formula_sum              "Cu4 H16 C28 N12 O2"
_cell_length_a       9.25009
_cell_length_b       9.24996
_cell_length_c       9.434
_cell_angle_alpha    100.667
_cell_angle_beta     100.67
_cell_angle_gamma    115.99

_space_group_name_H-M_alt    "P 1"
_space_group_IT_number       1

loop_
  _space_group_symop_operation_xyz
  'x, y, z'

loop_
  _atom_site_type_symbol
  _atom_site_label
  _atom_site_symmetry_multiplicity
  _atom_site_fract_x
  _atom_site_fract_y
  _atom_site_fract_z
  _atom_site_occupancy
  Cu  Cu1       1.0  0.24455  0.15391  0.15334  1.0000
  Cu  Cu2       1.0  0.84608  0.75542  0.34665  1.0000
  Cu  Cu3       1.0  0.75545  0.84609  0.84666  1.0000
  Cu  Cu4       1.0  0.15392  0.24458  0.65335  1.0000
  H   H1        1.0  0.06087  0.76361  0.04549  1.0000
  H   H2        1.0  0.23637  0.93912  0.45451  1.0000
  H   H3        1.0  0.93912  0.23638  0.95451  1.0000
  H   H4        1.0  0.76363  0.06088  0.54549  1.0000
  H   H5        1.0  0.14287  0.53493  0.01967  1.0000
  H   H6        1.0  0.46507  0.85715  0.48033  1.0000
  H   H7        1.0  0.85714  0.46507  0.98033  1.0000
  H   H8        1.0  0.53493  0.14286  0.51967  1.0000
  H   H9        1.0  0.44925  0.61782  0.09836  1.0000
  H   H10       1.0  0.38218  0.55077  0.40164  1.0000
  H   H11       1.0  0.55076  0.38218  0.90164  1.0000
  H   H12       1.0  0.61782  0.44924  0.59836  1.0000
  H   H13       1.0  0.66297  0.92418  0.19637  1.0000
  H   H14       1.0  0.07582  0.33703  0.30363  1.0000
  H   H15       1.0  0.33703  0.07582  0.80363  1.0000
  H   H16       1.0  0.92418  0.66297  0.69637  1.0000
  C   C1        1.0  0.19260  0.79316  0.07657  1.0000
  C   C2        1.0  0.20684  0.80741  0.42343  1.0000
  C   C3        1.0  0.80740  0.20684  0.92343  1.0000
  C   C4        1.0  0.79316  0.19259  0.57657  1.0000
  C   C5        1.0  0.23886  0.66752  0.06298  1.0000
  C   C6        1.0  0.33248  0.76114  0.43701  1.0000
  C   C7        1.0  0.76114  0.33249  0.93702  1.0000
  C   C8        1.0  0.66752  0.23886  0.56298  1.0000
  C   C9        1.0  0.40931  0.71304  0.10687  1.0000
  C   C10       1.0  0.28696  0.59070  0.39312  1.0000
  C   C11       1.0  0.59069  0.28696  0.89313  1.0000
  C   C12       1.0  0.71304  0.40930  0.60687  1.0000
  C   C13       1.0  0.52883  0.88374  0.16213  1.0000
  C   C14       1.0  0.11625  0.47117  0.33787  1.0000
  C   C15       1.0  0.47117  0.11626  0.83787  1.0000
  C   C16       1.0  0.88375  0.52883  0.66213  1.0000
  C   C17       1.0  0.47192  0.00132  0.16891  1.0000
  C   C18       1.0  0.99868  0.52808  0.33109  1.0000
  C   C19       1.0  0.52808  0.99869  0.83109  1.0000
  C   C20       1.0  0.00132  0.47192  0.66891  1.0000
  C   C21       1.0  0.58722  0.18086  0.21625  1.0000
  C   C22       1.0  0.81914  0.41277  0.28375  1.0000
  C   C23       1.0  0.41277  0.81914  0.78375  1.0000
  C   C24       1.0  0.18086  0.58723  0.71625  1.0000
  C   C25       1.0  0.19375  0.19908  0.97210  1.0000
  C   C26       1.0  0.80090  0.80625  0.52792  1.0000
  C   C27       1.0  0.80625  0.80092  0.02790  1.0000
  C   C28       1.0  0.19909  0.19375  0.47209  1.0000
  N   N1        1.0  0.30628  0.95833  0.12805  1.0000
  N   N2        1.0  0.04166  0.69371  0.37195  1.0000
  N   N3        1.0  0.69372  0.04167  0.87195  1.0000
  N   N4        1.0  0.95834  0.30629  0.62805  1.0000
  N   N5        1.0  0.54800  0.30204  0.22860  1.0000
  N   N6        1.0  0.69796  0.45200  0.27141  1.0000
  N   N7        1.0  0.45201  0.69796  0.77141  1.0000
  N   N8        1.0  0.30205  0.54800  0.72859  1.0000
  N   N9        1.0  0.17807  0.21818  0.85098  1.0000
  N   N10       1.0  0.78183  0.82194  0.64903  1.0000
  N   N11       1.0  0.82193  0.78183  0.14902  1.0000
  N   N12       1.0  0.21817  0.17806  0.35098  1.0000
  O   O1        1.0  0.75763  0.24236  0.24999  1.0000
  O   O2        1.0  0.24237  0.75764  0.75000  1.0000
