data_image0
_chemical_formula_structural       Cu2H32C20N2O10
_chemical_formula_sum              "Cu2 H32 C20 N2 O10"
_cell_length_a       7.45655
_cell_length_b       7.86768
_cell_length_c       10.8125
_cell_angle_alpha    84.4928
_cell_angle_beta     87.9762
_cell_angle_gamma    71.3806

_space_group_name_H-M_alt    "P 1"
_space_group_IT_number       1

loop_
  _space_group_symop_operation_xyz
  'x, y, z'

loop_
  _atom_site_type_symbol
  _atom_site_label
  _atom_site_symmetry_multiplicity
  _atom_site_fract_x
  _atom_site_fract_y
  _atom_site_fract_z
  _atom_site_occupancy
  Cu  Cu1       1.0  0.02758  0.97759  0.13831  1.0000
  Cu  Cu2       1.0  0.97243  0.02240  0.86169  1.0000
  H   H1        1.0  0.27005  0.20549  0.04580  1.0000
  H   H2        1.0  0.72995  0.79450  0.95420  1.0000
  H   H3        1.0  0.86032  0.77516  0.27281  1.0000
  H   H4        1.0  0.13967  0.22484  0.72718  1.0000
  H   H5        1.0  0.09572  0.42034  0.15950  1.0000
  H   H6        1.0  0.90428  0.57967  0.84050  1.0000
  H   H7        1.0  0.28558  0.32271  0.26417  1.0000
  H   H8        1.0  0.71443  0.67729  0.73583  1.0000
  H   H9        1.0  0.13658  0.10712  0.36030  1.0000
  H   H10       1.0  0.86343  0.89288  0.63970  1.0000
  H   H11       1.0  0.99054  0.33576  0.36917  1.0000
  H   H12       1.0  0.00946  0.66424  0.63082  1.0000
  H   H13       1.0  0.69819  0.21417  0.39749  1.0000
  H   H14       1.0  0.30182  0.78584  0.60251  1.0000
  H   H15       1.0  0.89091  0.00986  0.40647  1.0000
  H   H16       1.0  0.10909  0.99015  0.59352  1.0000
  H   H17       1.0  0.58478  0.96789  0.36786  1.0000
  H   H18       1.0  0.41523  0.03212  0.63214  1.0000
  H   H19       1.0  0.55409  0.10499  0.22602  1.0000
  H   H20       1.0  0.44592  0.89502  0.77398  1.0000
  H   H21       1.0  0.77004  0.46590  0.20189  1.0000
  H   H22       1.0  0.22997  0.53411  0.79811  1.0000
  H   H23       1.0  0.62492  0.33104  0.18138  1.0000
  H   H24       1.0  0.37508  0.66897  0.81862  1.0000
  H   H25       1.0  0.94383  0.37525  0.00849  1.0000
  H   H26       1.0  0.05618  0.62475  0.99151  1.0000
  H   H27       1.0  0.70228  0.40987  0.97391  1.0000
  H   H28       1.0  0.29773  0.59013  0.02609  1.0000
  H   H29       1.0  0.19854  0.42751  0.52560  1.0000
  H   H30       1.0  0.80144  0.57248  0.47441  1.0000
  H   H31       1.0  0.53093  0.72407  0.32889  1.0000
  H   H32       1.0  0.46905  0.27592  0.67111  1.0000
  C   C1        1.0  0.17610  0.29360  0.21172  1.0000
  C   C2        1.0  0.82391  0.70640  0.78828  1.0000
  C   C3        1.0  0.05015  0.22938  0.30606  1.0000
  C   C4        1.0  0.94985  0.77062  0.69394  1.0000
  C   C5        1.0  0.78758  0.10660  0.34285  1.0000
  C   C6        1.0  0.21243  0.89341  0.65715  1.0000
  C   C7        1.0  0.66187  0.01235  0.28850  1.0000
  C   C8        1.0  0.33814  0.98766  0.71149  1.0000
  C   C9        1.0  0.76911  0.33782  0.16912  1.0000
  C   C10       1.0  0.23089  0.66219  0.83088  1.0000
  C   C11       1.0  0.82292  0.32438  0.03179  1.0000
  C   C12       1.0  0.17709  0.67562  0.96822  1.0000
  C   C13       1.0  0.18191  0.68591  0.33750  1.0000
  C   C14       1.0  0.81809  0.31409  0.66250  1.0000
  C   C15       1.0  0.34870  0.58569  0.41891  1.0000
  C   C16       1.0  0.65128  0.41429  0.58109  1.0000
  C   C17       1.0  0.33154  0.45746  0.51428  1.0000
  C   C18       1.0  0.66844  0.54252  0.48573  1.0000
  C   C19       1.0  0.51846  0.62672  0.40478  1.0000
  C   C20       1.0  0.48152  0.37326  0.59522  1.0000
  N   N1        1.0  0.89705  0.18192  0.24787  1.0000
  N   N2        1.0  0.10295  0.81809  0.75213  1.0000
  O   O1        1.0  0.86599  0.14298  0.00896  1.0000
  O   O2        1.0  0.13402  0.85702  0.99104  1.0000
  O   O3        1.0  0.26195  0.15512  0.13083  1.0000
  O   O4        1.0  0.73805  0.84488  0.86917  1.0000
  O   O5        1.0  0.20496  0.81172  0.26020  1.0000
  O   O6        1.0  0.79502  0.18828  0.73981  1.0000
  O   O7        1.0  0.76071  0.86647  0.21817  1.0000
  O   O8        1.0  0.23930  0.13354  0.78182  1.0000
  O   O9        1.0  0.03216  0.64291  0.35252  1.0000
  O   O10       1.0  0.96781  0.35710  0.64749  1.0000
