data_image0
_chemical_formula_structural       Ag2H12C12S4N2O10
_chemical_formula_sum              "Ag2 H12 C12 S4 N2 O10"
_cell_length_a       8.11435
_cell_length_b       8.18372
_cell_length_c       8.18378
_cell_angle_alpha    92.5791
_cell_angle_beta     113.192
_cell_angle_gamma    113.192

_space_group_name_H-M_alt    "P 1"
_space_group_IT_number       1

loop_
  _space_group_symop_operation_xyz
  'x, y, z'

loop_
  _atom_site_type_symbol
  _atom_site_label
  _atom_site_symmetry_multiplicity
  _atom_site_fract_x
  _atom_site_fract_y
  _atom_site_fract_z
  _atom_site_occupancy
  Ag  Ag1       1.0  0.68862  0.95746  0.95746  1.0000
  Ag  Ag2       1.0  0.31138  0.04254  0.04254  1.0000
  H   H1        1.0  0.41910  0.72813  0.10661  1.0000
  H   H2        1.0  0.58090  0.89339  0.27187  1.0000
  H   H3        1.0  0.58090  0.27187  0.89339  1.0000
  H   H4        1.0  0.41911  0.10661  0.72813  1.0000
  H   H5        1.0  0.77557  0.26851  0.69277  1.0000
  H   H6        1.0  0.22443  0.30723  0.73149  1.0000
  H   H7        1.0  0.22443  0.73150  0.30723  1.0000
  H   H8        1.0  0.77557  0.69278  0.26851  1.0000
  H   H9        1.0  0.74921  0.17750  0.38720  1.0000
  H   H10       1.0  0.25078  0.61279  0.82250  1.0000
  H   H11       1.0  0.25078  0.82249  0.61279  1.0000
  H   H12       1.0  0.74921  0.38721  0.17749  1.0000
  C   C1        1.0  0.78762  0.53131  0.64954  1.0000
  C   C2        1.0  0.21238  0.35045  0.46869  1.0000
  C   C3        1.0  0.21237  0.46870  0.35045  1.0000
  C   C4        1.0  0.78762  0.64955  0.53131  1.0000
  C   C5        1.0  0.77172  0.35943  0.60000  1.0000
  C   C6        1.0  0.22828  0.40002  0.64058  1.0000
  C   C7        1.0  0.22827  0.64056  0.40001  1.0000
  C   C8        1.0  0.77173  0.59999  0.35941  1.0000
  C   C9        1.0  0.75575  0.30910  0.42677  1.0000
  C   C10       1.0  0.24425  0.57321  0.69091  1.0000
  C   C11       1.0  0.24424  0.69091  0.57322  1.0000
  C   C12       1.0  0.75575  0.42678  0.30911  1.0000
  S   S1        1.0  0.82668  0.63741  0.86427  1.0000
  S   S2        1.0  0.17334  0.13573  0.36260  1.0000
  S   S3        1.0  0.17334  0.36260  0.13573  1.0000
  S   S4        1.0  0.82667  0.86427  0.63740  1.0000
  N   N1        1.0  0.76945  0.80079  0.80079  1.0000
  N   N2        1.0  0.23056  0.19921  0.19922  1.0000
  O   O1        1.0  0.50000  0.86251  0.13748  1.0000
  O   O2        1.0  0.50001  0.13749  0.86252  1.0000
  O   O3        1.0  0.03776  0.70542  0.99367  1.0000
  O   O4        1.0  0.96224  0.00632  0.29458  1.0000
  O   O5        1.0  0.96223  0.29458  0.00632  1.0000
  O   O6        1.0  0.03776  0.99367  0.70542  1.0000
  O   O7        1.0  0.68301  0.51919  0.92286  1.0000
  O   O8        1.0  0.31699  0.07714  0.48081  1.0000
  O   O9        1.0  0.31699  0.48081  0.07715  1.0000
  O   O10       1.0  0.68301  0.92286  0.51920  1.0000
