data_image0
_chemical_formula_structural       Cd4H20C16S2N8O20
_chemical_formula_sum              "Cd4 H20 C16 S2 N8 O20"
_cell_length_a       6.34867
_cell_length_b       7.53581
_cell_length_c       17.3909
_cell_angle_alpha    84.5976
_cell_angle_beta     89.3311
_cell_angle_gamma    66.7111

_space_group_name_H-M_alt    "P 1"
_space_group_IT_number       1

loop_
  _space_group_symop_operation_xyz
  'x, y, z'

loop_
  _atom_site_type_symbol
  _atom_site_label
  _atom_site_symmetry_multiplicity
  _atom_site_fract_x
  _atom_site_fract_y
  _atom_site_fract_z
  _atom_site_occupancy
  Cd  Cd1       1.0  0.16090  0.98231  0.19139  1.0000
  Cd  Cd2       1.0  0.83910  0.01769  0.80861  1.0000
  Cd  Cd3       1.0  0.69113  0.90171  0.32330  1.0000
  Cd  Cd4       1.0  0.30887  0.09829  0.67670  1.0000
  H   H1        1.0  0.57514  0.29581  0.98185  1.0000
  H   H2        1.0  0.42485  0.70420  0.01815  1.0000
  H   H3        1.0  0.94508  0.23109  0.00089  1.0000
  H   H4        1.0  0.05492  0.76891  0.99911  1.0000
  H   H5        1.0  0.36427  0.63185  0.53723  1.0000
  H   H6        1.0  0.63573  0.36814  0.46277  1.0000
  H   H7        1.0  0.65119  0.77072  0.53203  1.0000
  H   H8        1.0  0.34882  0.22928  0.46796  1.0000
  H   H9        1.0  0.18839  0.36546  0.91596  1.0000
  H   H10       1.0  0.81160  0.63454  0.08404  1.0000
  H   H11       1.0  0.03371  0.59736  0.60987  1.0000
  H   H12       1.0  0.96629  0.40264  0.39013  1.0000
  H   H13       1.0  0.44294  0.58358  0.17922  1.0000
  H   H14       1.0  0.55706  0.41642  0.82078  1.0000
  H   H15       1.0  0.18207  0.61580  0.16231  1.0000
  H   H16       1.0  0.81793  0.38420  0.83769  1.0000
  H   H17       1.0  0.56483  0.30877  0.29634  1.0000
  H   H18       1.0  0.43517  0.69123  0.70366  1.0000
  H   H19       1.0  0.34180  0.26198  0.30234  1.0000
  H   H20       1.0  0.65820  0.73802  0.69766  1.0000
  C   C1        1.0  0.61265  0.05872  0.14124  1.0000
  C   C2        1.0  0.38735  0.94129  0.85876  1.0000
  C   C3        1.0  0.43853  0.15007  0.07824  1.0000
  C   C4        1.0  0.56147  0.84994  0.92176  1.0000
  C   C5        1.0  0.44523  0.25360  0.00877  1.0000
  C   C6        1.0  0.55476  0.74642  0.99123  1.0000
  C   C7        1.0  0.11410  0.22099  0.01680  1.0000
  C   C8        1.0  0.88589  0.77901  0.98320  1.0000
  C   C9        1.0  0.20348  0.83165  0.37253  1.0000
  C   C10       1.0  0.79654  0.16833  0.62747  1.0000
  C   C11       1.0  0.09502  0.78377  0.44253  1.0000
  C   C12       1.0  0.90499  0.21622  0.55747  1.0000
  C   C13       1.0  0.19048  0.68987  0.51369  1.0000
  C   C14       1.0  0.80952  0.31013  0.48631  1.0000
  C   C15       1.0  0.81759  0.75987  0.51185  1.0000
  C   C16       1.0  0.18242  0.24013  0.48815  1.0000
  S   S1        1.0  0.90134  0.45511  0.24120  1.0000
  S   S2        1.0  0.09866  0.54489  0.75880  1.0000
  N   N1        1.0  0.22978  0.13266  0.08180  1.0000
  N   N2        1.0  0.77021  0.86734  0.91820  1.0000
  N   N3        1.0  0.23989  0.29653  0.97142  1.0000
  N   N4        1.0  0.76010  0.70348  0.02858  1.0000
  N   N5        1.0  0.86208  0.82585  0.44281  1.0000
  N   N6        1.0  0.13793  0.17414  0.55719  1.0000
  N   N7        1.0  0.01353  0.67615  0.55598  1.0000
  N   N8        1.0  0.98647  0.32385  0.44402  1.0000
  O   O1        1.0  0.55305  0.97030  0.19945  1.0000
  O   O2        1.0  0.44695  0.02970  0.80055  1.0000
  O   O3        1.0  0.29849  0.67216  0.15094  1.0000
  O   O4        1.0  0.70151  0.32784  0.84905  1.0000
  O   O5        1.0  0.48942  0.23730  0.32958  1.0000
  O   O6        1.0  0.51058  0.76270  0.67042  1.0000
  O   O7        1.0  0.80408  0.07060  0.13350  1.0000
  O   O8        1.0  0.19592  0.92940  0.86650  1.0000
  O   O9        1.0  0.07574  0.88749  0.31036  1.0000
  O   O10       1.0  0.92427  0.11251  0.68965  1.0000
  O   O11       1.0  0.40882  0.81331  0.37795  1.0000
  O   O12       1.0  0.59120  0.18667  0.62205  1.0000
  O   O13       1.0  0.09453  0.26165  0.25958  1.0000
  O   O14       1.0  0.90546  0.73835  0.74042  1.0000
  O   O15       1.0  0.94993  0.55694  0.17032  1.0000
  O   O16       1.0  0.05007  0.44305  0.82968  1.0000
  O   O17       1.0  0.88881  0.56687  0.30907  1.0000
  O   O18       1.0  0.11120  0.43313  0.69093  1.0000
  O   O19       1.0  0.68348  0.42985  0.23026  1.0000
  O   O20       1.0  0.31651  0.57015  0.76974  1.0000
