data_image0
_chemical_formula_structural       Cd2H44C50N8O14
_chemical_formula_sum              "Cd2 H44 C50 N8 O14"
_cell_length_a       10.3243
_cell_length_b       10.9642
_cell_length_c       14.0322
_cell_angle_alpha    89.2332
_cell_angle_beta     72.4791
_cell_angle_gamma    75.5564

_space_group_name_H-M_alt    "P 1"
_space_group_IT_number       1

loop_
  _space_group_symop_operation_xyz
  'x, y, z'

loop_
  _atom_site_type_symbol
  _atom_site_label
  _atom_site_symmetry_multiplicity
  _atom_site_fract_x
  _atom_site_fract_y
  _atom_site_fract_z
  _atom_site_occupancy
  Cd  Cd1       1.0  0.89460  0.36052  0.73869  1.0000
  Cd  Cd2       1.0  0.10540  0.63948  0.26131  1.0000
  H   H1        1.0  0.26786  0.68348  0.54410  1.0000
  H   H2        1.0  0.73214  0.31653  0.45590  1.0000
  H   H3        1.0  0.02734  0.54081  0.61049  1.0000
  H   H4        1.0  0.97266  0.45919  0.38950  1.0000
  H   H5        1.0  0.70434  0.64846  0.52197  1.0000
  H   H6        1.0  0.29566  0.35155  0.47802  1.0000
  H   H7        1.0  0.58331  0.63180  0.25702  1.0000
  H   H8        1.0  0.41669  0.36820  0.74298  1.0000
  H   H9        1.0  0.41761  0.93700  0.67346  1.0000
  H   H10       1.0  0.58239  0.06301  0.32655  1.0000
  H   H11       1.0  0.47891  0.70118  0.77876  1.0000
  H   H12       1.0  0.52109  0.29882  0.22124  1.0000
  H   H13       1.0  0.61328  0.60241  0.68179  1.0000
  H   H14       1.0  0.38672  0.39759  0.31821  1.0000
  H   H15       1.0  0.85225  0.89047  0.41363  1.0000
  H   H16       1.0  0.14775  0.10953  0.58637  1.0000
  H   H17       1.0  0.93070  0.86715  0.61059  1.0000
  H   H18       1.0  0.06930  0.13286  0.38941  1.0000
  H   H19       1.0  0.05331  0.31766  0.91818  1.0000
  H   H20       1.0  0.94669  0.68234  0.08181  1.0000
  H   H21       1.0  0.99274  0.26126  0.24817  1.0000
  H   H22       1.0  0.00726  0.73874  0.75182  1.0000
  H   H23       1.0  0.81527  0.30912  0.25020  1.0000
  H   H24       1.0  0.18474  0.69087  0.74980  1.0000
  H   H25       1.0  0.62202  0.47252  0.96243  1.0000
  H   H26       1.0  0.37798  0.52748  0.03757  1.0000
  H   H27       1.0  0.77384  0.13031  0.34681  1.0000
  H   H28       1.0  0.22617  0.86970  0.65319  1.0000
  H   H29       1.0  0.11330  0.89970  0.11932  1.0000
  H   H30       1.0  0.88670  0.10030  0.88068  1.0000
  H   H31       1.0  0.94191  0.46424  0.16763  1.0000
  H   H32       1.0  0.05809  0.53576  0.83237  1.0000
  H   H33       1.0  0.07458  0.34473  0.08426  1.0000
  H   H34       1.0  0.92543  0.65527  0.91574  1.0000
  H   H35       1.0  0.52668  0.11485  0.62913  1.0000
  H   H36       1.0  0.47332  0.88515  0.37087  1.0000
  H   H37       1.0  0.78494  0.08154  0.59765  1.0000
  H   H38       1.0  0.21506  0.91847  0.40236  1.0000
  H   H39       1.0  0.04250  0.12247  0.08661  1.0000
  H   H40       1.0  0.95751  0.87753  0.91339  1.0000
  H   H41       1.0  0.85746  0.15400  0.11320  1.0000
  H   H42       1.0  0.14254  0.84600  0.88679  1.0000
  H   H43       1.0  0.67206  0.48045  0.14686  1.0000
  H   H44       1.0  0.32794  0.51956  0.85314  1.0000
  C   C1        1.0  0.47984  0.67362  0.54676  1.0000
  C   C2        1.0  0.52016  0.32638  0.45324  1.0000
  C   C3        1.0  0.41639  0.65221  0.39614  1.0000
  C   C4        1.0  0.58361  0.34779  0.60386  1.0000
  C   C5        1.0  0.37770  0.67147  0.50036  1.0000
  C   C6        1.0  0.62230  0.32853  0.49964  1.0000
  C   C7        1.0  0.65791  0.63695  0.38472  1.0000
  C   C8        1.0  0.34209  0.36305  0.61528  1.0000
  C   C9        1.0  0.84477  0.65930  0.66846  1.0000
  C   C10       1.0  0.15523  0.34070  0.33154  1.0000
  C   C11       1.0  0.62106  0.65141  0.48917  1.0000
  C   C12       1.0  0.37894  0.34859  0.51083  1.0000
  C   C13       1.0  0.75476  0.78398  0.65607  1.0000
  C   C14       1.0  0.24525  0.21602  0.34393  1.0000
  C   C15       1.0  0.55583  0.63859  0.33819  1.0000
  C   C16       1.0  0.44417  0.36141  0.66181  1.0000
  C   C17       1.0  0.30858  0.64834  0.34541  1.0000
  C   C18       1.0  0.69141  0.35167  0.65459  1.0000
  C   C19       1.0  0.60883  0.80209  0.67387  1.0000
  C   C20       1.0  0.39117  0.19791  0.32613  1.0000
  C   C21       1.0  0.52969  0.92201  0.66258  1.0000
  C   C22       1.0  0.47031  0.07799  0.33742  1.0000
  C   C23       1.0  0.53756  0.69511  0.69861  1.0000
  C   C24       1.0  0.46245  0.30489  0.30139  1.0000
  C   C25       1.0  0.89486  0.92770  0.34229  1.0000
  C   C26       1.0  0.10514  0.07230  0.65771  1.0000
  C   C27       1.0  0.80585  0.62741  0.32178  1.0000
  C   C28       1.0  0.19415  0.37259  0.67822  1.0000
  C   C29       1.0  0.81726  0.88421  0.62692  1.0000
  C   C30       1.0  0.18274  0.11579  0.37308  1.0000
  C   C31       1.0  0.94201  0.35741  0.95520  1.0000
  C   C32       1.0  0.05799  0.64259  0.04480  1.0000
  C   C33       1.0  0.92382  0.27442  0.20063  1.0000
  C   C34       1.0  0.07618  0.72558  0.79937  1.0000
  C   C35       1.0  0.71865  0.43994  0.98145  1.0000
  C   C36       1.0  0.28135  0.56006  0.01855  1.0000
  C   C37       1.0  0.85504  0.04671  0.31076  1.0000
  C   C38       1.0  0.14496  0.95329  0.68924  1.0000
  C   C39       1.0  0.03193  0.92761  0.19080  1.0000
  C   C40       1.0  0.96807  0.07239  0.80920  1.0000
  C   C41       1.0  0.96239  0.37304  0.12735  1.0000
  C   C42       1.0  0.03761  0.62696  0.87265  1.0000
  C   C43       1.0  0.59149  0.02216  0.63615  1.0000
  C   C44       1.0  0.40851  0.97784  0.36386  1.0000
  C   C45       1.0  0.73591  0.00364  0.61844  1.0000
  C   C46       1.0  0.26409  0.99636  0.38156  1.0000
  C   C47       1.0  0.94183  0.14814  0.14726  1.0000
  C   C48       1.0  0.05817  0.85186  0.85274  1.0000
  C   C49       1.0  0.74195  0.44411  0.07284  1.0000
  C   C50       1.0  0.25805  0.55589  0.92716  1.0000
  N   N1        1.0  0.84413  0.38600  0.90893  1.0000
  N   N2        1.0  0.15587  0.61400  0.09106  1.0000
  N   N3        1.0  0.00493  0.85476  0.26676  1.0000
  N   N4        1.0  0.99507  0.14524  0.73324  1.0000
  N   N5        1.0  0.88453  0.39147  0.05449  1.0000
  N   N6        1.0  0.11547  0.60853  0.94551  1.0000
  N   N7        1.0  0.94324  0.04507  0.21416  1.0000
  N   N8        1.0  0.05677  0.95493  0.78583  1.0000
  O   O1        1.0  0.43241  0.69946  0.64903  1.0000
  O   O2        1.0  0.56759  0.30054  0.35097  1.0000
  O   O3        1.0  0.80312  0.59347  0.73840  1.0000
  O   O4        1.0  0.19688  0.40653  0.26160  1.0000
  O   O5        1.0  0.34826  0.62910  0.25025  1.0000
  O   O6        1.0  0.65174  0.37090  0.74975  1.0000
  O   O7        1.0  0.97036  0.62849  0.60042  1.0000
  O   O8        1.0  0.02964  0.37150  0.39958  1.0000
  O   O9        1.0  0.90354  0.59542  0.36518  1.0000
  O   O10       1.0  0.09646  0.40458  0.63482  1.0000
  O   O11       1.0  0.82992  0.65291  0.23179  1.0000
  O   O12       1.0  0.17008  0.34709  0.76821  1.0000
  O   O13       1.0  0.18134  0.66315  0.40013  1.0000
  O   O14       1.0  0.81865  0.33684  0.59988  1.0000
