data_image0
_chemical_formula_structural       Co2H48C52N8O14
_chemical_formula_sum              "Co2 H48 C52 N8 O14"
_cell_length_a       9.69921
_cell_length_b       11.0438
_cell_length_c       11.4553
_cell_angle_alpha    92.1236
_cell_angle_beta     93.1876
_cell_angle_gamma    97.4824

_space_group_name_H-M_alt    "P 1"
_space_group_IT_number       1

loop_
  _space_group_symop_operation_xyz
  'x, y, z'

loop_
  _atom_site_type_symbol
  _atom_site_label
  _atom_site_symmetry_multiplicity
  _atom_site_fract_x
  _atom_site_fract_y
  _atom_site_fract_z
  _atom_site_occupancy
  Co  Co1       1.0  0.29377  0.10923  0.29508  1.0000
  Co  Co2       1.0  0.70622  0.89077  0.70492  1.0000
  H   H1        1.0  0.43457  0.20568  0.62634  1.0000
  H   H2        1.0  0.56543  0.79432  0.37366  1.0000
  H   H3        1.0  0.08315  0.04869  0.07540  1.0000
  H   H4        1.0  0.91685  0.95131  0.92459  1.0000
  H   H5        1.0  0.07802  0.17753  0.77981  1.0000
  H   H6        1.0  0.92199  0.82247  0.22019  1.0000
  H   H7        1.0  0.04338  0.29157  0.88215  1.0000
  H   H8        1.0  0.95662  0.70842  0.11785  1.0000
  H   H9        1.0  0.74476  0.08427  0.31934  1.0000
  H   H10       1.0  0.25524  0.91573  0.68066  1.0000
  H   H11       1.0  0.50992  0.81917  0.96545  1.0000
  H   H12       1.0  0.49008  0.18083  0.03455  1.0000
  H   H13       1.0  0.41280  0.85524  0.83805  1.0000
  H   H14       1.0  0.58720  0.14476  0.16195  1.0000
  H   H15       1.0  0.12806  0.62630  0.58082  1.0000
  H   H16       1.0  0.87193  0.37371  0.41918  1.0000
  H   H17       1.0  0.38153  0.63471  0.84637  1.0000
  H   H18       1.0  0.61847  0.36529  0.15364  1.0000
  H   H19       1.0  0.22263  0.68518  0.87916  1.0000
  H   H20       1.0  0.77737  0.31482  0.12085  1.0000
  H   H21       1.0  0.65302  0.22953  0.65731  1.0000
  H   H22       1.0  0.34699  0.77046  0.34269  1.0000
  H   H23       1.0  0.97772  0.47369  0.68514  1.0000
  H   H24       1.0  0.02228  0.52630  0.31487  1.0000
  H   H25       1.0  0.07558  0.18683  0.58162  1.0000
  H   H26       1.0  0.92442  0.81316  0.41838  1.0000
  H   H27       1.0  0.37847  0.60206  0.55909  1.0000
  H   H28       1.0  0.62152  0.39795  0.44090  1.0000
  H   H29       1.0  0.15187  0.91339  0.88074  1.0000
  H   H30       1.0  0.84813  0.08661  0.11925  1.0000
  H   H31       1.0  0.46559  0.91879  0.15611  1.0000
  H   H32       1.0  0.53441  0.08121  0.84389  1.0000
  H   H33       1.0  0.47404  0.42494  0.64425  1.0000
  H   H34       1.0  0.52596  0.57507  0.35574  1.0000
  H   H35       1.0  0.44389  0.60676  0.05336  1.0000
  H   H36       1.0  0.55611  0.39323  0.94664  1.0000
  H   H37       1.0  0.30408  0.68125  0.09904  1.0000
  H   H38       1.0  0.69593  0.31874  0.90097  1.0000
  H   H39       1.0  0.13209  0.51442  0.01023  1.0000
  H   H40       1.0  0.86791  0.48558  0.98977  1.0000
  H   H41       1.0  0.26561  0.43999  0.95064  1.0000
  H   H42       1.0  0.73439  0.56001  0.04937  1.0000
  H   H43       1.0  0.27678  0.25504  0.05300  1.0000
  H   H44       1.0  0.72322  0.74496  0.94700  1.0000
  H   H45       1.0  0.28888  0.37708  0.40816  1.0000
  H   H46       1.0  0.71111  0.62291  0.59185  1.0000
  H   H47       1.0  0.24897  0.57131  0.26547  1.0000
  H   H48       1.0  0.75103  0.42869  0.73453  1.0000
  C   C1        1.0  0.91974  0.13360  0.44409  1.0000
  C   C2        1.0  0.08026  0.86640  0.55591  1.0000
  C   C3        1.0  0.13973  0.36381  0.72784  1.0000
  C   C4        1.0  0.86027  0.63619  0.27216  1.0000
  C   C5        1.0  0.17229  0.00153  0.06181  1.0000
  C   C6        1.0  0.82771  0.99847  0.93819  1.0000
  C   C7        1.0  0.68166  0.15549  0.48381  1.0000
  C   C8        1.0  0.31834  0.84451  0.51619  1.0000
  C   C9        1.0  0.28099  0.35097  0.71532  1.0000
  C   C10       1.0  0.71901  0.64903  0.28467  1.0000
  C   C11       1.0  0.86787  0.21341  0.63371  1.0000
  C   C12       1.0  0.13213  0.78659  0.36629  1.0000
  C   C13       1.0  0.04440  0.26874  0.78801  1.0000
  C   C14       1.0  0.95561  0.73126  0.21198  1.0000
  C   C15       1.0  0.53152  0.15213  0.44385  1.0000
  C   C16       1.0  0.46848  0.84787  0.55615  1.0000
  C   C17       1.0  0.77862  0.12034  0.40735  1.0000
  C   C18       1.0  0.22137  0.87966  0.59265  1.0000
  C   C19       1.0  0.40449  0.81612  0.92450  1.0000
  C   C20       1.0  0.59551  0.18388  0.07550  1.0000
  C   C21       1.0  0.34395  0.25112  0.77422  1.0000
  C   C22       1.0  0.65606  0.74889  0.22578  1.0000
  C   C23       1.0  0.17175  0.54912  0.61802  1.0000
  C   C24       1.0  0.82824  0.45088  0.38197  1.0000
  C   C25       1.0  0.33114  0.68482  0.91316  1.0000
  C   C26       1.0  0.66887  0.31518  0.08684  1.0000
  C   C27       1.0  0.72692  0.20233  0.59667  1.0000
  C   C28       1.0  0.27308  0.79766  0.40333  1.0000
  C   C29       1.0  0.08714  0.46346  0.67803  1.0000
  C   C30       1.0  0.91286  0.53653  0.32197  1.0000
  C   C31       1.0  0.96477  0.17890  0.55746  1.0000
  C   C32       1.0  0.03523  0.82110  0.44254  1.0000
  C   C33       1.0  0.31144  0.53564  0.60563  1.0000
  C   C34       1.0  0.68855  0.46436  0.39437  1.0000
  C   C35       1.0  0.20502  0.93403  0.96678  1.0000
  C   C36       1.0  0.79499  0.06597  0.03321  1.0000
  C   C37       1.0  0.37111  0.93736  0.10878  1.0000
  C   C38       1.0  0.62889  0.06265  0.89122  1.0000
  C   C39       1.0  0.02653  0.10573  0.36061  1.0000
  C   C40       1.0  0.97347  0.89427  0.63939  1.0000
  C   C41       1.0  0.36518  0.43613  0.65349  1.0000
  C   C42       1.0  0.63482  0.56388  0.34651  1.0000
  C   C43       1.0  0.33605  0.62149  0.02926  1.0000
  C   C44       1.0  0.66396  0.37851  0.97074  1.0000
  C   C45       1.0  0.24196  0.49956  0.02377  1.0000
  C   C46       1.0  0.75804  0.50044  0.97623  1.0000
  C   C47       1.0  0.27585  0.31220  0.13200  1.0000
  C   C48       1.0  0.72415  0.68780  0.86801  1.0000
  C   C49       1.0  0.28069  0.38079  0.31367  1.0000
  C   C50       1.0  0.71931  0.61920  0.68634  1.0000
  C   C51       1.0  0.26137  0.47706  0.24456  1.0000
  C   C52       1.0  0.73863  0.52294  0.75544  1.0000
  N   N1        1.0  0.33103  0.89457  0.99787  1.0000
  N   N2        1.0  0.66897  0.10543  0.00214  1.0000
  N   N3        1.0  0.27655  0.00335  0.14981  1.0000
  N   N4        1.0  0.72344  0.99665  0.85018  1.0000
  N   N5        1.0  0.25879  0.43208  0.12994  1.0000
  N   N6        1.0  0.74121  0.56792  0.87006  1.0000
  N   N7        1.0  0.28986  0.27869  0.24232  1.0000
  N   N8        1.0  0.71014  0.72130  0.75768  1.0000
  O   O1        1.0  0.90113  0.26179  0.74571  1.0000
  O   O2        1.0  0.09887  0.73821  0.25429  1.0000
  O   O3        1.0  0.45177  0.21186  0.50106  1.0000
  O   O4        1.0  0.54823  0.78815  0.49894  1.0000
  O   O5        1.0  0.15132  0.10298  0.40698  1.0000
  O   O6        1.0  0.84867  0.89702  0.59302  1.0000
  O   O7        1.0  0.99418  0.09006  0.25311  1.0000
  O   O8        1.0  0.00582  0.90994  0.74688  1.0000
  O   O9        1.0  0.48807  0.09201  0.34779  1.0000
  O   O10       1.0  0.51193  0.90798  0.65221  1.0000
  O   O11       1.0  0.32145  0.22813  0.87691  1.0000
  O   O12       1.0  0.67856  0.77188  0.12308  1.0000
  O   O13       1.0  0.42831  0.18971  0.71575  1.0000
  O   O14       1.0  0.57169  0.81030  0.28424  1.0000
