data_image0
_chemical_formula_structural       Sr4H8C20O18
_chemical_formula_sum              "Sr4 H8 C20 O18"
_cell_length_a       7.74102
_cell_length_b       8.23232
_cell_length_c       9.54017
_cell_angle_alpha    64.4424
_cell_angle_beta     86.7922
_cell_angle_gamma    82.5545

_space_group_name_H-M_alt    "P 1"
_space_group_IT_number       1

loop_
  _space_group_symop_operation_xyz
  'x, y, z'

loop_
  _atom_site_type_symbol
  _atom_site_label
  _atom_site_symmetry_multiplicity
  _atom_site_fract_x
  _atom_site_fract_y
  _atom_site_fract_z
  _atom_site_occupancy
  Sr  Sr1       1.0  0.75005  0.22101  0.55786  1.0000
  Sr  Sr2       1.0  0.24995  0.77899  0.44214  1.0000
  Sr  Sr3       1.0  0.25001  0.16721  0.66575  1.0000
  Sr  Sr4       1.0  0.74998  0.83279  0.33425  1.0000
  H   H1        1.0  0.33566  0.91534  0.05066  1.0000
  H   H2        1.0  0.16433  0.03411  0.05073  1.0000
  H   H3        1.0  0.66434  0.08466  0.94934  1.0000
  H   H4        1.0  0.83567  0.96589  0.94927  1.0000
  H   H5        1.0  0.08608  0.74817  0.04990  1.0000
  H   H6        1.0  0.41414  0.20191  0.04979  1.0000
  H   H7        1.0  0.91392  0.25183  0.95010  1.0000
  H   H8        1.0  0.58586  0.79809  0.95021  1.0000
  C   C1        1.0  0.05473  0.85068  0.75493  1.0000
  C   C2        1.0  0.44527  0.39458  0.75480  1.0000
  C   C3        1.0  0.94527  0.14933  0.24506  1.0000
  C   C4        1.0  0.55473  0.60541  0.24520  1.0000
  C   C5        1.0  0.02183  0.66689  0.87449  1.0000
  C   C6        1.0  0.47820  0.45869  0.87445  1.0000
  C   C7        1.0  0.97817  0.33311  0.12551  1.0000
  C   C8        1.0  0.52180  0.54131  0.12555  1.0000
  C   C9        1.0  0.04544  0.63984  0.02738  1.0000
  C   C10       1.0  0.45471  0.33273  0.02731  1.0000
  C   C11       1.0  0.95456  0.36016  0.97262  1.0000
  C   C12       1.0  0.54529  0.66726  0.97270  1.0000
  C   C13       1.0  0.97551  0.52447  0.84566  1.0000
  C   C14       1.0  0.52438  0.62994  0.84569  1.0000
  C   C15       1.0  0.02449  0.47553  0.15434  1.0000
  C   C16       1.0  0.47562  0.37006  0.15431  1.0000
  C   C17       1.0  0.94045  0.54093  0.68582  1.0000
  C   C18       1.0  0.55945  0.77340  0.68587  1.0000
  C   C19       1.0  0.05955  0.45907  0.31418  1.0000
  C   C20       1.0  0.44055  0.22659  0.31413  1.0000
  O   O1        1.0  0.96318  0.98734  0.76405  1.0000
  O   O2        1.0  0.53685  0.24890  0.76376  1.0000
  O   O3        1.0  0.03682  0.01267  0.23595  1.0000
  O   O4        1.0  0.46315  0.75110  0.23624  1.0000
  O   O5        1.0  0.25005  0.01070  0.97896  1.0000
  O   O6        1.0  0.74995  0.98930  0.02104  1.0000
  O   O7        1.0  0.18318  0.87033  0.66221  1.0000
  O   O8        1.0  0.31674  0.46768  0.66217  1.0000
  O   O9        1.0  0.81682  0.12967  0.33779  1.0000
  O   O10       1.0  0.68327  0.53232  0.33783  1.0000
  O   O11       1.0  0.94147  0.69835  0.57271  1.0000
  O   O12       1.0  0.55838  0.72920  0.57268  1.0000
  O   O13       1.0  0.05853  0.30166  0.42729  1.0000
  O   O14       1.0  0.44162  0.27080  0.42732  1.0000
  O   O15       1.0  0.91140  0.39930  0.67423  1.0000
  O   O16       1.0  0.58858  0.92654  0.67437  1.0000
  O   O17       1.0  0.08860  0.60071  0.32576  1.0000
  O   O18       1.0  0.41143  0.07346  0.32564  1.0000
