data_image0
_chemical_formula_structural       Zn4P4H20C20N4Cl4O12
_chemical_formula_sum              "Zn4 P4 H20 C20 N4 Cl4 O12"
_cell_length_a       9.58272
_cell_length_b       9.58272
_cell_length_c       10.232
_cell_angle_alpha    82.5596
_cell_angle_beta     82.5592
_cell_angle_gamma    75.0402

_space_group_name_H-M_alt    "P 1"
_space_group_IT_number       1

loop_
  _space_group_symop_operation_xyz
  'x, y, z'

loop_
  _atom_site_type_symbol
  _atom_site_label
  _atom_site_symmetry_multiplicity
  _atom_site_fract_x
  _atom_site_fract_y
  _atom_site_fract_z
  _atom_site_occupancy
  Zn  Zn1       1.0  0.78346  0.06903  0.93268  1.0000
  Zn  Zn2       1.0  0.93097  0.21654  0.56732  1.0000
  Zn  Zn3       1.0  0.21654  0.93097  0.06732  1.0000
  Zn  Zn4       1.0  0.06903  0.78346  0.43268  1.0000
  P   P1        1.0  0.08289  0.16541  0.83249  1.0000
  P   P2        1.0  0.83458  0.91711  0.66751  1.0000
  P   P3        1.0  0.91711  0.83458  0.16751  1.0000
  P   P4        1.0  0.16542  0.08289  0.33249  1.0000
  H   H1        1.0  0.04208  0.67691  0.72018  1.0000
  H   H2        1.0  0.32309  0.95792  0.77982  1.0000
  H   H3        1.0  0.95792  0.32309  0.27982  1.0000
  H   H4        1.0  0.67691  0.04208  0.22019  1.0000
  H   H5        1.0  0.00455  0.45680  0.68911  1.0000
  H   H6        1.0  0.54320  0.99545  0.81089  1.0000
  H   H7        1.0  0.99545  0.54320  0.31089  1.0000
  H   H8        1.0  0.45680  0.00455  0.18912  1.0000
  H   H9        1.0  0.25052  0.25734  0.02055  1.0000
  H   H10       1.0  0.74266  0.74948  0.47944  1.0000
  H   H11       1.0  0.74948  0.74266  0.97945  1.0000
  H   H12       1.0  0.25734  0.25052  0.52056  1.0000
  H   H13       1.0  0.29069  0.50287  0.04241  1.0000
  H   H14       1.0  0.49713  0.70931  0.45759  1.0000
  H   H15       1.0  0.70932  0.49713  0.95759  1.0000
  H   H16       1.0  0.50287  0.29068  0.54242  1.0000
  H   H17       1.0  0.17542  0.71524  0.88763  1.0000
  H   H18       1.0  0.28476  0.82458  0.61237  1.0000
  H   H19       1.0  0.82458  0.28476  0.11237  1.0000
  H   H20       1.0  0.71524  0.17542  0.38764  1.0000
  C   C1        1.0  0.06958  0.45752  0.76900  1.0000
  C   C2        1.0  0.54248  0.93042  0.73100  1.0000
  C   C3        1.0  0.93042  0.54248  0.23100  1.0000
  C   C4        1.0  0.45752  0.06958  0.26900  1.0000
  C   C5        1.0  0.12574  0.33523  0.85303  1.0000
  C   C6        1.0  0.66478  0.87426  0.64697  1.0000
  C   C7        1.0  0.87426  0.66477  0.14697  1.0000
  C   C8        1.0  0.33522  0.12574  0.35303  1.0000
  C   C9        1.0  0.20642  0.35123  0.95287  1.0000
  C   C10       1.0  0.64878  0.79357  0.54713  1.0000
  C   C11       1.0  0.79358  0.64878  0.04713  1.0000
  C   C12       1.0  0.35122  0.20642  0.45287  1.0000
  C   C13       1.0  0.22830  0.48713  0.96623  1.0000
  C   C14       1.0  0.51287  0.77170  0.53376  1.0000
  C   C15       1.0  0.77170  0.51287  0.03376  1.0000
  C   C16       1.0  0.48713  0.22830  0.46624  1.0000
  C   C17       1.0  0.16793  0.60527  0.88057  1.0000
  C   C18       1.0  0.39473  0.83207  0.61943  1.0000
  C   C19       1.0  0.83206  0.39473  0.11943  1.0000
  C   C20       1.0  0.60527  0.16793  0.38057  1.0000
  N   N1        1.0  0.09119  0.58701  0.78549  1.0000
  N   N2        1.0  0.41299  0.90880  0.71451  1.0000
  N   N3        1.0  0.90881  0.41299  0.21451  1.0000
  N   N4        1.0  0.58701  0.09119  0.28549  1.0000
  Cl  Cl1       1.0  0.56287  0.21453  0.93528  1.0000
  Cl  Cl2       1.0  0.78546  0.43713  0.56473  1.0000
  Cl  Cl3       1.0  0.43713  0.78547  0.06473  1.0000
  Cl  Cl4       1.0  0.21454  0.56287  0.43527  1.0000
  O   O1        1.0  0.93516  0.17541  0.91168  1.0000
  O   O2        1.0  0.82459  0.06484  0.58832  1.0000
  O   O3        1.0  0.06484  0.82459  0.08832  1.0000
  O   O4        1.0  0.17541  0.93516  0.41168  1.0000
  O   O5        1.0  0.08753  0.15957  0.68317  1.0000
  O   O6        1.0  0.84043  0.91247  0.81683  1.0000
  O   O7        1.0  0.91247  0.84043  0.31683  1.0000
  O   O8        1.0  0.15957  0.08753  0.18317  1.0000
  O   O9        1.0  0.20520  0.04029  0.88679  1.0000
  O   O10       1.0  0.95971  0.79480  0.61321  1.0000
  O   O11       1.0  0.79480  0.95971  0.11321  1.0000
  O   O12       1.0  0.04029  0.20520  0.38679  1.0000
