data_image0
_chemical_formula_structural       Co2H32C24N4O18
_chemical_formula_sum              "Co2 H32 C24 N4 O18"
_cell_length_a       6.36036
_cell_length_b       7.62681
_cell_length_c       16.3807
_cell_angle_alpha    105.525
_cell_angle_beta     90.7146
_cell_angle_gamma    88.7911

_space_group_name_H-M_alt    "P 1"
_space_group_IT_number       1

loop_
  _space_group_symop_operation_xyz
  'x, y, z'

loop_
  _atom_site_type_symbol
  _atom_site_label
  _atom_site_symmetry_multiplicity
  _atom_site_fract_x
  _atom_site_fract_y
  _atom_site_fract_z
  _atom_site_occupancy
  Co  Co1       1.0  0.99999  0.50000  0.00000  1.0000
  Co  Co2       1.0  0.99999  0.00001  0.00000  1.0000
  H   H1        1.0  0.45997  0.20458  0.78649  1.0000
  H   H2        1.0  0.45172  0.28804  0.20944  1.0000
  H   H3        1.0  0.54003  0.79543  0.21351  1.0000
  H   H4        1.0  0.54828  0.71197  0.79056  1.0000
  H   H5        1.0  0.20489  0.21145  0.74079  1.0000
  H   H6        1.0  0.19708  0.29193  0.25497  1.0000
  H   H7        1.0  0.79510  0.78854  0.25921  1.0000
  H   H8        1.0  0.80292  0.70806  0.74503  1.0000
  H   H9        1.0  0.58527  0.32847  0.68508  1.0000
  H   H10       1.0  0.58110  0.16091  0.31133  1.0000
  H   H11       1.0  0.41472  0.67154  0.31492  1.0000
  H   H12       1.0  0.41893  0.83910  0.68866  1.0000
  H   H13       1.0  0.74752  0.43336  0.60763  1.0000
  H   H14       1.0  0.74327  0.07842  0.39737  1.0000
  H   H15       1.0  0.25247  0.56664  0.39237  1.0000
  H   H16       1.0  0.25676  0.92158  0.60263  1.0000
  H   H17       1.0  0.11831  0.51712  0.52436  1.0000
  H   H18       1.0  0.11902  0.97902  0.47124  1.0000
  H   H19       1.0  0.88167  0.48288  0.47563  1.0000
  H   H20       1.0  0.88102  0.02098  0.52876  1.0000
  H   H21       1.0  0.22004  0.79631  0.05367  1.0000
  H   H22       1.0  0.21934  0.71098  0.94493  1.0000
  H   H23       1.0  0.77995  0.20369  0.94634  1.0000
  H   H24       1.0  0.78065  0.28902  0.05507  1.0000
  H   H25       1.0  0.21193  0.34223  0.09741  1.0000
  H   H26       1.0  0.22393  0.14439  0.89738  1.0000
  H   H27       1.0  0.78806  0.65777  0.90259  1.0000
  H   H28       1.0  0.77606  0.85561  0.10262  1.0000
  H   H29       1.0  0.20871  0.55748  0.14120  1.0000
  H   H30       1.0  0.20065  0.93305  0.85440  1.0000
  H   H31       1.0  0.79129  0.44252  0.85881  1.0000
  H   H32       1.0  0.79933  0.06695  0.14559  1.0000
  C   C1        1.0  0.34326  0.29348  0.76648  1.0000
  C   C2        1.0  0.33517  0.20483  0.23035  1.0000
  C   C3        1.0  0.65673  0.70651  0.23352  1.0000
  C   C4        1.0  0.66484  0.79517  0.76964  1.0000
  C   C5        1.0  0.41676  0.46827  0.57396  1.0000
  C   C6        1.0  0.41474  0.03570  0.42602  1.0000
  C   C7        1.0  0.58322  0.53173  0.42604  1.0000
  C   C8        1.0  0.58529  0.96430  0.57398  1.0000
  C   C9        1.0  0.63490  0.46074  0.56153  1.0000
  C   C10       1.0  0.63242  0.04522  0.44112  1.0000
  C   C11       1.0  0.36508  0.53926  0.43847  1.0000
  C   C12       1.0  0.36761  0.95479  0.55888  1.0000
  C   C13       1.0  0.30982  0.42982  0.64830  1.0000
  C   C14       1.0  0.30531  0.07669  0.35116  1.0000
  C   C15       1.0  0.69014  0.57015  0.35169  1.0000
  C   C16       1.0  0.69475  0.92332  0.64884  1.0000
  C   C17       1.0  0.27142  0.43538  0.84607  1.0000
  C   C18       1.0  0.26200  0.06009  0.15220  1.0000
  C   C19       1.0  0.72857  0.56463  0.15393  1.0000
  C   C20       1.0  0.73799  0.93991  0.84780  1.0000
  C   C21       1.0  0.28568  0.50866  0.51200  1.0000
  C   C22       1.0  0.28611  0.98921  0.48542  1.0000
  C   C23       1.0  0.71430  0.49133  0.48800  1.0000
  C   C24       1.0  0.71393  0.01079  0.51457  1.0000
  N   N1        1.0  0.43425  0.36375  0.70181  1.0000
  N   N2        1.0  0.42745  0.13604  0.29673  1.0000
  N   N3        1.0  0.56574  0.63625  0.29819  1.0000
  N   N4        1.0  0.57257  0.86397  0.70327  1.0000
  O   O1        1.0  0.22622  0.46597  0.08732  1.0000
  O   O2        1.0  0.24180  0.02061  0.90690  1.0000
  O   O3        1.0  0.77377  0.53403  0.91268  1.0000
  O   O4        1.0  0.75819  0.97938  0.09310  1.0000
  O   O5        1.0  0.18290  0.36445  0.89987  1.0000
  O   O6        1.0  0.16782  0.12918  0.09702  1.0000
  O   O7        1.0  0.81710  0.63556  0.10013  1.0000
  O   O8        1.0  0.83217  0.87082  0.90298  1.0000
  O   O9        1.0  0.29815  0.60267  0.85607  1.0000
  O   O10       1.0  0.29057  0.89302  0.14432  1.0000
  O   O11       1.0  0.70184  0.39733  0.14394  1.0000
  O   O12       1.0  0.70943  0.10698  0.85568  1.0000
  O   O13       1.0  0.11713  0.45344  0.65980  1.0000
  O   O14       1.0  0.11217  0.05945  0.33985  1.0000
  O   O15       1.0  0.88285  0.54652  0.34019  1.0000
  O   O16       1.0  0.88784  0.94056  0.66016  1.0000
  O   O17       1.0  0.13064  0.75820  0.99906  1.0000
  O   O18       1.0  0.86936  0.24180  0.00094  1.0000
