data_image0
_chemical_formula_structural       Ni2H16C24Br4N8
_chemical_formula_sum              "Ni2 H16 C24 Br4 N8"
_cell_length_a       3.71432
_cell_length_b       7.07605
_cell_length_c       26.5524
_cell_angle_alpha    90.0007
_cell_angle_beta     90.0001
_cell_angle_gamma    89.9997

_space_group_name_H-M_alt    "P 1"
_space_group_IT_number       1

loop_
  _space_group_symop_operation_xyz
  'x, y, z'

loop_
  _atom_site_type_symbol
  _atom_site_label
  _atom_site_symmetry_multiplicity
  _atom_site_fract_x
  _atom_site_fract_y
  _atom_site_fract_z
  _atom_site_occupancy
  Ni  Ni1       1.0  0.00000  0.00000  1.00000  1.0000
  Ni  Ni2       1.0  0.49999  0.50000  0.50000  1.0000
  H   H1        1.0  1.00000  0.90040  0.89019  1.0000
  H   H2        1.0  1.00000  0.09960  0.10981  1.0000
  H   H3        1.0  0.50000  0.40041  0.60981  1.0000
  H   H4        1.0  0.49999  0.59959  0.39019  1.0000
  H   H5        1.0  0.00000  0.40672  0.96802  1.0000
  H   H6        1.0  0.00000  0.59329  0.03197  1.0000
  H   H7        1.0  0.49999  0.90672  0.53198  1.0000
  H   H8        1.0  0.50001  0.09328  0.46803  1.0000
  H   H9        1.0  1.00000  0.06538  0.80669  1.0000
  H   H10       1.0  1.00000  0.93461  0.19331  1.0000
  H   H11       1.0  0.50000  0.56540  0.69331  1.0000
  H   H12       1.0  0.49999  0.43460  0.30669  1.0000
  H   H13       1.0  0.00001  0.59356  0.88925  1.0000
  H   H14       1.0  0.00001  0.40645  0.11074  1.0000
  H   H15       1.0  0.49999  0.09356  0.61075  1.0000
  H   H16       1.0  0.50002  0.90644  0.38926  1.0000
  C   C1        1.0  0.00000  0.05375  0.88795  1.0000
  C   C2        1.0  1.00000  0.94625  0.11205  1.0000
  C   C3        1.0  0.50000  0.55376  0.61205  1.0000
  C   C4        1.0  0.49999  0.44624  0.38795  1.0000
  C   C5        1.0  0.00000  0.33601  0.93172  1.0000
  C   C6        1.0  1.00000  0.66400  0.06828  1.0000
  C   C7        1.0  0.50000  0.83601  0.56828  1.0000
  C   C8        1.0  0.50000  0.16399  0.43172  1.0000
  C   C9        1.0  0.00000  0.14513  0.84168  1.0000
  C   C10       1.0  0.00000  0.85486  0.15831  1.0000
  C   C11       1.0  0.50000  0.64514  0.65832  1.0000
  C   C12       1.0  0.49999  0.35485  0.34169  1.0000
  C   C13       1.0  0.00001  0.44005  0.88740  1.0000
  C   C14       1.0  0.00000  0.55995  0.11260  1.0000
  C   C15       1.0  0.50000  0.94006  0.61260  1.0000
  C   C16       1.0  0.50001  0.05994  0.38740  1.0000
  C   C17       1.0  0.00001  0.34344  0.84132  1.0000
  C   C18       1.0  0.00000  0.65656  0.15868  1.0000
  C   C19       1.0  0.50000  0.84345  0.65868  1.0000
  C   C20       1.0  0.50000  0.15655  0.34132  1.0000
  C   C21       1.0  0.00000  0.44786  0.79535  1.0000
  C   C22       1.0  0.00000  0.55213  0.20465  1.0000
  C   C23       1.0  0.50000  0.94789  0.70466  1.0000
  C   C24       1.0  0.50000  0.05212  0.29535  1.0000
  Br  Br1       1.0  0.50000  0.21718  0.03336  1.0000
  Br  Br2       1.0  0.50000  0.78283  0.96663  1.0000
  Br  Br3       1.0  0.99999  0.71718  0.46664  1.0000
  Br  Br4       1.0  1.00000  0.28282  0.53337  1.0000
  N   N1        1.0  0.00000  0.14580  0.93241  1.0000
  N   N2        1.0  1.00000  0.85421  0.06758  1.0000
  N   N3        1.0  0.50000  0.64580  0.56759  1.0000
  N   N4        1.0  0.49999  0.35420  0.43242  1.0000
  N   N5        1.0  0.00000  0.53924  0.75875  1.0000
  N   N6        1.0  1.00000  0.46075  0.24124  1.0000
  N   N7        1.0  0.50000  0.03927  0.74125  1.0000
  N   N8        1.0  0.49999  0.96073  0.25875  1.0000
