data_image0
_chemical_formula_structural       Cu2H8C12N4Cl4
_chemical_formula_sum              "Cu2 H8 C12 N4 Cl4"
_cell_length_a       3.79429
_cell_length_b       7.80351
_cell_length_c       13.7943
_cell_angle_alpha    97.2962
_cell_angle_beta     95.5022
_cell_angle_gamma    96.9555

_space_group_name_H-M_alt    "P 1"
_space_group_IT_number       1

loop_
  _space_group_symop_operation_xyz
  'x, y, z'

loop_
  _atom_site_type_symbol
  _atom_site_label
  _atom_site_symmetry_multiplicity
  _atom_site_fract_x
  _atom_site_fract_y
  _atom_site_fract_z
  _atom_site_occupancy
  Cu  Cu1       1.0  0.69334  0.99192  0.11579  1.0000
  Cu  Cu2       1.0  0.30667  0.00808  0.88421  1.0000
  H   H1        1.0  0.62107  0.97875  0.32577  1.0000
  H   H2        1.0  0.37892  0.02126  0.67423  1.0000
  H   H3        1.0  0.78361  0.62267  0.08944  1.0000
  H   H4        1.0  0.21639  0.37732  0.91056  1.0000
  H   H5        1.0  0.63287  0.75386  0.44072  1.0000
  H   H6        1.0  0.36711  0.24614  0.55928  1.0000
  H   H7        1.0  0.82440  0.38580  0.19484  1.0000
  H   H8        1.0  0.17561  0.61420  0.80516  1.0000
  C   C1        1.0  0.66066  0.84522  0.30017  1.0000
  C   C2        1.0  0.33933  0.15478  0.69983  1.0000
  C   C3        1.0  0.75407  0.64577  0.16758  1.0000
  C   C4        1.0  0.24592  0.35423  0.83243  1.0000
  C   C5        1.0  0.67081  0.72069  0.36368  1.0000
  C   C6        1.0  0.32918  0.27931  0.63632  1.0000
  C   C7        1.0  0.77407  0.51447  0.22604  1.0000
  C   C8        1.0  0.22593  0.48553  0.77396  1.0000
  C   C9        1.0  0.72784  0.55194  0.32578  1.0000
  C   C10       1.0  0.27216  0.44806  0.67422  1.0000
  C   C11       1.0  0.73651  0.41761  0.38702  1.0000
  C   C12       1.0  0.26349  0.58240  0.61299  1.0000
  N   N1        1.0  0.69733  0.80725  0.20388  1.0000
  N   N2        1.0  0.30267  0.19275  0.79612  1.0000
  N   N3        1.0  0.74294  0.30649  0.43605  1.0000
  N   N4        1.0  0.25707  0.69351  0.56395  1.0000
  Cl  Cl1       1.0  0.28452  0.81288  0.99738  1.0000
  Cl  Cl2       1.0  0.71549  0.18712  0.00262  1.0000
  Cl  Cl3       1.0  0.19585  0.14025  0.20603  1.0000
  Cl  Cl4       1.0  0.80416  0.85975  0.79396  1.0000
