data_image0
_chemical_formula_structural       Cd2H34C44N2O16
_chemical_formula_sum              "Cd2 H34 C44 N2 O16"
_cell_length_a       8.20388
_cell_length_b       10.0764
_cell_length_c       14.2936
_cell_angle_alpha    97.3921
_cell_angle_beta     101.398
_cell_angle_gamma    112.75

_space_group_name_H-M_alt    "P 1"
_space_group_IT_number       1

loop_
  _space_group_symop_operation_xyz
  'x, y, z'

loop_
  _atom_site_type_symbol
  _atom_site_label
  _atom_site_symmetry_multiplicity
  _atom_site_fract_x
  _atom_site_fract_y
  _atom_site_fract_z
  _atom_site_occupancy
  Cd  Cd1       1.0  0.19664  0.92334  0.54705  1.0000
  Cd  Cd2       1.0  0.80336  0.07667  0.45295  1.0000
  H   H1        1.0  0.50382  0.09721  0.72456  1.0000
  H   H2        1.0  0.49618  0.90279  0.27544  1.0000
  H   H3        1.0  0.59401  0.09915  0.63780  1.0000
  H   H4        1.0  0.40599  0.90085  0.36221  1.0000
  H   H5        1.0  0.11113  0.70841  0.29898  1.0000
  H   H6        1.0  0.88887  0.29159  0.70102  1.0000
  H   H7        1.0  0.18672  0.44197  0.53408  1.0000
  H   H8        1.0  0.81328  0.55803  0.46592  1.0000
  H   H9        1.0  0.00681  0.13935  0.84909  1.0000
  H   H10       1.0  0.99318  0.86064  0.15091  1.0000
  H   H11       1.0  0.38446  0.21956  0.33740  1.0000
  H   H12       1.0  0.61555  0.78044  0.66261  1.0000
  H   H13       1.0  0.37788  0.63751  0.30283  1.0000
  H   H14       1.0  0.62212  0.36249  0.69716  1.0000
  H   H15       1.0  0.14807  0.73835  0.70731  1.0000
  H   H16       1.0  0.85194  0.26166  0.29270  1.0000
  H   H17       1.0  0.36463  0.21294  0.16207  1.0000
  H   H18       1.0  0.63538  0.78706  0.83794  1.0000
  H   H19       1.0  0.58647  0.29644  0.24957  1.0000
  H   H20       1.0  0.41353  0.70356  0.75043  1.0000
  H   H21       1.0  0.09007  0.74317  0.87228  1.0000
  H   H22       1.0  0.90993  0.25683  0.12772  1.0000
  H   H23       1.0  0.01504  0.85307  0.00505  1.0000
  H   H24       1.0  0.98496  0.14693  0.99495  1.0000
  H   H25       1.0  0.07692  0.12099  0.68894  1.0000
  H   H26       1.0  0.92307  0.87900  0.31107  1.0000
  H   H27       1.0  0.95957  0.59593  0.05713  1.0000
  H   H28       1.0  0.04043  0.40407  0.94287  1.0000
  H   H29       1.0  0.33297  0.20482  0.99971  1.0000
  H   H30       1.0  0.66703  0.79518  0.00029  1.0000
  H   H31       1.0  0.76322  0.47591  0.88611  1.0000
  H   H32       1.0  0.23677  0.52409  0.11389  1.0000
  H   H33       1.0  0.44684  0.27937  0.85785  1.0000
  H   H34       1.0  0.55315  0.72062  0.14215  1.0000
  C   C1        1.0  0.27853  0.55338  0.42197  1.0000
  C   C2        1.0  0.72148  0.44662  0.57803  1.0000
  C   C3        1.0  0.24189  0.43764  0.47101  1.0000
  C   C4        1.0  0.75811  0.56236  0.52899  1.0000
  C   C5        1.0  0.38642  0.42786  0.30898  1.0000
  C   C6        1.0  0.61359  0.57214  0.69102  1.0000
  C   C7        1.0  0.24657  0.68393  0.45824  1.0000
  C   C8        1.0  0.75343  0.31607  0.54176  1.0000
  C   C9        1.0  0.03995  0.04909  0.82292  1.0000
  C   C10       1.0  0.96004  0.95090  0.17708  1.0000
  C   C11       1.0  0.35338  0.31307  0.35827  1.0000
  C   C12       1.0  0.64663  0.68694  0.64173  1.0000
  C   C13       1.0  0.27910  0.31854  0.43858  1.0000
  C   C14       1.0  0.72091  0.68147  0.56142  1.0000
  C   C15       1.0  0.23757  0.19260  0.48863  1.0000
  C   C16       1.0  0.76243  0.80740  0.51137  1.0000
  C   C17       1.0  0.34845  0.54757  0.34091  1.0000
  C   C18       1.0  0.65155  0.45243  0.65909  1.0000
  C   C19       1.0  0.04560  0.94291  0.87706  1.0000
  C   C20       1.0  0.95440  0.05709  0.12295  1.0000
  C   C21       1.0  0.12011  0.82674  0.74289  1.0000
  C   C22       1.0  0.87988  0.17326  0.25711  1.0000
  C   C23       1.0  0.49401  0.31393  0.19073  1.0000
  C   C24       1.0  0.50600  0.68608  0.80927  1.0000
  C   C25       1.0  0.75762  0.46928  0.12438  1.0000
  C   C26       1.0  0.24238  0.53072  0.87561  1.0000
  C   C27       1.0  0.08534  0.82930  0.83425  1.0000
  C   C28       1.0  0.91466  0.17070  0.16575  1.0000
  C   C29       1.0  0.88389  0.54319  0.22508  1.0000
  C   C30       1.0  0.11611  0.45681  0.77492  1.0000
  C   C31       1.0  0.01384  0.94632  0.97383  1.0000
  C   C32       1.0  0.98616  0.05367  0.02617  1.0000
  C   C33       1.0  0.07800  0.04004  0.73264  1.0000
  C   C34       1.0  0.92200  0.95996  0.26736  1.0000
  C   C35       1.0  0.57904  0.35693  0.10860  1.0000
  C   C36       1.0  0.42096  0.64307  0.89140  1.0000
  C   C37       1.0  0.82142  0.50979  0.04356  1.0000
  C   C38       1.0  0.17858  0.49021  0.95644  1.0000
  C   C39       1.0  0.47178  0.28956  0.01204  1.0000
  C   C40       1.0  0.52822  0.71044  0.98796  1.0000
  C   C41       1.0  0.71258  0.44138  0.94793  1.0000
  C   C42       1.0  0.28742  0.55861  0.05207  1.0000
  C   C43       1.0  0.53637  0.33066  0.93213  1.0000
  C   C44       1.0  0.46363  0.66933  0.06787  1.0000
  N   N1        1.0  0.11877  0.93157  0.69354  1.0000
  N   N2        1.0  0.88123  0.06843  0.30646  1.0000
  O   O1        1.0  0.12024  0.16931  0.53884  1.0000
  O   O2        1.0  0.87976  0.83069  0.46116  1.0000
  O   O3        1.0  0.22646  0.70526  0.54338  1.0000
  O   O4        1.0  0.77354  0.29474  0.45662  1.0000
  O   O5        1.0  0.24025  0.77470  0.40213  1.0000
  O   O6        1.0  0.75975  0.22530  0.59787  1.0000
  O   O7        1.0  0.45500  0.43501  0.22896  1.0000
  O   O8        1.0  0.54501  0.56499  0.77105  1.0000
  O   O9        1.0  0.32089  0.11014  0.47734  1.0000
  O   O10       1.0  0.67911  0.88986  0.52267  1.0000
  O   O11       1.0  0.50491  0.03268  0.66817  1.0000
  O   O12       1.0  0.49509  0.96732  0.33183  1.0000
  O   O13       1.0  0.02685  0.66917  0.22791  1.0000
  O   O14       1.0  0.97315  0.33083  0.77208  1.0000
  O   O15       1.0  0.86374  0.49283  0.29803  1.0000
  O   O16       1.0  0.13627  0.50717  0.70196  1.0000
