data_image0
_chemical_formula_structural       Cd2H32C42N4O16
_chemical_formula_sum              "Cd2 H32 C42 N4 O16"
_cell_length_a       8.37197
_cell_length_b       10.1127
_cell_length_c       13.9787
_cell_angle_alpha    99.6765
_cell_angle_beta     101.417
_cell_angle_gamma    112.713

_space_group_name_H-M_alt    "P 1"
_space_group_IT_number       1

loop_
  _space_group_symop_operation_xyz
  'x, y, z'

loop_
  _atom_site_type_symbol
  _atom_site_label
  _atom_site_symmetry_multiplicity
  _atom_site_fract_x
  _atom_site_fract_y
  _atom_site_fract_z
  _atom_site_occupancy
  Cd  Cd1       1.0  0.35609  0.10904  0.54635  1.0000
  Cd  Cd2       1.0  0.64391  0.89096  0.45365  1.0000
  H   H1        1.0  0.65398  0.43694  0.99006  1.0000
  H   H2        1.0  0.34603  0.56306  0.00994  1.0000
  H   H3        1.0  0.38781  0.26960  0.84166  1.0000
  H   H4        1.0  0.61220  0.73041  0.15834  1.0000
  H   H5        1.0  0.10942  0.08977  0.86955  1.0000
  H   H6        1.0  0.89058  0.91023  0.13044  1.0000
  H   H7        1.0  0.10079  0.08571  0.04668  1.0000
  H   H8        1.0  0.89920  0.91429  0.95332  1.0000
  H   H9        1.0  0.19914  0.13746  0.29249  1.0000
  H   H10       1.0  0.80087  0.86254  0.70751  1.0000
  H   H11       1.0  0.23811  0.02835  0.71746  1.0000
  H   H12       1.0  0.76189  0.97165  0.28254  1.0000
  H   H13       1.0  0.05551  0.99300  0.64036  1.0000
  H   H14       1.0  0.94449  0.00700  0.35964  1.0000
  H   H15       1.0  0.57531  0.42647  0.69707  1.0000
  H   H16       1.0  0.42469  0.57354  0.30293  1.0000
  H   H17       1.0  0.82100  0.56872  0.86158  1.0000
  H   H18       1.0  0.17900  0.43128  0.13842  1.0000
  H   H19       1.0  0.87071  0.16183  0.87339  1.0000
  H   H20       1.0  0.12930  0.83818  0.12661  1.0000
  H   H21       1.0  0.62331  0.03521  0.70801  1.0000
  H   H22       1.0  0.37669  0.96479  0.29199  1.0000
  H   H23       1.0  0.34973  0.58052  0.53889  1.0000
  H   H24       1.0  0.65027  0.41949  0.46111  1.0000
  H   H25       1.0  0.93724  0.21726  0.29054  1.0000
  H   H26       1.0  0.06276  0.78274  0.70947  1.0000
  H   H27       1.0  0.95366  0.65569  0.33633  1.0000
  H   H28       1.0  0.04634  0.34431  0.66367  1.0000
  H   H29       1.0  0.79163  0.54031  0.15725  1.0000
  H   H30       1.0  0.20837  0.45969  0.84275  1.0000
  H   H31       1.0  0.66787  0.51157  0.24927  1.0000
  H   H32       1.0  0.33213  0.48843  0.75073  1.0000
  C   C1        1.0  0.52971  0.35455  0.10068  1.0000
  C   C2        1.0  0.47029  0.64545  0.89932  1.0000
  C   C3        1.0  0.53240  0.35696  0.00139  1.0000
  C   C4        1.0  0.46760  0.64304  0.99861  1.0000
  C   C5        1.0  0.38346  0.26331  0.91823  1.0000
  C   C6        1.0  0.61655  0.73669  0.08177  1.0000
  C   C7        1.0  0.22718  0.16349  0.93371  1.0000
  C   C8        1.0  0.77282  0.83652  0.06628  1.0000
  C   C9        1.0  0.22222  0.15990  0.03233  1.0000
  C   C10       1.0  0.77777  0.84009  0.96767  1.0000
  C   C11       1.0  0.37096  0.25380  0.11635  1.0000
  C   C12       1.0  0.62904  0.74620  0.88364  1.0000
  C   C13       1.0  0.64291  0.37188  0.73918  1.0000
  C   C14       1.0  0.35709  0.62811  0.26082  1.0000
  C   C15       1.0  0.77829  0.45047  0.83008  1.0000
  C   C16       1.0  0.22171  0.54953  0.16993  1.0000
  C   C17       1.0  0.86028  0.37416  0.88067  1.0000
  C   C18       1.0  0.13972  0.62584  0.11933  1.0000
  C   C19       1.0  0.80762  0.22328  0.83659  1.0000
  C   C20       1.0  0.19239  0.77671  0.16342  1.0000
  C   C21       1.0  0.67018  0.15276  0.74537  1.0000
  C   C22       1.0  0.32982  0.84724  0.25463  1.0000
  C   C23       1.0  0.25326  0.79683  0.48998  1.0000
  C   C24       1.0  0.74674  0.20317  0.51002  1.0000
  C   C25       1.0  0.16131  0.63291  0.44039  1.0000
  C   C26       1.0  0.83869  0.36708  0.55961  1.0000
  C   C27       1.0  0.23191  0.53838  0.47304  1.0000
  C   C28       1.0  0.76809  0.46163  0.52696  1.0000
  C   C29       1.0  0.14826  0.38702  0.41976  1.0000
  C   C30       1.0  0.85174  0.61298  0.58024  1.0000
  C   C31       1.0  0.00001  0.33358  0.33397  1.0000
  C   C32       1.0  1.00000  0.66642  0.66603  1.0000
  C   C33       1.0  0.92714  0.42835  0.30310  1.0000
  C   C34       1.0  0.07286  0.57165  0.69690  1.0000
  C   C35       1.0  0.00614  0.57821  0.35722  1.0000
  C   C36       1.0  0.99386  0.42179  0.64277  1.0000
  C   C37       1.0  0.21513  0.28257  0.45637  1.0000
  C   C38       1.0  0.78487  0.71743  0.54364  1.0000
  C   C39       1.0  0.69820  0.45614  0.18551  1.0000
  C   C40       1.0  0.30180  0.54386  0.81449  1.0000
  C   C41       1.0  0.35129  0.24997  0.21998  1.0000
  C   C42       1.0  0.64871  0.75003  0.78002  1.0000
  N   N1        1.0  0.58891  0.22539  0.69810  1.0000
  N   N2        1.0  0.41109  0.77461  0.30191  1.0000
  N   N3        1.0  0.99933  0.44216  0.97396  1.0000
  N   N4        1.0  0.00068  0.55784  0.02604  1.0000
  O   O1        1.0  0.16048  0.87014  0.47440  1.0000
  O   O2        1.0  0.83952  0.12986  0.52561  1.0000
  O   O3        1.0  0.41984  0.85947  0.54267  1.0000
  O   O4        1.0  0.58016  0.14053  0.45733  1.0000
  O   O5        1.0  0.32202  0.32394  0.54459  1.0000
  O   O6        1.0  0.67798  0.67606  0.45541  1.0000
  O   O7        1.0  0.16122  0.14978  0.39806  1.0000
  O   O8        1.0  0.83878  0.85022  0.60194  1.0000
  O   O9        1.0  0.78071  0.36355  0.21898  1.0000
  O   O10       1.0  0.21929  0.63645  0.78102  1.0000
  O   O11       1.0  0.44481  0.35259  0.29696  1.0000
  O   O12       1.0  0.55518  0.64740  0.70303  1.0000
  O   O13       1.0  0.21465  0.12426  0.22088  1.0000
  O   O14       1.0  0.78535  0.87573  0.77912  1.0000
  O   O15       1.0  0.18141  0.07222  0.67301  1.0000
  O   O16       1.0  0.81859  0.92778  0.32699  1.0000
