data_image0
_chemical_formula_structural       Cd3H46C58N4O14
_chemical_formula_sum              "Cd3 H46 C58 N4 O14"
_cell_length_a       9.98969
_cell_length_b       11.9249
_cell_length_c       13.124
_cell_angle_alpha    68.6946
_cell_angle_beta     74.5503
_cell_angle_gamma    70.0949

_space_group_name_H-M_alt    "P 1"
_space_group_IT_number       1

loop_
  _space_group_symop_operation_xyz
  'x, y, z'

loop_
  _atom_site_type_symbol
  _atom_site_label
  _atom_site_symmetry_multiplicity
  _atom_site_fract_x
  _atom_site_fract_y
  _atom_site_fract_z
  _atom_site_occupancy
  Cd  Cd1       1.0  0.14649  0.72305  0.93124  1.0000
  Cd  Cd2       1.0  0.85351  0.27695  0.06876  1.0000
  Cd  Cd3       1.0  1.00000  1.00000  0.00000  1.0000
  H   H1        1.0  0.65014  0.74519  0.93920  1.0000
  H   H2        1.0  0.34986  0.25481  0.06079  1.0000
  H   H3        1.0  0.68869  0.90541  0.17176  1.0000
  H   H4        1.0  0.31131  0.09458  0.82824  1.0000
  H   H5        1.0  0.26852  0.90419  0.14043  1.0000
  H   H6        1.0  0.73148  0.09581  0.85956  1.0000
  H   H7        1.0  0.22037  0.06709  0.19488  1.0000
  H   H8        1.0  0.77963  0.93292  0.80512  1.0000
  H   H9        1.0  0.25992  0.10262  0.30122  1.0000
  H   H10       1.0  0.74008  0.89738  0.69878  1.0000
  H   H11       1.0  0.35612  0.85647  0.46038  1.0000
  H   H12       1.0  0.64389  0.14352  0.53962  1.0000
  H   H13       1.0  0.22144  0.72053  0.61483  1.0000
  H   H14       1.0  0.77856  0.27946  0.38517  1.0000
  H   H15       1.0  0.97435  0.72671  0.60283  1.0000
  H   H16       1.0  0.02565  0.27329  0.39717  1.0000
  H   H17       1.0  0.86474  0.86750  0.43444  1.0000
  H   H18       1.0  0.13526  0.13250  0.56556  1.0000
  H   H19       1.0  0.44308  0.54745  0.83581  1.0000
  H   H20       1.0  0.55692  0.45255  0.16419  1.0000
  H   H21       1.0  0.01272  0.57709  0.85497  1.0000
  H   H22       1.0  0.98728  0.42291  0.14504  1.0000
  H   H23       1.0  0.07316  0.44376  0.73083  1.0000
  H   H24       1.0  0.92684  0.55624  0.26917  1.0000
  H   H25       1.0  0.52251  0.41173  0.71100  1.0000
  H   H26       1.0  0.47749  0.58828  0.28900  1.0000
  H   H27       1.0  0.28768  0.27233  0.65900  1.0000
  H   H28       1.0  0.71232  0.72767  0.34100  1.0000
  H   H29       1.0  0.45823  0.30388  0.61249  1.0000
  H   H30       1.0  0.54177  0.69612  0.38751  1.0000
  H   H31       1.0  0.17596  0.48185  0.53139  1.0000
  H   H32       1.0  0.82404  0.51815  0.46860  1.0000
  H   H33       1.0  0.34683  0.50983  0.48066  1.0000
  H   H34       1.0  0.65317  0.49017  0.51934  1.0000
  H   H35       1.0  0.43487  0.31861  0.41415  1.0000
  H   H36       1.0  0.56513  0.68139  0.58585  1.0000
  H   H37       1.0  0.26527  0.28919  0.46751  1.0000
  H   H38       1.0  0.73473  0.71081  0.53249  1.0000
  H   H39       1.0  0.35490  0.29586  0.24526  1.0000
  H   H40       1.0  0.64510  0.70414  0.75474  1.0000
  H   H41       1.0  0.17322  0.62135  0.36253  1.0000
  H   H42       1.0  0.82678  0.37865  0.63747  1.0000
  H   H43       1.0  0.10279  0.74221  0.17888  1.0000
  H   H44       1.0  0.89721  0.25779  0.82113  1.0000
  H   H45       1.0  0.27542  0.43175  0.06571  1.0000
  H   H46       1.0  0.72457  0.56825  0.93429  1.0000
  C   C1        1.0  0.36164  0.79367  0.97685  1.0000
  C   C2        1.0  0.63836  0.20633  0.02315  1.0000
  C   C3        1.0  0.45097  0.82214  0.03455  1.0000
  C   C4        1.0  0.54903  0.17786  0.96544  1.0000
  C   C5        1.0  0.60034  0.78960  0.00413  1.0000
  C   C6        1.0  0.39966  0.21040  0.99587  1.0000
  C   C7        1.0  0.68595  0.81845  0.05435  1.0000
  C   C8        1.0  0.31405  0.18155  0.94565  1.0000
  C   C9        1.0  0.84552  0.78651  0.01911  1.0000
  C   C10       1.0  0.15448  0.21348  0.98089  1.0000
  C   C11       1.0  0.62203  0.87943  0.13527  1.0000
  C   C12       1.0  0.37797  0.12057  0.86473  1.0000
  C   C13       1.0  0.47197  0.90998  0.16760  1.0000
  C   C14       1.0  0.52803  0.09003  0.83240  1.0000
  C   C15       1.0  0.38559  0.88105  0.11764  1.0000
  C   C16       1.0  0.61441  0.11895  0.88236  1.0000
  C   C17       1.0  0.26787  0.02513  0.27123  1.0000
  C   C18       1.0  0.73213  0.97487  0.72877  1.0000
  C   C19       1.0  0.18853  0.93652  0.35984  1.0000
  C   C20       1.0  0.81148  0.06348  0.64015  1.0000
  C   C21       1.0  0.24897  0.85679  0.45458  1.0000
  C   C22       1.0  0.75103  0.14321  0.54541  1.0000
  C   C23       1.0  0.17386  0.78028  0.54098  1.0000
  C   C24       1.0  0.82614  0.21972  0.45902  1.0000
  C   C25       1.0  0.03482  0.78445  0.53434  1.0000
  C   C26       1.0  0.96518  0.21555  0.46566  1.0000
  C   C27       1.0  0.97324  0.86348  0.44062  1.0000
  C   C28       1.0  0.02676  0.13651  0.55938  1.0000
  C   C29       1.0  0.04968  0.93870  0.35272  1.0000
  C   C30       1.0  0.95032  0.06130  0.64728  1.0000
  C   C31       1.0  0.98681  0.01458  0.24734  1.0000
  C   C32       1.0  0.01319  0.98542  0.75266  1.0000
  C   C33       1.0  0.36530  0.52238  0.80933  1.0000
  C   C34       1.0  0.63470  0.47762  0.19067  1.0000
  C   C35       1.0  0.12403  0.53878  0.82022  1.0000
  C   C36       1.0  0.87597  0.46122  0.17978  1.0000
  C   C37       1.0  0.15892  0.46539  0.75075  1.0000
  C   C38       1.0  0.84108  0.53461  0.24925  1.0000
  C   C39       1.0  0.40797  0.44818  0.73920  1.0000
  C   C40       1.0  0.59203  0.55182  0.26080  1.0000
  C   C41       1.0  0.30367  0.41964  0.70717  1.0000
  C   C42       1.0  0.69633  0.58036  0.29283  1.0000
  C   C43       1.0  0.34140  0.34812  0.62537  1.0000
  C   C44       1.0  0.65860  0.65188  0.37463  1.0000
  C   C45       1.0  0.29184  0.43480  0.51507  1.0000
  C   C46       1.0  0.70816  0.56520  0.48493  1.0000
  C   C47       1.0  0.31876  0.36542  0.43118  1.0000
  C   C48       1.0  0.68124  0.63458  0.56882  1.0000
  C   C49       1.0  0.26877  0.44554  0.32208  1.0000
  C   C50       1.0  0.73123  0.55446  0.67792  1.0000
  C   C51       1.0  0.29587  0.39371  0.23584  1.0000
  C   C52       1.0  0.70413  0.60629  0.76416  1.0000
  C   C53       1.0  0.19740  0.57335  0.30051  1.0000
  C   C54       1.0  0.80259  0.42665  0.69950  1.0000
  C   C55       1.0  0.15762  0.64269  0.19686  1.0000
  C   C56       1.0  0.84238  0.35731  0.80315  1.0000
  C   C57       1.0  0.25315  0.46937  0.13455  1.0000
  C   C58       1.0  0.74684  0.53064  0.86546  1.0000
  N   N1        1.0  0.22550  0.56846  0.84784  1.0000
  N   N2        1.0  0.77450  0.43154  0.15216  1.0000
  N   N3        1.0  0.18472  0.59177  0.11482  1.0000
  N   N4        1.0  0.81528  0.40823  0.88518  1.0000
  O   O1        1.0  0.22594  0.85380  0.98220  1.0000
  O   O2        1.0  0.77406  0.14621  0.01780  1.0000
  O   O3        1.0  0.41711  0.71115  0.92797  1.0000
  O   O4        1.0  0.58289  0.28885  0.07203  1.0000
  O   O5        1.0  0.90217  0.72213  0.95191  1.0000
  O   O6        1.0  0.09783  0.27788  0.04809  1.0000
  O   O7        1.0  0.92057  0.82447  0.05871  1.0000
  O   O8        1.0  0.07944  0.17552  0.94129  1.0000
  O   O9        1.0  0.42095  0.97094  0.24680  1.0000
  O   O10       1.0  0.57905  0.02906  0.75319  1.0000
  O   O11       1.0  0.02935  0.95649  0.17456  1.0000
  O   O12       1.0  0.97065  0.04351  0.82544  1.0000
  O   O13       1.0  0.90342  0.12300  0.23885  1.0000
  O   O14       1.0  0.09658  0.87700  0.76114  1.0000
