data_image0
_chemical_formula_structural       Cd2H32C44N2O14
_chemical_formula_sum              "Cd2 H32 C44 N2 O14"
_cell_length_a       8.38419
_cell_length_b       10.3076
_cell_length_c       11.401
_cell_angle_alpha    74.5395
_cell_angle_beta     83.4881
_cell_angle_gamma    78.5718

_space_group_name_H-M_alt    "P 1"
_space_group_IT_number       1

loop_
  _space_group_symop_operation_xyz
  'x, y, z'

loop_
  _atom_site_type_symbol
  _atom_site_label
  _atom_site_symmetry_multiplicity
  _atom_site_fract_x
  _atom_site_fract_y
  _atom_site_fract_z
  _atom_site_occupancy
  Cd  Cd1       1.0  0.84685  0.37186  0.53592  1.0000
  Cd  Cd2       1.0  0.15316  0.62814  0.46408  1.0000
  H   H1        1.0  0.83849  0.43827  0.77822  1.0000
  H   H2        1.0  0.16151  0.56174  0.22178  1.0000
  H   H3        1.0  0.82020  0.36550  0.07236  1.0000
  H   H4        1.0  0.17979  0.63450  0.92764  1.0000
  H   H5        1.0  0.47270  0.68404  0.18781  1.0000
  H   H6        1.0  0.52730  0.31596  0.81219  1.0000
  H   H7        1.0  0.60666  0.62042  0.38027  1.0000
  H   H8        1.0  0.39334  0.37958  0.61973  1.0000
  H   H9        1.0  0.35236  0.86512  0.95231  1.0000
  H   H10       1.0  0.64764  0.13488  0.04769  1.0000
  H   H11       1.0  0.93738  0.30691  0.27581  1.0000
  H   H12       1.0  0.06262  0.69309  0.72419  1.0000
  H   H13       1.0  0.47618  0.67403  0.70948  1.0000
  H   H14       1.0  0.52382  0.32597  0.29052  1.0000
  H   H15       1.0  0.64115  0.55794  0.91806  1.0000
  H   H16       1.0  0.35885  0.44206  0.08194  1.0000
  H   H17       1.0  0.47124  0.65639  0.97933  1.0000
  H   H18       1.0  0.52876  0.34362  0.02067  1.0000
  H   H19       1.0  0.86323  0.89404  0.53379  1.0000
  H   H20       1.0  0.13677  0.10596  0.46621  1.0000
  H   H21       1.0  0.04672  0.97988  0.76527  1.0000
  H   H22       1.0  0.95328  0.02012  0.23473  1.0000
  H   H23       1.0  0.18390  0.08464  0.68300  1.0000
  H   H24       1.0  0.81610  0.91536  0.31700  1.0000
  H   H25       1.0  0.24827  0.15282  0.17550  1.0000
  H   H26       1.0  0.75173  0.84718  0.82450  1.0000
  H   H27       1.0  0.06383  0.30884  0.02094  1.0000
  H   H28       1.0  0.93617  0.69116  0.97906  1.0000
  H   H29       1.0  0.38756  0.92766  0.14220  1.0000
  H   H30       1.0  0.61244  0.07233  0.85780  1.0000
  H   H31       1.0  0.42714  0.10672  0.68112  1.0000
  H   H32       1.0  0.57286  0.89328  0.31888  1.0000
  C   C1        1.0  0.63611  0.53005  0.11184  1.0000
  C   C2        1.0  0.36389  0.46995  0.88816  1.0000
  C   C3        1.0  0.64987  0.01133  0.60454  1.0000
  C   C4        1.0  0.35013  0.98867  0.39546  1.0000
  C   C5        1.0  0.67946  0.76977  0.62054  1.0000
  C   C6        1.0  0.32054  0.23023  0.37946  1.0000
  C   C7        1.0  0.43105  0.88971  0.70225  1.0000
  C   C8        1.0  0.56895  0.11029  0.29775  1.0000
  C   C9        1.0  0.77139  0.42524  0.13804  1.0000
  C   C10       1.0  0.22860  0.57476  0.86196  1.0000
  C   C11       1.0  0.57832  0.60207  0.20054  1.0000
  C   C12       1.0  0.42168  0.39793  0.79946  1.0000
  C   C13       1.0  0.65304  0.56585  0.31028  1.0000
  C   C14       1.0  0.34696  0.43415  0.68972  1.0000
  C   C15       1.0  0.49462  0.01092  0.66482  1.0000
  C   C16       1.0  0.50538  0.98908  0.33518  1.0000
  C   C17       1.0  0.28686  0.96170  0.96846  1.0000
  C   C18       1.0  0.71314  0.03829  0.03154  1.0000
  C   C19       1.0  0.98146  0.26465  0.81730  1.0000
  C   C20       1.0  0.01855  0.73536  0.18271  1.0000
  C   C21       1.0  0.09887  0.17274  0.90298  1.0000
  C   C22       1.0  0.90113  0.82726  0.09702  1.0000
  C   C23       1.0  0.83804  0.39301  0.25052  1.0000
  C   C24       1.0  0.16196  0.60699  0.74948  1.0000
  C   C25       1.0  0.52516  0.76849  0.68165  1.0000
  C   C26       1.0  0.47484  0.23151  0.31835  1.0000
  C   C27       1.0  0.77193  0.64129  0.59191  1.0000
  C   C28       1.0  0.22807  0.35871  0.40809  1.0000
  C   C29       1.0  0.55133  0.55598  0.99640  1.0000
  C   C30       1.0  0.44867  0.44402  0.00360  1.0000
  C   C31       1.0  0.71688  0.14195  0.56847  1.0000
  C   C32       1.0  0.28312  0.85805  0.43153  1.0000
  C   C33       1.0  0.74263  0.89164  0.58059  1.0000
  C   C34       1.0  0.25737  0.10836  0.41940  1.0000
  C   C35       1.0  0.16868  0.00336  0.76590  1.0000
  C   C36       1.0  0.83132  0.99664  0.23410  1.0000
  C   C37       1.0  0.22903  0.12324  0.09403  1.0000
  C   C38       1.0  0.77098  0.87676  0.90597  1.0000
  C   C39       1.0  0.12536  0.20983  0.00820  1.0000
  C   C40       1.0  0.87464  0.79017  0.99180  1.0000
  C   C41       1.0  0.18421  0.04761  0.88018  1.0000
  C   C42       1.0  0.81578  0.95239  0.11982  1.0000
  C   C43       1.0  0.30786  0.99740  0.07466  1.0000
  C   C44       1.0  0.69214  0.00260  0.92534  1.0000
  N   N1        1.0  0.77947  0.46168  0.33600  1.0000
  N   N2        1.0  0.22053  0.53832  0.66400  1.0000
  O   O1        1.0  0.85390  0.14519  0.50861  1.0000
  O   O2        1.0  0.14610  0.85481  0.49139  1.0000
  O   O3        1.0  0.87218  0.64931  0.49940  1.0000
  O   O4        1.0  0.12783  0.35069  0.50060  1.0000
  O   O5        1.0  0.95030  0.23483  0.72506  1.0000
  O   O6        1.0  0.04970  0.76517  0.27494  1.0000
  O   O7        1.0  0.27960  0.87951  0.75907  1.0000
  O   O8        1.0  0.72040  0.12049  0.24093  1.0000
  O   O9        1.0  0.63325  0.24564  0.60268  1.0000
  O   O10       1.0  0.36675  0.75436  0.39732  1.0000
  O   O11       1.0  0.90954  0.38109  0.84661  1.0000
  O   O12       1.0  0.09046  0.61891  0.15339  1.0000
  O   O13       1.0  0.74035  0.52518  0.65851  1.0000
  O   O14       1.0  0.25965  0.47482  0.34149  1.0000
