data_image0
_chemical_formula_structural       Cd4H60C32S8N20
_chemical_formula_sum              "Cd4 H60 C32 S8 N20"
_cell_length_a       7.66222
_cell_length_b       7.75937
_cell_length_c       22.2479
_cell_angle_alpha    90
_cell_angle_beta     90
_cell_angle_gamma    105.549

_space_group_name_H-M_alt    "P 1"
_space_group_IT_number       1

loop_
  _space_group_symop_operation_xyz
  'x, y, z'

loop_
  _atom_site_type_symbol
  _atom_site_label
  _atom_site_symmetry_multiplicity
  _atom_site_fract_x
  _atom_site_fract_y
  _atom_site_fract_z
  _atom_site_occupancy
  Cd  Cd1       1.0  0.52340  0.22696  0.10944  1.0000
  Cd  Cd2       1.0  0.97660  0.77304  0.60944  1.0000
  Cd  Cd3       1.0  0.47660  0.77304  0.89056  1.0000
  Cd  Cd4       1.0  0.02340  0.22696  0.39056  1.0000
  H   H1        1.0  0.51312  0.90392  0.18600  1.0000
  H   H2        1.0  0.98688  0.09608  0.68600  1.0000
  H   H3        1.0  0.48688  0.09608  0.81400  1.0000
  H   H4        1.0  0.01312  0.90392  0.31399  1.0000
  H   H5        1.0  0.64933  0.93308  0.12710  1.0000
  H   H6        1.0  0.85067  0.06693  0.62710  1.0000
  H   H7        1.0  0.35068  0.06693  0.87290  1.0000
  H   H8        1.0  0.14933  0.93307  0.37290  1.0000
  H   H9        1.0  0.84426  0.98356  0.21375  1.0000
  H   H10       1.0  0.65573  0.01645  0.71375  1.0000
  H   H11       1.0  0.15574  0.01645  0.78625  1.0000
  H   H12       1.0  0.34427  0.98355  0.28625  1.0000
  H   H13       1.0  0.72012  0.12827  0.24219  1.0000
  H   H14       1.0  0.77987  0.87173  0.74219  1.0000
  H   H15       1.0  0.27988  0.87173  0.75781  1.0000
  H   H16       1.0  0.22013  0.12826  0.25781  1.0000
  H   H17       1.0  0.01737  0.29088  0.19682  1.0000
  H   H18       1.0  0.48263  0.70912  0.69682  1.0000
  H   H19       1.0  0.98263  0.70912  0.80318  1.0000
  H   H20       1.0  0.51737  0.29088  0.30318  1.0000
  H   H21       1.0  0.94604  0.18878  0.12626  1.0000
  H   H22       1.0  0.55395  0.81121  0.62626  1.0000
  H   H23       1.0  0.05396  0.81122  0.87374  1.0000
  H   H24       1.0  0.44605  0.18879  0.37374  1.0000
  H   H25       1.0  0.78390  0.43951  0.19005  1.0000
  H   H26       1.0  0.71610  0.56050  0.69005  1.0000
  H   H27       1.0  0.21610  0.56050  0.80995  1.0000
  H   H28       1.0  0.28390  0.43951  0.30995  1.0000
  H   H29       1.0  0.94555  0.43786  0.07083  1.0000
  H   H30       1.0  0.55445  0.56214  0.57083  1.0000
  H   H31       1.0  0.05444  0.56214  0.92917  1.0000
  H   H32       1.0  0.44556  0.43787  0.42917  1.0000
  H   H33       1.0  0.02606  0.59975  0.12806  1.0000
  H   H34       1.0  0.47394  0.40025  0.62806  1.0000
  H   H35       1.0  0.97394  0.40025  0.87194  1.0000
  H   H36       1.0  0.52606  0.59975  0.37194  1.0000
  H   H37       1.0  0.72112  0.66787  0.12764  1.0000
  H   H38       1.0  0.77888  0.33213  0.62764  1.0000
  H   H39       1.0  0.27887  0.33213  0.87236  1.0000
  H   H40       1.0  0.22112  0.66787  0.37236  1.0000
  H   H41       1.0  0.85463  0.73704  0.06210  1.0000
  H   H42       1.0  0.64537  0.26296  0.56210  1.0000
  H   H43       1.0  0.14537  0.26296  0.93790  1.0000
  H   H44       1.0  0.35463  0.73704  0.43790  1.0000
  H   H45       1.0  0.78076  0.41465  0.99034  1.0000
  H   H46       1.0  0.71924  0.58535  0.49034  1.0000
  H   H47       1.0  0.21924  0.58534  0.00966  1.0000
  H   H48       1.0  0.28076  0.41465  0.50966  1.0000
  H   H49       1.0  0.74256  0.62372  0.96910  1.0000
  H   H50       1.0  0.75744  0.37627  0.46910  1.0000
  H   H51       1.0  0.25744  0.37627  0.03090  1.0000
  H   H52       1.0  0.24256  0.62373  0.53090  1.0000
  H   H53       1.0  0.53394  0.74598  0.03088  1.0000
  H   H54       1.0  0.96606  0.25402  0.53088  1.0000
  H   H55       1.0  0.46606  0.25402  0.96912  1.0000
  H   H56       1.0  0.03394  0.74598  0.46912  1.0000
  H   H57       1.0  0.43026  0.62166  0.09483  1.0000
  H   H58       1.0  0.06974  0.37834  0.59483  1.0000
  H   H59       1.0  0.56974  0.37834  0.90517  1.0000
  H   H60       1.0  0.93026  0.62166  0.40517  1.0000
  C   C1        1.0  0.76865  0.08020  0.20057  1.0000
  C   C2        1.0  0.73134  0.91980  0.70057  1.0000
  C   C3        1.0  0.23135  0.91981  0.79943  1.0000
  C   C4        1.0  0.26865  0.08020  0.29943  1.0000
  C   C5        1.0  0.89844  0.23642  0.16818  1.0000
  C   C6        1.0  0.60156  0.76358  0.66818  1.0000
  C   C7        1.0  0.10156  0.76359  0.83182  1.0000
  C   C8        1.0  0.39844  0.23641  0.33182  1.0000
  C   C9        1.0  0.90308  0.50884  0.10854  1.0000
  C   C10       1.0  0.59691  0.49116  0.60854  1.0000
  C   C11       1.0  0.09692  0.49116  0.89146  1.0000
  C   C12       1.0  0.40309  0.50884  0.39146  1.0000
  C   C13       1.0  0.77704  0.61890  0.08747  1.0000
  C   C14       1.0  0.72296  0.38110  0.58747  1.0000
  C   C15       1.0  0.22296  0.38110  0.91253  1.0000
  C   C16       1.0  0.27704  0.61890  0.41253  1.0000
  C   C17       1.0  0.67973  0.49117  0.98925  1.0000
  C   C18       1.0  0.82028  0.50883  0.48925  1.0000
  C   C19       1.0  0.32027  0.50883  0.01075  1.0000
  C   C20       1.0  0.17973  0.49117  0.51075  1.0000
  C   C21       1.0  0.47858  0.60956  0.04898  1.0000
  C   C22       1.0  0.02142  0.39044  0.54898  1.0000
  C   C23       1.0  0.52142  0.39044  0.95102  1.0000
  C   C24       1.0  0.97858  0.60956  0.45102  1.0000
  C   C25       1.0  0.25805  0.94765  0.01139  1.0000
  C   C26       1.0  0.24195  0.05235  0.51139  1.0000
  C   C27       1.0  0.74195  0.05235  0.98861  1.0000
  C   C28       1.0  0.75805  0.94766  0.48861  1.0000
  C   C29       1.0  0.34176  0.49114  0.19798  1.0000
  C   C30       1.0  0.15825  0.50887  0.69798  1.0000
  C   C31       1.0  0.65824  0.50887  0.80202  1.0000
  C   C32       1.0  0.84176  0.49113  0.30202  1.0000
  S   S1        1.0  0.19995  0.02705  0.07414  1.0000
  S   S2        1.0  0.30004  0.97294  0.57414  1.0000
  S   S3        1.0  0.80005  0.97294  0.92586  1.0000
  S   S4        1.0  0.69996  0.02705  0.42586  1.0000
  S   S5        1.0  0.27639  0.65680  0.22570  1.0000
  S   S6        1.0  0.22361  0.34320  0.72570  1.0000
  S   S7        1.0  0.72361  0.34320  0.77430  1.0000
  S   S8        1.0  0.77639  0.65680  0.27430  1.0000
  N   N1        1.0  0.61058  0.99722  0.16276  1.0000
  N   N2        1.0  0.88942  0.00279  0.66276  1.0000
  N   N3        1.0  0.38943  0.00279  0.83724  1.0000
  N   N4        1.0  0.11058  0.99722  0.33724  1.0000
  N   N5        1.0  0.80747  0.37410  0.15198  1.0000
  N   N6        1.0  0.69253  0.62590  0.65198  1.0000
  N   N7        1.0  0.19253  0.62590  0.84802  1.0000
  N   N8        1.0  0.30747  0.37410  0.34802  1.0000
  N   N9        1.0  0.62205  0.51494  0.05137  1.0000
  N   N10       1.0  0.87795  0.48506  0.55137  1.0000
  N   N11       1.0  0.37795  0.48506  0.94863  1.0000
  N   N12       1.0  0.12205  0.51494  0.44863  1.0000
  N   N13       1.0  0.29875  0.89011  0.96580  1.0000
  N   N14       1.0  0.20125  0.10987  0.46581  1.0000
  N   N15       1.0  0.70126  0.10988  0.03419  1.0000
  N   N16       1.0  0.79875  0.89012  0.53420  1.0000
  N   N17       1.0  0.38184  0.36438  0.17837  1.0000
  N   N18       1.0  0.11816  0.63562  0.67837  1.0000
  N   N19       1.0  0.61816  0.63563  0.82163  1.0000
  N   N20       1.0  0.88185  0.36439  0.32163  1.0000
