data_image0
_chemical_formula_structural       Sr2H34C32N4O20
_chemical_formula_sum              "Sr2 H34 C32 N4 O20"
_cell_length_a       8.58346
_cell_length_b       10.3019
_cell_length_c       11.4632
_cell_angle_alpha    87.3526
_cell_angle_beta     88.8712
_cell_angle_gamma    75.6699

_space_group_name_H-M_alt    "P 1"
_space_group_IT_number       1

loop_
  _space_group_symop_operation_xyz
  'x, y, z'

loop_
  _atom_site_type_symbol
  _atom_site_label
  _atom_site_symmetry_multiplicity
  _atom_site_fract_x
  _atom_site_fract_y
  _atom_site_fract_z
  _atom_site_occupancy
  Sr  Sr1       1.0  0.30290  0.47594  0.96359  1.0000
  Sr  Sr2       1.0  0.69711  0.52406  0.03641  1.0000
  H   H1        1.0  0.48384  0.95825  0.79084  1.0000
  H   H2        1.0  0.51615  0.04177  0.20916  1.0000
  H   H3        1.0  0.37937  0.68407  0.16013  1.0000
  H   H4        1.0  0.62064  0.31593  0.83987  1.0000
  H   H5        1.0  0.48554  0.56005  0.23091  1.0000
  H   H6        1.0  0.51447  0.43995  0.76908  1.0000
  H   H7        1.0  0.10561  0.40115  0.16856  1.0000
  H   H8        1.0  0.89438  0.59886  0.83143  1.0000
  H   H9        1.0  0.12876  0.74032  0.05750  1.0000
  H   H10       1.0  0.87123  0.25969  0.94250  1.0000
  H   H11       1.0  0.02090  0.64022  0.10595  1.0000
  H   H12       1.0  0.97911  0.35978  0.89405  1.0000
  H   H13       1.0  0.17804  0.18981  0.06039  1.0000
  H   H14       1.0  0.82195  0.81019  0.93960  1.0000
  H   H15       1.0  0.76382  0.24434  0.33630  1.0000
  H   H16       1.0  0.23619  0.75566  0.66371  1.0000
  H   H17       1.0  0.95730  0.22043  0.17106  1.0000
  H   H18       1.0  0.04270  0.77958  0.82894  1.0000
  H   H19       1.0  0.12274  0.79741  0.26004  1.0000
  H   H20       1.0  0.87726  0.20259  0.73996  1.0000
  H   H21       1.0  0.92917  0.82002  0.42263  1.0000
  H   H22       1.0  0.07084  0.17998  0.57738  1.0000
  H   H23       1.0  0.66819  0.86698  0.49360  1.0000
  H   H24       1.0  0.33181  0.13302  0.50638  1.0000
  H   H25       1.0  0.60290  0.98220  0.60769  1.0000
  H   H26       1.0  0.39709  0.01779  0.39230  1.0000
  H   H27       1.0  0.81160  0.89792  0.59510  1.0000
  H   H28       1.0  0.18839  0.10207  0.40489  1.0000
  H   H29       1.0  0.26667  0.55363  0.50996  1.0000
  H   H30       1.0  0.73335  0.44637  0.49004  1.0000
  H   H31       1.0  0.86550  0.44318  0.68281  1.0000
  H   H32       1.0  0.13452  0.55681  0.31719  1.0000
  H   H33       1.0  0.28808  0.30425  0.18556  1.0000
  H   H34       1.0  0.71192  0.69576  0.81443  1.0000
  C   C1        1.0  0.83180  0.03419  0.38941  1.0000
  C   C2        1.0  0.16820  0.96581  0.61059  1.0000
  C   C3        1.0  0.84414  0.14706  0.31927  1.0000
  C   C4        1.0  0.15586  0.85294  0.68073  1.0000
  C   C5        1.0  0.95292  0.13286  0.22694  1.0000
  C   C6        1.0  0.04708  0.86714  0.77306  1.0000
  C   C7        1.0  0.05308  0.00624  0.20221  1.0000
  C   C8        1.0  0.94691  0.99377  0.79779  1.0000
  C   C9        1.0  0.04278  0.89531  0.27521  1.0000
  C   C10       1.0  0.95722  0.10469  0.72479  1.0000
  C   C11       1.0  0.93373  0.90805  0.36779  1.0000
  C   C12       1.0  0.06628  0.09195  0.63221  1.0000
  C   C13       1.0  0.16152  0.98825  0.10214  1.0000
  C   C14       1.0  0.83847  0.01175  0.89786  1.0000
  C   C15       1.0  0.32085  0.89726  0.96154  1.0000
  C   C16       1.0  0.67915  0.10274  0.03846  1.0000
  C   C17       1.0  0.30455  0.03578  0.94973  1.0000
  C   C18       1.0  0.69545  0.96423  0.05026  1.0000
  C   C19       1.0  0.37429  0.12221  0.86970  1.0000
  C   C20       1.0  0.62570  0.87779  0.13030  1.0000
  C   C21       1.0  0.42501  0.78887  0.89429  1.0000
  C   C22       1.0  0.57498  0.21115  0.10571  1.0000
  C   C23       1.0  0.70047  0.94267  0.54664  1.0000
  C   C24       1.0  0.29952  0.05732  0.45335  1.0000
  C   C25       1.0  0.15010  0.52999  0.50454  1.0000
  C   C26       1.0  0.84990  0.47001  0.49547  1.0000
  C   C27       1.0  0.07477  0.49796  0.60773  1.0000
  C   C28       1.0  0.92523  0.50203  0.39228  1.0000
  C   C29       1.0  0.92405  0.46815  0.60255  1.0000
  C   C30       1.0  0.07595  0.53185  0.39745  1.0000
  C   C31       1.0  0.15442  0.49727  0.72278  1.0000
  C   C32       1.0  0.84558  0.50273  0.27723  1.0000
  N   N1        1.0  0.20401  0.08971  0.03927  1.0000
  N   N2        1.0  0.79598  0.91029  0.96073  1.0000
  N   N3        1.0  0.23167  0.86973  0.05612  1.0000
  N   N4        1.0  0.76833  0.13028  0.94388  1.0000
  O   O1        1.0  0.71808  0.05634  0.47490  1.0000
  O   O2        1.0  0.28192  0.94366  0.52511  1.0000
  O   O3        1.0  0.50721  0.82096  0.80773  1.0000
  O   O4        1.0  0.49279  0.17905  0.19227  1.0000
  O   O5        1.0  0.46754  0.06589  0.78445  1.0000
  O   O6        1.0  0.53246  0.93411  0.21555  1.0000
  O   O7        1.0  0.34622  0.24470  0.88457  1.0000
  O   O8        1.0  0.65378  0.75530  0.11543  1.0000
  O   O9        1.0  0.43436  0.66854  0.92839  1.0000
  O   O10       1.0  0.56565  0.33146  0.07161  1.0000
  O   O11       1.0  0.07102  0.48595  0.81636  1.0000
  O   O12       1.0  0.92898  0.51405  0.18364  1.0000
  O   O13       1.0  0.29660  0.51055  0.72641  1.0000
  O   O14       1.0  0.70341  0.48944  0.27359  1.0000
  O   O15       1.0  0.40074  0.58651  0.17173  1.0000
  O   O16       1.0  0.59927  0.41349  0.82827  1.0000
  O   O17       1.0  0.19997  0.34060  0.13024  1.0000
  O   O18       1.0  0.80002  0.65940  0.86976  1.0000
  O   O19       1.0  0.07858  0.66632  0.03732  1.0000
  O   O20       1.0  0.92141  0.33369  0.96268  1.0000
