data_image0
_chemical_formula_structural       La2H44C48N6O16
_chemical_formula_sum              "La2 H44 C48 N6 O16"
_cell_length_a       8.27373
_cell_length_b       12.6265
_cell_length_c       14.4206
_cell_angle_alpha    109.86
_cell_angle_beta     97.8293
_cell_angle_gamma    100.934

_space_group_name_H-M_alt    "P 1"
_space_group_IT_number       1

loop_
  _space_group_symop_operation_xyz
  'x, y, z'

loop_
  _atom_site_type_symbol
  _atom_site_label
  _atom_site_symmetry_multiplicity
  _atom_site_fract_x
  _atom_site_fract_y
  _atom_site_fract_z
  _atom_site_occupancy
  La  La1       1.0  0.78122  0.57067  0.52607  1.0000
  La  La2       1.0  0.21878  0.42933  0.47393  1.0000
  H   H1        1.0  0.51408  0.49514  0.32862  1.0000
  H   H2        1.0  0.48592  0.50486  0.67137  1.0000
  H   H3        1.0  0.67537  0.53988  0.28722  1.0000
  H   H4        1.0  0.32463  0.46012  0.71278  1.0000
  H   H5        1.0  0.02657  0.64930  0.40461  1.0000
  H   H6        1.0  0.97343  0.35071  0.59539  1.0000
  H   H7        1.0  0.91816  0.74554  0.41843  1.0000
  H   H8        1.0  0.08183  0.25446  0.58158  1.0000
  H   H9        1.0  0.85179  0.41630  0.81267  1.0000
  H   H10       1.0  0.14821  0.58372  0.18733  1.0000
  H   H11       1.0  0.67163  0.61453  0.86558  1.0000
  H   H12       1.0  0.32836  0.38547  0.13442  1.0000
  H   H13       1.0  0.61123  0.68795  0.02618  1.0000
  H   H14       1.0  0.38876  0.31205  0.97382  1.0000
  H   H15       1.0  0.60068  0.67892  0.19506  1.0000
  H   H16       1.0  0.39933  0.32108  0.80495  1.0000
  H   H17       1.0  0.83382  0.40836  0.13899  1.0000
  H   H18       1.0  0.16618  0.59163  0.86100  1.0000
  H   H19       1.0  0.85144  0.40288  0.96672  1.0000
  H   H20       1.0  0.14854  0.59712  0.03327  1.0000
  H   H21       1.0  0.72213  0.24731  0.45677  1.0000
  H   H22       1.0  0.27788  0.75270  0.54323  1.0000
  H   H23       1.0  0.39139  0.05355  0.37368  1.0000
  H   H24       1.0  0.60863  0.94645  0.62631  1.0000
  H   H25       1.0  0.41863  0.86590  0.37344  1.0000
  H   H26       1.0  0.58137  0.13411  0.62656  1.0000
  H   H27       1.0  0.59675  0.72600  0.37336  1.0000
  H   H28       1.0  0.40324  0.27400  0.62663  1.0000
  H   H29       1.0  0.02568  0.96396  0.38471  1.0000
  H   H30       1.0  0.97433  0.03603  0.61529  1.0000
  H   H31       1.0  0.87160  0.11482  0.38915  1.0000
  H   H32       1.0  0.12841  0.88518  0.61085  1.0000
  H   H33       1.0  0.60833  0.31789  0.28257  1.0000
  H   H34       1.0  0.39167  0.68210  0.71743  1.0000
  H   H35       1.0  0.81163  0.18630  0.13992  1.0000
  H   H36       1.0  0.18837  0.81370  0.86009  1.0000
  H   H37       1.0  0.67754  0.13117  0.95875  1.0000
  H   H38       1.0  0.32246  0.86882  0.04126  1.0000
  H   H39       1.0  0.41261  0.05215  0.82489  1.0000
  H   H40       1.0  0.58740  0.94784  0.17511  1.0000
  H   H41       1.0  0.11662  0.10799  0.03763  1.0000
  H   H42       1.0  0.88338  0.89201  0.96237  1.0000
  H   H43       1.0  0.36565  0.18955  0.18000  1.0000
  H   H44       1.0  0.63435  0.81045  0.82000  1.0000
  C   C1        1.0  0.77714  0.50095  0.70890  1.0000
  C   C2        1.0  0.22285  0.49905  0.29110  1.0000
  C   C3        1.0  0.78925  0.48285  0.80581  1.0000
  C   C4        1.0  0.21076  0.51716  0.19419  1.0000
  C   C5        1.0  0.72963  0.54963  0.88105  1.0000
  C   C6        1.0  0.27037  0.45038  0.11895  1.0000
  C   C7        1.0  0.73223  0.54602  0.98104  1.0000
  C   C8        1.0  0.26775  0.45397  0.01896  1.0000
  C   C9        1.0  0.66275  0.62473  0.04829  1.0000
  C   C10       1.0  0.33724  0.37527  0.95171  1.0000
  C   C11       1.0  0.65710  0.62004  0.14265  1.0000
  C   C12       1.0  0.34289  0.37996  0.85735  1.0000
  C   C13       1.0  0.78588  0.46894  0.11086  1.0000
  C   C14       1.0  0.21412  0.53105  0.88914  1.0000
  C   C15       1.0  0.79578  0.46655  0.01475  1.0000
  C   C16       1.0  0.20421  0.53344  0.98524  1.0000
  C   C17       1.0  0.47037  0.28122  0.44248  1.0000
  C   C18       1.0  0.52964  0.71878  0.55751  1.0000
  C   C19       1.0  0.58776  0.20462  0.43077  1.0000
  C   C20       1.0  0.41226  0.79539  0.56923  1.0000
  C   C21       1.0  0.52843  0.08811  0.39365  1.0000
  C   C22       1.0  0.47159  0.91190  0.60635  1.0000
  C   C23       1.0  0.63012  0.00405  0.38387  1.0000
  C   C24       1.0  0.36990  0.99596  0.61613  1.0000
  C   C25       1.0  0.55329  0.89101  0.37582  1.0000
  C   C26       1.0  0.44672  0.10900  0.62418  1.0000
  C   C27       1.0  0.65137  0.81298  0.37579  1.0000
  C   C28       1.0  0.34862  0.18702  0.62420  1.0000
  C   C29       1.0  0.89067  0.94525  0.38279  1.0000
  C   C30       1.0  0.10933  0.05475  0.61721  1.0000
  C   C31       1.0  0.80388  0.03000  0.38527  1.0000
  C   C32       1.0  0.19613  0.97000  0.61473  1.0000
  C   C33       1.0  0.87554  0.32716  0.33143  1.0000
  C   C34       1.0  0.12446  0.67284  0.66858  1.0000
  C   C35       1.0  0.71275  0.28399  0.25684  1.0000
  C   C36       1.0  0.28725  0.71600  0.74316  1.0000
  C   C37       1.0  0.69889  0.21254  0.16088  1.0000
  C   C38       1.0  0.30112  0.78745  0.83912  1.0000
  C   C39       1.0  0.54552  0.16887  0.08171  1.0000
  C   C40       1.0  0.45448  0.83113  0.91829  1.0000
  C   C41       1.0  0.55518  0.12903  0.97949  1.0000
  C   C42       1.0  0.44482  0.87097  0.02052  1.0000
  C   C43       1.0  0.40710  0.08448  0.90472  1.0000
  C   C44       1.0  0.59290  0.91552  0.09528  1.0000
  C   C45       1.0  0.24325  0.11519  0.02228  1.0000
  C   C46       1.0  0.75675  0.88481  0.97772  1.0000
  C   C47       1.0  0.38326  0.16173  0.10251  1.0000
  C   C48       1.0  0.61675  0.83827  0.89749  1.0000
  N   N1        1.0  0.71687  0.54359  0.17421  1.0000
  N   N2        1.0  0.28313  0.45641  0.82579  1.0000
  N   N3        1.0  0.81818  0.83901  0.37992  1.0000
  N   N4        1.0  0.18182  0.16099  0.62008  1.0000
  N   N5        1.0  0.25204  0.07637  0.92435  1.0000
  N   N6        1.0  0.74796  0.92363  0.07565  1.0000
  O   O1        1.0  0.85615  0.45032  0.64454  1.0000
  O   O2        1.0  0.14385  0.54968  0.35546  1.0000
  O   O3        1.0  0.68849  0.56857  0.69262  1.0000
  O   O4        1.0  0.31150  0.43143  0.30737  1.0000
  O   O5        1.0  0.53323  0.39207  0.47481  1.0000
  O   O6        1.0  0.46677  0.60793  0.52519  1.0000
  O   O7        1.0  0.31201  0.23837  0.42225  1.0000
  O   O8        1.0  0.68800  0.76162  0.57775  1.0000
  O   O9        1.0  0.88846  0.41122  0.41620  1.0000
  O   O10       1.0  0.11155  0.58878  0.58380  1.0000
  O   O11       1.0  0.99808  0.28325  0.31227  1.0000
  O   O12       1.0  0.00191  0.71673  0.68774  1.0000
  O   O13       1.0  0.63393  0.54140  0.35020  1.0000
  O   O14       1.0  0.36607  0.45860  0.64980  1.0000
  O   O15       1.0  0.96656  0.69609  0.45108  1.0000
  O   O16       1.0  0.03344  0.30391  0.54892  1.0000
