data_image0
_chemical_formula_structural       Zn2H36C48N8O20
_chemical_formula_sum              "Zn2 H36 C48 N8 O20"
_cell_length_a       9.91089
_cell_length_b       10.9663
_cell_length_c       12.3394
_cell_angle_alpha    90
_cell_angle_beta     90
_cell_angle_gamma    114.27

_space_group_name_H-M_alt    "P 1"
_space_group_IT_number       1

loop_
  _space_group_symop_operation_xyz
  'x, y, z'

loop_
  _atom_site_type_symbol
  _atom_site_label
  _atom_site_symmetry_multiplicity
  _atom_site_fract_x
  _atom_site_fract_y
  _atom_site_fract_z
  _atom_site_occupancy
  Zn  Zn1       1.0  0.50000  0.50000  0.00000  1.0000
  Zn  Zn2       1.0  0.00000  1.00000  0.50000  1.0000
  H   H1        1.0  0.05278  0.29715  0.20775  1.0000
  H   H2        1.0  0.44722  0.20285  0.70775  1.0000
  H   H3        1.0  0.94722  0.70285  0.79225  1.0000
  H   H4        1.0  0.55278  0.79715  0.29225  1.0000
  H   H5        1.0  0.56369  0.06845  0.23154  1.0000
  H   H6        1.0  0.93631  0.43155  0.73154  1.0000
  H   H7        1.0  0.43631  0.93155  0.76846  1.0000
  H   H8        1.0  0.06369  0.56845  0.26846  1.0000
  H   H9        1.0  0.10086  0.12428  0.90900  1.0000
  H   H10       1.0  0.39914  0.37572  0.40900  1.0000
  H   H11       1.0  0.89914  0.87572  0.09100  1.0000
  H   H12       1.0  0.60086  0.62428  0.59100  1.0000
  H   H13       1.0  0.94561  0.11654  0.83054  1.0000
  H   H14       1.0  0.55439  0.38346  0.33054  1.0000
  H   H15       1.0  0.05439  0.88346  0.16946  1.0000
  H   H16       1.0  0.44561  0.61654  0.66946  1.0000
  H   H17       1.0  0.58034  0.26325  0.92313  1.0000
  H   H18       1.0  0.91966  0.23675  0.42313  1.0000
  H   H19       1.0  0.41966  0.73676  0.07687  1.0000
  H   H20       1.0  0.08034  0.76325  0.57687  1.0000
  H   H21       1.0  0.32840  0.05455  0.23411  1.0000
  H   H22       1.0  0.17160  0.44545  0.73411  1.0000
  H   H23       1.0  0.67160  0.94545  0.76589  1.0000
  H   H24       1.0  0.82840  0.55455  0.26589  1.0000
  H   H25       1.0  0.77745  0.02521  0.17683  1.0000
  H   H26       1.0  0.72255  0.47479  0.67682  1.0000
  H   H27       1.0  0.22254  0.97479  0.82318  1.0000
  H   H28       1.0  0.27745  0.52521  0.32317  1.0000
  H   H29       1.0  0.04796  0.26282  0.91053  1.0000
  H   H30       1.0  0.45203  0.23718  0.41053  1.0000
  H   H31       1.0  0.95204  0.73718  0.08947  1.0000
  H   H32       1.0  0.54797  0.76282  0.58947  1.0000
  H   H33       1.0  0.79639  0.22269  0.87077  1.0000
  H   H34       1.0  0.70362  0.27731  0.37077  1.0000
  H   H35       1.0  0.20362  0.77731  0.12923  1.0000
  H   H36       1.0  0.29638  0.72269  0.62923  1.0000
  C   C1        1.0  0.55594  0.17097  0.08081  1.0000
  C   C2        1.0  0.94406  0.32903  0.58081  1.0000
  C   C3        1.0  0.44406  0.82903  0.91919  1.0000
  C   C4        1.0  0.05594  0.67097  0.41919  1.0000
  C   C5        1.0  0.21657  0.39574  0.10726  1.0000
  C   C6        1.0  0.28343  0.10426  0.60725  1.0000
  C   C7        1.0  0.78343  0.60426  0.89275  1.0000
  C   C8        1.0  0.71657  0.89574  0.39275  1.0000
  C   C9        1.0  0.23072  0.18940  0.20197  1.0000
  C   C10       1.0  0.26928  0.31060  0.70196  1.0000
  C   C11       1.0  0.76928  0.81060  0.79804  1.0000
  C   C12       1.0  0.73072  0.68940  0.29804  1.0000
  C   C13       1.0  0.61129  0.10106  0.15131  1.0000
  C   C14       1.0  0.88871  0.39894  0.65131  1.0000
  C   C15       1.0  0.38871  0.89894  0.84869  1.0000
  C   C16       1.0  0.11129  0.60106  0.34869  1.0000
  C   C17       1.0  0.43288  0.20254  0.11206  1.0000
  C   C18       1.0  0.06712  0.29746  0.61206  1.0000
  C   C19       1.0  0.56712  0.79746  0.88794  1.0000
  C   C20       1.0  0.93288  0.70254  0.38794  1.0000
  C   C21       1.0  0.74496  0.18717  0.94923  1.0000
  C   C22       1.0  0.75504  0.31283  0.44923  1.0000
  C   C23       1.0  0.25504  0.81283  0.05077  1.0000
  C   C24       1.0  0.24496  0.68717  0.55077  1.0000
  C   C25       1.0  0.27411  0.29336  0.12760  1.0000
  C   C26       1.0  0.22589  0.20664  0.62760  1.0000
  C   C27       1.0  0.72589  0.70664  0.87240  1.0000
  C   C28       1.0  0.77411  0.79336  0.37240  1.0000
  C   C29       1.0  0.73143  0.07514  0.12133  1.0000
  C   C30       1.0  0.76857  0.42486  0.62133  1.0000
  C   C31       1.0  0.26857  0.92486  0.87867  1.0000
  C   C32       1.0  0.23143  0.57514  0.37867  1.0000
  C   C33       1.0  0.62342  0.21186  0.97947  1.0000
  C   C34       1.0  0.87659  0.28814  0.47947  1.0000
  C   C35       1.0  0.37659  0.78814  0.02053  1.0000
  C   C36       1.0  0.12342  0.71186  0.52053  1.0000
  C   C37       1.0  0.80022  0.11935  0.02055  1.0000
  C   C38       1.0  0.69978  0.38065  0.52054  1.0000
  C   C39       1.0  0.19978  0.88065  0.97946  1.0000
  C   C40       1.0  0.30022  0.61935  0.47946  1.0000
  C   C41       1.0  0.00771  0.15326  0.90639  1.0000
  C   C42       1.0  0.49229  0.34674  0.40639  1.0000
  C   C43       1.0  0.99229  0.84674  0.09361  1.0000
  C   C44       1.0  0.50771  0.65326  0.59361  1.0000
  C   C45       1.0  0.11072  0.14219  0.28302  1.0000
  C   C46       1.0  0.38928  0.35781  0.78302  1.0000
  C   C47       1.0  0.88928  0.85781  0.71698  1.0000
  C   C48       1.0  0.61072  0.64219  0.21698  1.0000
  N   N1        1.0  0.39831  0.30067  0.07298  1.0000
  N   N2        1.0  0.10169  0.19933  0.57298  1.0000
  N   N3        1.0  0.60168  0.69933  0.92702  1.0000
  N   N4        1.0  0.89831  0.80067  0.42703  1.0000
  N   N5        1.0  0.33219  0.13469  0.19070  1.0000
  N   N6        1.0  0.16781  0.36531  0.69070  1.0000
  N   N7        1.0  0.66781  0.86531  0.80930  1.0000
  N   N8        1.0  0.83219  0.63469  0.30930  1.0000
  O   O1        1.0  0.28932  0.49307  0.04805  1.0000
  O   O2        1.0  0.21068  0.00693  0.54805  1.0000
  O   O3        1.0  0.71068  0.50693  0.95195  1.0000
  O   O4        1.0  0.78932  0.99307  0.45195  1.0000
  O   O5        1.0  0.09181  0.38235  0.15232  1.0000
  O   O6        1.0  0.40819  0.11764  0.65232  1.0000
  O   O7        1.0  0.90819  0.61764  0.84768  1.0000
  O   O8        1.0  0.59181  0.88235  0.34768  1.0000
  O   O9        1.0  0.92005  0.09213  0.99968  1.0000
  O   O10       1.0  0.57995  0.40787  0.49968  1.0000
  O   O11       1.0  0.07995  0.90787  0.00032  1.0000
  O   O12       1.0  0.42005  0.59213  0.50032  1.0000
  O   O13       1.0  0.01827  0.19581  0.28266  1.0000
  O   O14       1.0  0.48173  0.30419  0.78266  1.0000
  O   O15       1.0  0.98173  0.80419  0.71734  1.0000
  O   O16       1.0  0.51827  0.69581  0.21734  1.0000
  O   O17       1.0  0.11004  0.05183  0.34729  1.0000
  O   O18       1.0  0.38996  0.44817  0.84729  1.0000
  O   O19       1.0  0.88996  0.94817  0.65271  1.0000
  O   O20       1.0  0.61004  0.55183  0.15271  1.0000
