data_image0
_chemical_formula_structural       Cu2H20C28Br8O16
_chemical_formula_sum              "Cu2 H20 C28 Br8 O16"
_cell_length_a       4.52683
_cell_length_b       13.0804
_cell_length_c       16.4204
_cell_angle_alpha    107.061
_cell_angle_beta     97.8859
_cell_angle_gamma    90.0246

_space_group_name_H-M_alt    "P 1"
_space_group_IT_number       1

loop_
  _space_group_symop_operation_xyz
  'x, y, z'

loop_
  _atom_site_type_symbol
  _atom_site_label
  _atom_site_symmetry_multiplicity
  _atom_site_fract_x
  _atom_site_fract_y
  _atom_site_fract_z
  _atom_site_occupancy
  Cu  Cu1       1.0  0.50000  0.50000  0.00000  1.0000
  Cu  Cu2       1.0  0.50001  0.00000  1.00000  1.0000
  H   H1        1.0  0.65094  0.67941  0.10981  1.0000
  H   H2        1.0  0.54210  0.82079  0.89018  1.0000
  H   H3        1.0  0.34907  0.32059  0.89019  1.0000
  H   H4        1.0  0.45790  0.17921  0.10982  1.0000
  H   H5        1.0  0.89326  0.63882  0.04316  1.0000
  H   H6        1.0  0.85055  0.86141  0.95697  1.0000
  H   H7        1.0  0.10674  0.36118  0.95684  1.0000
  H   H8        1.0  0.14945  0.13859  0.04303  1.0000
  H   H9        1.0  0.76822  0.30826  0.08288  1.0000
  H   H10       1.0  0.68631  0.19142  0.91698  1.0000
  H   H11       1.0  0.23179  0.69174  0.91712  1.0000
  H   H12       1.0  0.31369  0.80858  0.08302  1.0000
  H   H13       1.0  0.88033  0.44869  0.42284  1.0000
  H   H14       1.0  0.45945  0.05130  0.57702  1.0000
  H   H15       1.0  0.11967  0.55132  0.57716  1.0000
  H   H16       1.0  0.54055  0.94870  0.42298  1.0000
  H   H17       1.0  0.33686  0.57963  0.25837  1.0000
  H   H18       1.0  0.07993  0.92024  0.74128  1.0000
  H   H19       1.0  0.66312  0.42037  0.74163  1.0000
  H   H20       1.0  0.92008  0.07977  0.25872  1.0000
  C   C1        1.0  0.10991  0.43637  0.10773  1.0000
  C   C2        1.0  0.00313  0.06340  0.89208  1.0000
  C   C3        1.0  0.89009  0.56363  0.89227  1.0000
  C   C4        1.0  0.99688  0.93660  0.10792  1.0000
  C   C5        1.0  0.03921  0.44269  0.19453  1.0000
  C   C6        1.0  0.84626  0.05715  0.80527  1.0000
  C   C7        1.0  0.96078  0.55731  0.80547  1.0000
  C   C8        1.0  0.15374  0.94285  0.19473  1.0000
  C   C9        1.0  0.83488  0.36625  0.20384  1.0000
  C   C10       1.0  0.63283  0.13360  0.79602  1.0000
  C   C11       1.0  0.16512  0.63375  0.79615  1.0000
  C   C12       1.0  0.36717  0.86639  0.20398  1.0000
  C   C13       1.0  0.78423  0.36964  0.28708  1.0000
  C   C14       1.0  0.49915  0.13029  0.71281  1.0000
  C   C15       1.0  0.21576  0.63036  0.71292  1.0000
  C   C16       1.0  0.50085  0.86972  0.28719  1.0000
  C   C17       1.0  0.92349  0.44808  0.35912  1.0000
  C   C18       1.0  0.56632  0.05192  0.64071  1.0000
  C   C19       1.0  0.07649  0.55192  0.64088  1.0000
  C   C20       1.0  0.43367  0.94809  0.35929  1.0000
  C   C21       1.0  0.12004  0.52400  0.34820  1.0000
  C   C22       1.0  0.77349  0.97593  0.65157  1.0000
  C   C23       1.0  0.87995  0.47601  0.65180  1.0000
  C   C24       1.0  0.22652  0.02408  0.34843  1.0000
  C   C25       1.0  0.18056  0.52178  0.26713  1.0000
  C   C26       1.0  0.91498  0.97811  0.73261  1.0000
  C   C27       1.0  0.81943  0.47822  0.73287  1.0000
  C   C28       1.0  0.08502  0.02189  0.26739  1.0000
  Br  Br1       1.0  0.31403  0.63057  0.44731  1.0000
  Br  Br2       1.0  0.86767  0.86930  0.55237  1.0000
  Br  Br3       1.0  0.68595  0.36943  0.55269  1.0000
  Br  Br4       1.0  0.13232  0.13070  0.44763  1.0000
  Br  Br5       1.0  0.53226  0.26166  0.30058  1.0000
  Br  Br6       1.0  0.23369  0.23825  0.69941  1.0000
  Br  Br7       1.0  0.46774  0.73834  0.69942  1.0000
  Br  Br8       1.0  0.76630  0.76175  0.30059  1.0000
  O   O1        1.0  0.32801  0.49439  0.10231  1.0000
  O   O2        1.0  0.22653  0.00544  0.89754  1.0000
  O   O3        1.0  0.67200  0.50561  0.89769  1.0000
  O   O4        1.0  0.77347  0.99456  0.10246  1.0000
  O   O5        1.0  0.94898  0.37080  0.04198  1.0000
  O   O6        1.0  0.90741  0.12890  0.95780  1.0000
  O   O7        1.0  0.05102  0.62920  0.95802  1.0000
  O   O8        1.0  0.09259  0.87110  0.04220  1.0000
  O   O9        1.0  0.76052  0.61687  0.08006  1.0000
  O   O10       1.0  0.68137  0.88335  0.91999  1.0000
  O   O11       1.0  0.23950  0.38313  0.91994  1.0000
  O   O12       1.0  0.31864  0.11665  0.08001  1.0000
  O   O13       1.0  0.69557  0.29031  0.13421  1.0000
  O   O14       1.0  0.56274  0.20944  0.86566  1.0000
  O   O15       1.0  0.30443  0.70969  0.86579  1.0000
  O   O16       1.0  0.43726  0.79056  0.13434  1.0000
