data_image0
_chemical_formula_structural       Cd4H16C36N8O16
_chemical_formula_sum              "Cd4 H16 C36 N8 O16"
_cell_length_a       5.79928
_cell_length_b       10.744
_cell_length_c       13.7338
_cell_angle_alpha    95.3444
_cell_angle_beta     90.0003
_cell_angle_gamma    90.0002

_space_group_name_H-M_alt    "P 1"
_space_group_IT_number       1

loop_
  _space_group_symop_operation_xyz
  'x, y, z'

loop_
  _atom_site_type_symbol
  _atom_site_label
  _atom_site_symmetry_multiplicity
  _atom_site_fract_x
  _atom_site_fract_y
  _atom_site_fract_z
  _atom_site_occupancy
  Cd  Cd1       1.0  0.78529  0.74607  0.65662  1.0000
  Cd  Cd2       1.0  0.28529  0.75393  0.84338  1.0000
  Cd  Cd3       1.0  0.21471  0.25393  0.34338  1.0000
  Cd  Cd4       1.0  0.71471  0.24607  0.15662  1.0000
  H   H1        1.0  0.18272  0.08534  0.05446  1.0000
  H   H2        1.0  0.68272  0.41466  0.44554  1.0000
  H   H3        1.0  0.81728  0.91466  0.94554  1.0000
  H   H4        1.0  0.31727  0.58535  0.55446  1.0000
  H   H5        1.0  0.40459  0.14179  0.90762  1.0000
  H   H6        1.0  0.90459  0.35821  0.59237  1.0000
  H   H7        1.0  0.59541  0.85821  0.09238  1.0000
  H   H8        1.0  0.09541  0.64179  0.40763  1.0000
  H   H9        1.0  0.34457  0.33024  0.76570  1.0000
  H   H10       1.0  0.84457  0.16976  0.73429  1.0000
  H   H11       1.0  0.65543  0.66975  0.23430  1.0000
  H   H12       1.0  0.15542  0.83024  0.26571  1.0000
  H   H13       1.0  0.63866  0.42609  0.97383  1.0000
  H   H14       1.0  0.13865  0.07391  0.52617  1.0000
  H   H15       1.0  0.36134  0.57391  0.02617  1.0000
  H   H16       1.0  0.86134  0.92609  0.47383  1.0000
  C   C1        1.0  0.94613  0.31235  0.95109  1.0000
  C   C2        1.0  0.44611  0.18766  0.54892  1.0000
  C   C3        1.0  0.05389  0.68765  0.04892  1.0000
  C   C4        1.0  0.55389  0.81234  0.45108  1.0000
  C   C5        1.0  0.12927  0.15906  0.01000  1.0000
  C   C6        1.0  0.62926  0.34094  0.48999  1.0000
  C   C7        1.0  0.87074  0.84094  0.99000  1.0000
  C   C8        1.0  0.37074  0.65906  0.51001  1.0000
  C   C9        1.0  0.66307  0.56427  0.82162  1.0000
  C   C10       1.0  0.16306  0.93573  0.67838  1.0000
  C   C11       1.0  0.33694  0.43573  0.17838  1.0000
  C   C12       1.0  0.83694  0.06426  0.32161  1.0000
  C   C13       1.0  0.19231  0.35033  0.81099  1.0000
  C   C14       1.0  0.69231  0.14967  0.68901  1.0000
  C   C15       1.0  0.80770  0.64967  0.18901  1.0000
  C   C16       1.0  0.30769  0.85033  0.31099  1.0000
  C   C17       1.0  0.14358  0.28518  0.89191  1.0000
  C   C18       1.0  0.64357  0.21483  0.60809  1.0000
  C   C19       1.0  0.85643  0.71482  0.10809  1.0000
  C   C20       1.0  0.35643  0.78517  0.39190  1.0000
  C   C21       1.0  0.83895  0.47134  0.84892  1.0000
  C   C22       1.0  0.33894  0.02866  0.65108  1.0000
  C   C23       1.0  0.16106  0.52866  0.15108  1.0000
  C   C24       1.0  0.66104  0.97134  0.34892  1.0000
  C   C25       1.0  0.03869  0.44453  0.79041  1.0000
  C   C26       1.0  0.53869  0.05548  0.70960  1.0000
  C   C27       1.0  0.96131  0.55547  0.20959  1.0000
  C   C28       1.0  0.46130  0.94453  0.29041  1.0000
  C   C29       1.0  0.08861  0.51706  0.70455  1.0000
  C   C30       1.0  0.58860  0.98294  0.79546  1.0000
  C   C31       1.0  0.91140  0.48294  0.29545  1.0000
  C   C32       1.0  0.41140  0.01706  0.20455  1.0000
  C   C33       1.0  0.79269  0.40584  0.92985  1.0000
  C   C34       1.0  0.29267  0.09417  0.57015  1.0000
  C   C35       1.0  0.20732  0.59416  0.07015  1.0000
  C   C36       1.0  0.70732  0.90583  0.42985  1.0000
  N   N1        1.0  0.25351  0.18817  0.93193  1.0000
  N   N2        1.0  0.75350  0.31183  0.56807  1.0000
  N   N3        1.0  0.74649  0.81183  0.06807  1.0000
  N   N4        1.0  0.24649  0.68816  0.43193  1.0000
  N   N5        1.0  0.94337  0.23163  0.02469  1.0000
  N   N6        1.0  0.44336  0.26838  0.47531  1.0000
  N   N7        1.0  0.05664  0.76837  0.97531  1.0000
  N   N8        1.0  0.55664  0.73162  0.52469  1.0000
  O   O1        1.0  0.63270  0.58078  0.73178  1.0000
  O   O2        1.0  0.13270  0.91921  0.76822  1.0000
  O   O3        1.0  0.36730  0.41921  0.26822  1.0000
  O   O4        1.0  0.86728  0.08078  0.23178  1.0000
  O   O5        1.0  0.11753  0.45905  0.62197  1.0000
  O   O6        1.0  0.61751  0.04095  0.87803  1.0000
  O   O7        1.0  0.88248  0.54095  0.37803  1.0000
  O   O8        1.0  0.38248  0.95906  0.12197  1.0000
  O   O9        1.0  0.54554  0.61908  0.89185  1.0000
  O   O10       1.0  0.04552  0.88092  0.60815  1.0000
  O   O11       1.0  0.45447  0.38091  0.10814  1.0000
  O   O12       1.0  0.95448  0.11908  0.39184  1.0000
  O   O13       1.0  0.09970  0.63848  0.71901  1.0000
  O   O14       1.0  0.59970  0.86153  0.78099  1.0000
  O   O15       1.0  0.90030  0.36153  0.28099  1.0000
  O   O16       1.0  0.40029  0.13848  0.21901  1.0000
