data_image0
_chemical_formula_structural       Cu2H36C32O20
_chemical_formula_sum              "Cu2 H36 C32 O20"
_cell_length_a       3.75497
_cell_length_b       14.6203
_cell_length_c       14.5324
_cell_angle_alpha    95.6723
_cell_angle_beta     90.0002
_cell_angle_gamma    90

_space_group_name_H-M_alt    "P 1"
_space_group_IT_number       1

loop_
  _space_group_symop_operation_xyz
  'x, y, z'

loop_
  _atom_site_type_symbol
  _atom_site_label
  _atom_site_symmetry_multiplicity
  _atom_site_fract_x
  _atom_site_fract_y
  _atom_site_fract_z
  _atom_site_occupancy
  Cu  Cu1       1.0  0.00001  1.00000  0.00000  1.0000
  Cu  Cu2       1.0  0.50000  1.00000  0.50000  1.0000
  H   H1        1.0  0.49258  0.12308  0.97894  1.0000
  H   H2        1.0  0.99257  0.87692  0.52106  1.0000
  H   H3        1.0  0.50743  0.87692  0.02106  1.0000
  H   H4        1.0  0.00742  0.12308  0.47894  1.0000
  H   H5        1.0  0.32906  0.08268  0.87695  1.0000
  H   H6        1.0  0.82905  0.91732  0.62305  1.0000
  H   H7        1.0  0.67094  0.91732  0.12306  1.0000
  H   H8        1.0  0.17094  0.08268  0.37695  1.0000
  H   H9        1.0  0.81752  0.91482  0.79149  1.0000
  H   H10       1.0  0.31752  0.08518  0.70851  1.0000
  H   H11       1.0  0.18247  0.08518  0.20851  1.0000
  H   H12       1.0  0.68248  0.91482  0.29149  1.0000
  H   H13       1.0  0.62712  0.75727  0.59627  1.0000
  H   H14       1.0  0.12711  0.24273  0.90373  1.0000
  H   H15       1.0  0.37286  0.24273  0.40374  1.0000
  H   H16       1.0  0.87288  0.75727  0.09627  1.0000
  H   H17       1.0  0.16063  0.53960  0.72325  1.0000
  H   H18       1.0  0.66063  0.46040  0.77675  1.0000
  H   H19       1.0  0.83936  0.46040  0.27675  1.0000
  H   H20       1.0  0.33937  0.53960  0.22325  1.0000
  H   H21       1.0  0.29341  0.64984  0.86080  1.0000
  H   H22       1.0  0.79339  0.35016  0.63920  1.0000
  H   H23       1.0  0.70659  0.35016  0.13920  1.0000
  H   H24       1.0  0.20660  0.64984  0.36080  1.0000
  H   H25       1.0  0.39815  0.63081  0.51067  1.0000
  H   H26       1.0  0.89815  0.36919  0.98933  1.0000
  H   H27       1.0  0.60185  0.36919  0.48933  1.0000
  H   H28       1.0  0.10186  0.63081  0.01067  1.0000
  H   H29       1.0  0.68046  0.54983  0.44462  1.0000
  H   H30       1.0  0.18046  0.45017  0.05538  1.0000
  H   H31       1.0  0.31955  0.45017  0.55538  1.0000
  H   H32       1.0  0.81955  0.54983  0.94462  1.0000
  H   H33       1.0  0.82584  0.66660  0.47353  1.0000
  H   H34       1.0  0.32584  0.33340  0.02646  1.0000
  H   H35       1.0  0.17416  0.33341  0.52646  1.0000
  H   H36       1.0  0.67417  0.66660  0.97353  1.0000
  C   C1        1.0  0.11805  0.82812  0.89002  1.0000
  C   C2        1.0  0.61803  0.17188  0.60998  1.0000
  C   C3        1.0  0.88195  0.17188  0.10998  1.0000
  C   C4        1.0  0.38196  0.82812  0.39002  1.0000
  C   C5        1.0  0.03463  0.76462  0.80778  1.0000
  C   C6        1.0  0.53460  0.23538  0.69221  1.0000
  C   C7        1.0  0.96538  0.23538  0.19222  1.0000
  C   C8        1.0  0.46539  0.76462  0.30779  1.0000
  C   C9        1.0  0.85014  0.79367  0.73089  1.0000
  C   C10       1.0  0.35012  0.20633  0.76911  1.0000
  C   C11       1.0  0.14986  0.20634  0.26911  1.0000
  C   C12       1.0  0.64987  0.79367  0.23089  1.0000
  C   C13       1.0  0.77713  0.73284  0.65304  1.0000
  C   C14       1.0  0.27712  0.26717  0.84696  1.0000
  C   C15       1.0  0.22286  0.26716  0.34697  1.0000
  C   C16       1.0  0.72287  0.73284  0.15304  1.0000
  C   C17       1.0  0.88749  0.64149  0.65138  1.0000
  C   C18       1.0  0.38748  0.35850  0.84862  1.0000
  C   C19       1.0  0.11250  0.35851  0.34862  1.0000
  C   C20       1.0  0.61252  0.64150  0.15138  1.0000
  C   C21       1.0  0.07015  0.61064  0.72712  1.0000
  C   C22       1.0  0.57015  0.38936  0.77288  1.0000
  C   C23       1.0  0.92985  0.38936  0.27288  1.0000
  C   C24       1.0  0.42985  0.61064  0.22712  1.0000
  C   C25       1.0  0.14278  0.67204  0.80307  1.0000
  C   C26       1.0  0.64275  0.32796  0.69693  1.0000
  C   C27       1.0  0.85722  0.32796  0.19693  1.0000
  C   C28       1.0  0.35724  0.67204  0.30307  1.0000
  C   C29       1.0  0.67377  0.60890  0.49686  1.0000
  C   C30       1.0  0.17376  0.39111  0.00314  1.0000
  C   C31       1.0  0.32624  0.39111  0.50314  1.0000
  C   C32       1.0  0.82624  0.60890  0.99686  1.0000
  O   O1        1.0  0.99475  0.91237  0.88905  1.0000
  O   O2        1.0  0.49475  0.08763  0.61095  1.0000
  O   O3        1.0  0.00526  0.08763  0.11095  1.0000
  O   O4        1.0  0.50526  0.91237  0.38905  1.0000
  O   O5        1.0  0.29558  0.80246  0.95645  1.0000
  O   O6        1.0  0.79557  0.19753  0.54355  1.0000
  O   O7        1.0  0.70443  0.19753  0.04356  1.0000
  O   O8        1.0  0.20443  0.80246  0.45645  1.0000
  O   O9        1.0  0.38178  0.06772  0.94099  1.0000
  O   O10       1.0  0.88177  0.93228  0.55901  1.0000
  O   O11       1.0  0.61823  0.93228  0.05901  1.0000
  O   O12       1.0  0.11823  0.06772  0.44099  1.0000
  O   O13       1.0  0.73991  0.88269  0.72942  1.0000
  O   O14       1.0  0.23990  0.11731  0.77058  1.0000
  O   O15       1.0  0.26008  0.11731  0.27059  1.0000
  O   O16       1.0  0.76009  0.88269  0.22942  1.0000
  O   O17       1.0  0.83213  0.57763  0.57839  1.0000
  O   O18       1.0  0.33212  0.42237  0.92161  1.0000
  O   O19       1.0  0.16787  0.42237  0.42161  1.0000
  O   O20       1.0  0.66787  0.57763  0.07839  1.0000
