data_image0
_chemical_formula_structural       Mg2H40C28S4N4O20
_chemical_formula_sum              "Mg2 H40 C28 S4 N4 O20"
_cell_length_a       6.26572
_cell_length_b       11.4939
_cell_length_c       13.0214
_cell_angle_alpha    90.0002
_cell_angle_beta     89.9999
_cell_angle_gamma    93.2715

_space_group_name_H-M_alt    "P 1"
_space_group_IT_number       1

loop_
  _space_group_symop_operation_xyz
  'x, y, z'

loop_
  _atom_site_type_symbol
  _atom_site_label
  _atom_site_symmetry_multiplicity
  _atom_site_fract_x
  _atom_site_fract_y
  _atom_site_fract_z
  _atom_site_occupancy
  Mg  Mg1       1.0  0.50000  0.50000  0.00000  1.0000
  Mg  Mg2       1.0  0.00000  1.00000  0.50000  1.0000
  H   H1        1.0  0.45088  0.27188  0.17271  1.0000
  H   H2        1.0  0.04913  0.22812  0.67270  1.0000
  H   H3        1.0  0.54913  0.72812  0.82729  1.0000
  H   H4        1.0  0.95087  0.77188  0.32729  1.0000
  H   H5        1.0  0.07907  0.03041  0.23742  1.0000
  H   H6        1.0  0.42093  0.46960  0.73742  1.0000
  H   H7        1.0  0.92093  0.96960  0.76258  1.0000
  H   H8        1.0  0.57906  0.53040  0.26258  1.0000
  H   H9        1.0  0.10654  0.17331  0.20968  1.0000
  H   H10       1.0  0.39346  0.32669  0.70968  1.0000
  H   H11       1.0  0.89347  0.82669  0.79033  1.0000
  H   H12       1.0  0.60653  0.67330  0.29033  1.0000
  H   H13       1.0  0.34956  0.89838  0.18278  1.0000
  H   H14       1.0  0.15044  0.60163  0.68278  1.0000
  H   H15       1.0  0.65045  0.10162  0.81722  1.0000
  H   H16       1.0  0.84955  0.39837  0.31722  1.0000
  H   H17       1.0  0.06952  0.12909  0.01095  1.0000
  H   H18       1.0  0.43047  0.37092  0.51097  1.0000
  H   H19       1.0  0.93048  0.87092  0.98903  1.0000
  H   H20       1.0  0.56951  0.62909  0.48904  1.0000
  H   H21       1.0  0.68492  0.87793  0.09215  1.0000
  H   H22       1.0  0.81508  0.62207  0.59215  1.0000
  H   H23       1.0  0.31508  0.12207  0.90785  1.0000
  H   H24       1.0  0.18491  0.37793  0.40785  1.0000
  H   H25       1.0  0.80817  0.66808  0.03811  1.0000
  H   H26       1.0  0.69184  0.83192  0.53811  1.0000
  H   H27       1.0  0.19183  0.33193  0.96189  1.0000
  H   H28       1.0  0.30817  0.16808  0.46189  1.0000
  H   H29       1.0  0.67688  0.63353  0.13644  1.0000
  H   H30       1.0  0.82312  0.86647  0.63644  1.0000
  H   H31       1.0  0.32312  0.36647  0.86357  1.0000
  H   H32       1.0  0.17688  0.13353  0.36357  1.0000
  H   H33       1.0  0.79368  0.42001  0.88842  1.0000
  H   H34       1.0  0.70632  0.07999  0.38842  1.0000
  H   H35       1.0  0.20632  0.57999  0.11159  1.0000
  H   H36       1.0  0.29368  0.92001  0.61158  1.0000
  H   H37       1.0  0.81111  0.55550  0.86290  1.0000
  H   H38       1.0  0.68888  0.94450  0.36289  1.0000
  H   H39       1.0  0.18888  0.44450  0.13711  1.0000
  H   H40       1.0  0.31112  0.05550  0.63711  1.0000
  C   C1        1.0  0.69312  0.17319  0.10259  1.0000
  C   C2        1.0  0.80688  0.32681  0.60260  1.0000
  C   C3        1.0  0.30688  0.82681  0.89740  1.0000
  C   C4        1.0  0.19312  0.67318  0.39740  1.0000
  C   C5        1.0  0.37459  0.08700  0.18466  1.0000
  C   C6        1.0  0.12542  0.41301  0.68467  1.0000
  C   C7        1.0  0.62542  0.91301  0.81533  1.0000
  C   C8        1.0  0.87457  0.58698  0.31534  1.0000
  C   C9        1.0  0.50257  0.18526  0.15556  1.0000
  C   C10       1.0  0.99744  0.31474  0.65555  1.0000
  C   C11       1.0  0.49744  0.81474  0.84444  1.0000
  C   C12       1.0  0.00256  0.68526  0.34444  1.0000
  C   C13       1.0  0.44626  0.97643  0.16133  1.0000
  C   C14       1.0  0.05374  0.52357  0.66133  1.0000
  C   C15       1.0  0.55374  0.02357  0.83866  1.0000
  C   C16       1.0  0.94626  0.47642  0.33867  1.0000
  C   C17       1.0  0.76835  0.06275  0.07677  1.0000
  C   C18       1.0  0.73165  0.43725  0.57677  1.0000
  C   C19       1.0  0.23166  0.93725  0.92323  1.0000
  C   C20       1.0  0.26833  0.56275  0.42323  1.0000
  C   C21       1.0  0.96689  0.05015  0.02034  1.0000
  C   C22       1.0  0.53311  0.44985  0.52034  1.0000
  C   C23       1.0  0.03312  0.94985  0.97966  1.0000
  C   C24       1.0  0.46687  0.55015  0.47966  1.0000
  C   C25       1.0  0.63739  0.96557  0.10944  1.0000
  C   C26       1.0  0.86261  0.53444  0.60945  1.0000
  C   C27       1.0  0.36262  0.03443  0.89055  1.0000
  C   C28       1.0  0.13738  0.46556  0.39056  1.0000
  S   S1        1.0  0.83832  0.30563  0.07102  1.0000
  S   S2        1.0  0.66168  0.19437  0.57102  1.0000
  S   S3        1.0  0.16168  0.69437  0.92898  1.0000
  S   S4        1.0  0.33831  0.80563  0.42898  1.0000
  N   N1        1.0  0.18199  0.10229  0.23643  1.0000
  N   N2        1.0  0.31802  0.39771  0.73643  1.0000
  N   N3        1.0  0.81802  0.89771  0.76357  1.0000
  N   N4        1.0  0.68198  0.60228  0.26357  1.0000
  O   O1        1.0  0.69701  0.40067  0.09336  1.0000
  O   O2        1.0  0.80300  0.09933  0.59336  1.0000
  O   O3        1.0  0.30298  0.59933  0.90665  1.0000
  O   O4        1.0  0.19701  0.90067  0.40664  1.0000
  O   O5        1.0  0.89937  0.30251  0.96125  1.0000
  O   O6        1.0  0.60064  0.19750  0.46124  1.0000
  O   O7        1.0  0.10064  0.69751  0.03876  1.0000
  O   O8        1.0  0.39936  0.80249  0.53876  1.0000
  O   O9        1.0  0.66024  0.64793  0.06000  1.0000
  O   O10       1.0  0.83976  0.85207  0.56000  1.0000
  O   O11       1.0  0.33976  0.35207  0.94001  1.0000
  O   O12       1.0  0.16024  0.14793  0.44001  1.0000
  O   O13       1.0  0.70821  0.48827  0.87539  1.0000
  O   O14       1.0  0.79179  0.01173  0.37539  1.0000
  O   O15       1.0  0.29178  0.51173  0.12461  1.0000
  O   O16       1.0  0.20822  0.98827  0.62461  1.0000
  O   O17       1.0  0.02908  0.31202  0.13813  1.0000
  O   O18       1.0  0.47092  0.18798  0.63813  1.0000
  O   O19       1.0  0.97092  0.68798  0.86187  1.0000
  O   O20       1.0  0.52908  0.81201  0.36186  1.0000
