data_image0
_chemical_formula_structural       Co2H28C28N8O8
_chemical_formula_sum              "Co2 H28 C28 N8 O8"
_cell_length_a       7.40009
_cell_length_b       10.0142
_cell_length_c       10.1526
_cell_angle_alpha    89.9994
_cell_angle_beta     107.836
_cell_angle_gamma    90.0035

_space_group_name_H-M_alt    "P 1"
_space_group_IT_number       1

loop_
  _space_group_symop_operation_xyz
  'x, y, z'

loop_
  _atom_site_type_symbol
  _atom_site_label
  _atom_site_symmetry_multiplicity
  _atom_site_fract_x
  _atom_site_fract_y
  _atom_site_fract_z
  _atom_site_occupancy
  Co  Co1       1.0  0.00000  0.00000  0.00000  1.0000
  Co  Co2       1.0  0.00000  0.50000  0.50000  1.0000
  H   H1        1.0  0.02129  0.28146  0.60003  1.0000
  H   H2        1.0  0.97866  0.78144  0.90001  1.0000
  H   H3        1.0  0.97871  0.71854  0.39997  1.0000
  H   H4        1.0  0.02134  0.21856  0.09999  1.0000
  H   H5        1.0  0.79942  0.34204  0.56830  1.0000
  H   H6        1.0  0.20053  0.84202  0.93170  1.0000
  H   H7        1.0  0.20058  0.65796  0.43170  1.0000
  H   H8        1.0  0.79947  0.15798  0.06830  1.0000
  H   H9        1.0  0.90744  0.85950  0.20319  1.0000
  H   H10       1.0  0.09267  0.35945  0.29690  1.0000
  H   H11       1.0  0.09256  0.14049  0.79681  1.0000
  H   H12       1.0  0.90733  0.64055  0.70310  1.0000
  H   H13       1.0  0.10500  0.94483  0.28248  1.0000
  H   H14       1.0  0.89508  0.44469  0.21754  1.0000
  H   H15       1.0  0.89500  0.05517  0.71752  1.0000
  H   H16       1.0  0.10493  0.55531  0.78246  1.0000
  H   H17       1.0  0.53756  0.29795  0.37994  1.0000
  H   H18       1.0  0.46243  0.79800  0.12009  1.0000
  H   H19       1.0  0.46244  0.70205  0.62006  1.0000
  H   H20       1.0  0.53757  0.20200  0.87991  1.0000
  H   H21       1.0  0.09229  0.13231  0.42616  1.0000
  H   H22       1.0  0.90770  0.63224  0.07388  1.0000
  H   H23       1.0  0.90771  0.86769  0.57384  1.0000
  H   H24       1.0  0.09230  0.36776  0.92613  1.0000
  H   H25       1.0  0.59840  0.97377  0.11920  1.0000
  H   H26       1.0  0.40167  0.47372  0.38080  1.0000
  H   H27       1.0  0.40160  0.02623  0.88080  1.0000
  H   H28       1.0  0.59834  0.52628  0.61921  1.0000
  C   C1        1.0  0.33405  0.13673  0.17954  1.0000
  C   C2        1.0  0.66596  0.63677  0.32049  1.0000
  C   C3        1.0  0.66595  0.86327  0.82046  1.0000
  C   C4        1.0  0.33404  0.36323  0.67951  1.0000
  C   C5        1.0  0.54564  0.13530  0.24358  1.0000
  C   C6        1.0  0.45436  0.63531  0.25642  1.0000
  C   C7        1.0  0.45436  0.86470  0.75642  1.0000
  C   C8        1.0  0.54564  0.36469  0.74358  1.0000
  C   C9        1.0  0.62767  0.22713  0.34848  1.0000
  C   C10       1.0  0.37232  0.72714  0.15153  1.0000
  C   C11       1.0  0.37233  0.77287  0.65152  1.0000
  C   C12       1.0  0.62768  0.27286  0.84847  1.0000
  C   C13       1.0  0.82364  0.22593  0.41377  1.0000
  C   C14       1.0  0.17634  0.72592  0.08626  1.0000
  C   C15       1.0  0.17636  0.77407  0.58623  1.0000
  C   C16       1.0  0.82367  0.27408  0.91374  1.0000
  C   C17       1.0  0.93958  0.13366  0.37421  1.0000
  C   C18       1.0  0.06043  0.63362  0.12583  1.0000
  C   C19       1.0  0.06042  0.86634  0.62579  1.0000
  C   C20       1.0  0.93957  0.36639  0.87417  1.0000
  C   C21       1.0  0.85731  0.04152  0.26868  1.0000
  C   C22       1.0  0.14272  0.54147  0.23134  1.0000
  C   C23       1.0  0.14269  0.95847  0.73132  1.0000
  C   C24       1.0  0.85728  0.45852  0.76867  1.0000
  C   C25       1.0  0.66042  0.04339  0.20291  1.0000
  C   C26       1.0  0.33962  0.54335  0.29709  1.0000
  C   C27       1.0  0.33958  0.95660  0.79709  1.0000
  C   C28       1.0  0.66038  0.45665  0.70291  1.0000
  N   N1        1.0  0.90172  0.31753  0.52346  1.0000
  N   N2        1.0  0.09825  0.81751  0.97657  1.0000
  N   N3        1.0  0.09829  0.68248  0.47654  1.0000
  N   N4        1.0  0.90175  0.18249  0.02343  1.0000
  N   N5        1.0  0.96883  0.95221  0.21900  1.0000
  N   N6        1.0  0.03123  0.45213  0.28103  1.0000
  N   N7        1.0  0.03117  0.04779  0.78100  1.0000
  N   N8        1.0  0.96877  0.54787  0.71897  1.0000
  O   O1        1.0  0.26397  0.04738  0.08604  1.0000
  O   O2        1.0  0.73606  0.54735  0.41391  1.0000
  O   O3        1.0  0.73603  0.95263  0.91396  1.0000
  O   O4        1.0  0.26394  0.45265  0.58609  1.0000
  O   O5        1.0  0.23850  0.22270  0.22114  1.0000
  O   O6        1.0  0.76151  0.72280  0.27895  1.0000
  O   O7        1.0  0.76150  0.77730  0.77886  1.0000
  O   O8        1.0  0.23850  0.27720  0.72105  1.0000
