data_image0
_chemical_formula_structural       Co2H28C28N8O8
_chemical_formula_sum              "Co2 H28 C28 N8 O8"
_cell_length_a       7.42071
_cell_length_b       9.96047
_cell_length_c       10.1066
_cell_angle_alpha    89.9987
_cell_angle_beta     108.035
_cell_angle_gamma    90.0015

_space_group_name_H-M_alt    "P 1"
_space_group_IT_number       1

loop_
  _space_group_symop_operation_xyz
  'x, y, z'

loop_
  _atom_site_type_symbol
  _atom_site_label
  _atom_site_symmetry_multiplicity
  _atom_site_fract_x
  _atom_site_fract_y
  _atom_site_fract_z
  _atom_site_occupancy
  Co  Co1       1.0  1.00000  0.50000  0.50000  1.0000
  Co  Co2       1.0  0.00000  0.00000  1.00000  1.0000
  H   H1        1.0  0.19901  0.65756  0.42914  1.0000
  H   H2        1.0  0.80100  0.15756  0.07087  1.0000
  H   H3        1.0  0.80099  0.34244  0.57087  1.0000
  H   H4        1.0  0.19901  0.84244  0.92913  1.0000
  H   H5        1.0  0.97697  0.71833  0.39597  1.0000
  H   H6        1.0  0.02303  0.21833  0.10401  1.0000
  H   H7        1.0  0.02303  0.28167  0.60402  1.0000
  H   H8        1.0  0.97697  0.78167  0.89598  1.0000
  H   H9        1.0  0.91082  0.64319  0.70343  1.0000
  H   H10       1.0  0.08919  0.14319  0.79657  1.0000
  H   H11       1.0  0.08918  0.35681  0.29657  1.0000
  H   H12       1.0  0.91081  0.85682  0.20343  1.0000
  H   H13       1.0  0.10703  0.55541  0.78309  1.0000
  H   H14       1.0  0.89299  0.05540  0.71690  1.0000
  H   H15       1.0  0.89297  0.44459  0.21691  1.0000
  H   H16       1.0  0.10702  0.94460  0.28310  1.0000
  H   H17       1.0  0.90633  0.86846  0.57227  1.0000
  H   H18       1.0  0.09367  0.36845  0.92772  1.0000
  H   H19       1.0  0.09367  0.13155  0.42773  1.0000
  H   H20       1.0  0.90633  0.63155  0.07227  1.0000
  H   H21       1.0  0.46040  0.70493  0.61616  1.0000
  H   H22       1.0  0.53957  0.20495  0.88384  1.0000
  H   H23       1.0  0.53959  0.29506  0.38384  1.0000
  H   H24       1.0  0.46041  0.79506  0.11616  1.0000
  H   H25       1.0  0.59937  0.53014  0.62082  1.0000
  H   H26       1.0  0.40065  0.03013  0.87918  1.0000
  H   H27       1.0  0.40063  0.46985  0.37917  1.0000
  H   H28       1.0  0.59937  0.96987  0.12083  1.0000
  C   C1        1.0  0.05909  0.86810  0.62363  1.0000
  C   C2        1.0  0.94090  0.36809  0.87636  1.0000
  C   C3        1.0  0.94092  0.13191  0.37637  1.0000
  C   C4        1.0  0.05909  0.63191  0.12364  1.0000
  C   C5        1.0  0.17472  0.77614  0.58301  1.0000
  C   C6        1.0  0.82526  0.27613  0.91699  1.0000
  C   C7        1.0  0.82528  0.22386  0.41699  1.0000
  C   C8        1.0  0.17473  0.72387  0.08302  1.0000
  C   C9        1.0  0.37062  0.77593  0.64794  1.0000
  C   C10       1.0  0.62937  0.27593  0.85206  1.0000
  C   C11       1.0  0.62938  0.22407  0.35206  1.0000
  C   C12       1.0  0.37063  0.72408  0.14795  1.0000
  C   C13       1.0  0.66431  0.86562  0.81818  1.0000
  C   C14       1.0  0.33569  0.36564  0.68182  1.0000
  C   C15       1.0  0.33570  0.13437  0.18181  1.0000
  C   C16       1.0  0.66431  0.63436  0.31818  1.0000
  C   C17       1.0  0.14147  0.96094  0.72962  1.0000
  C   C18       1.0  0.85855  0.46094  0.77037  1.0000
  C   C19       1.0  0.85855  0.03906  0.27038  1.0000
  C   C20       1.0  0.14145  0.53906  0.22963  1.0000
  C   C21       1.0  0.45293  0.86803  0.75371  1.0000
  C   C22       1.0  0.54708  0.36803  0.74630  1.0000
  C   C23       1.0  0.54708  0.13197  0.24629  1.0000
  C   C24       1.0  0.45292  0.63197  0.25371  1.0000
  C   C25       1.0  0.66156  0.46001  0.70491  1.0000
  C   C26       1.0  0.33844  0.96001  0.79508  1.0000
  C   C27       1.0  0.33843  0.53999  0.29508  1.0000
  C   C28       1.0  0.66157  0.03999  0.20492  1.0000
  N   N1        1.0  0.09685  0.68319  0.47352  1.0000
  N   N2        1.0  0.90314  0.18318  0.02648  1.0000
  N   N3        1.0  0.90315  0.31681  0.52648  1.0000
  N   N4        1.0  0.09686  0.81682  0.97352  1.0000
  N   N5        1.0  0.02959  0.04947  0.78017  1.0000
  N   N6        1.0  0.97042  0.54947  0.71983  1.0000
  N   N7        1.0  0.97042  0.95053  0.21984  1.0000
  N   N8        1.0  0.02957  0.45052  0.28017  1.0000
  O   O1        1.0  0.75853  0.77923  0.77545  1.0000
  O   O2        1.0  0.24146  0.27925  0.72457  1.0000
  O   O3        1.0  0.24148  0.22077  0.22454  1.0000
  O   O4        1.0  0.75853  0.72075  0.27544  1.0000
  O   O5        1.0  0.73563  0.95446  0.91305  1.0000
  O   O6        1.0  0.26437  0.45447  0.58695  1.0000
  O   O7        1.0  0.26438  0.04554  0.08695  1.0000
  O   O8        1.0  0.73562  0.54552  0.41304  1.0000
