data_image0
_chemical_formula_structural       K4H16C48N28O48
_chemical_formula_sum              "K4 H16 C48 N28 O48"
_cell_length_a       11.0097
_cell_length_b       12.2339
_cell_length_c       13.02
_cell_angle_alpha    90
_cell_angle_beta     90.0001
_cell_angle_gamma    94.3564

_space_group_name_H-M_alt    "P 1"
_space_group_IT_number       1

loop_
  _space_group_symop_operation_xyz
  'x, y, z'

loop_
  _atom_site_type_symbol
  _atom_site_label
  _atom_site_symmetry_multiplicity
  _atom_site_fract_x
  _atom_site_fract_y
  _atom_site_fract_z
  _atom_site_occupancy
  K   K1        1.0  0.84851  0.60316  0.51529  1.0000
  K   K2        1.0  0.65149  0.89684  0.01529  1.0000
  K   K3        1.0  0.15148  0.39684  0.48471  1.0000
  K   K4        1.0  0.34852  0.10316  0.98471  1.0000
  H   H1        1.0  0.46668  0.62126  0.69692  1.0000
  H   H2        1.0  0.03332  0.87874  0.19692  1.0000
  H   H3        1.0  0.53332  0.37874  0.30308  1.0000
  H   H4        1.0  0.96668  0.12126  0.80308  1.0000
  H   H5        1.0  0.89388  0.08728  0.52110  1.0000
  H   H6        1.0  0.60612  0.41272  0.02110  1.0000
  H   H7        1.0  0.10612  0.91272  0.47890  1.0000
  H   H8        1.0  0.39388  0.58729  0.97890  1.0000
  H   H9        1.0  0.79034  0.56030  0.86730  1.0000
  H   H10       1.0  0.70966  0.93970  0.36730  1.0000
  H   H11       1.0  0.20966  0.43970  0.13270  1.0000
  H   H12       1.0  0.29034  0.06030  0.63270  1.0000
  H   H13       1.0  0.63338  0.91819  0.72467  1.0000
  H   H14       1.0  0.86662  0.58181  0.22467  1.0000
  H   H15       1.0  0.36662  0.08181  0.27533  1.0000
  H   H16       1.0  0.13338  0.41819  0.77533  1.0000
  C   C1        1.0  0.61677  0.38098  0.71024  1.0000
  C   C2        1.0  0.88323  0.11902  0.21024  1.0000
  C   C3        1.0  0.38323  0.61902  0.28976  1.0000
  C   C4        1.0  0.11677  0.88098  0.78976  1.0000
  C   C5        1.0  0.71071  0.42414  0.78180  1.0000
  C   C6        1.0  0.78929  0.07586  0.28180  1.0000
  C   C7        1.0  0.28929  0.57587  0.21820  1.0000
  C   C8        1.0  0.21071  0.92413  0.71820  1.0000
  C   C9        1.0  0.53055  0.46064  0.68236  1.0000
  C   C10       1.0  0.96945  0.03936  0.18236  1.0000
  C   C11       1.0  0.46945  0.53936  0.31764  1.0000
  C   C12       1.0  0.03055  0.96064  0.81764  1.0000
  C   C13       1.0  0.66942  0.99273  0.68643  1.0000
  C   C14       1.0  0.83058  0.50727  0.18642  1.0000
  C   C15       1.0  0.33058  0.00727  0.31358  1.0000
  C   C16       1.0  0.16942  0.49273  0.81358  1.0000
  C   C17       1.0  0.53391  0.56564  0.72119  1.0000
  C   C18       1.0  0.96610  0.93436  0.22119  1.0000
  C   C19       1.0  0.46609  0.43436  0.27881  1.0000
  C   C20       1.0  0.03391  0.06564  0.77881  1.0000
  C   C21       1.0  0.62824  0.60068  0.78795  1.0000
  C   C22       1.0  0.87176  0.89932  0.28795  1.0000
  C   C23       1.0  0.37176  0.39932  0.21205  1.0000
  C   C24       1.0  0.12824  0.10068  0.71205  1.0000
  C   C25       1.0  0.71661  0.53091  0.81661  1.0000
  C   C26       1.0  0.78339  0.96909  0.31661  1.0000
  C   C27       1.0  0.28339  0.46909  0.18339  1.0000
  C   C28       1.0  0.21661  0.03091  0.68339  1.0000
  C   C29       1.0  0.76542  0.99155  0.61667  1.0000
  C   C30       1.0  0.73458  0.50845  0.11667  1.0000
  C   C31       1.0  0.23458  0.00845  0.38333  1.0000
  C   C32       1.0  0.26542  0.49155  0.88333  1.0000
  C   C33       1.0  0.81542  0.08804  0.57176  1.0000
  C   C34       1.0  0.68458  0.41196  0.07176  1.0000
  C   C35       1.0  0.18458  0.91196  0.42823  1.0000
  C   C36       1.0  0.31542  0.58804  0.92824  1.0000
  C   C37       1.0  0.66180  0.19421  0.65994  1.0000
  C   C38       1.0  0.83820  0.30579  0.15994  1.0000
  C   C39       1.0  0.33820  0.80579  0.34006  1.0000
  C   C40       1.0  0.16181  0.69421  0.84006  1.0000
  C   C41       1.0  0.76643  0.18671  0.59300  1.0000
  C   C42       1.0  0.73357  0.31329  0.09300  1.0000
  C   C43       1.0  0.23357  0.81329  0.40700  1.0000
  C   C44       1.0  0.26643  0.68671  0.90700  1.0000
  C   C45       1.0  0.61994  0.09047  0.70646  1.0000
  C   C46       1.0  0.88006  0.40953  0.20646  1.0000
  C   C47       1.0  0.38006  0.90953  0.29354  1.0000
  C   C48       1.0  0.11994  0.59047  0.79354  1.0000
  N   N1        1.0  0.60336  0.28176  0.67520  1.0000
  N   N2        1.0  0.89664  0.21824  0.17519  1.0000
  N   N3        1.0  0.39664  0.71824  0.32481  1.0000
  N   N4        1.0  0.10336  0.78176  0.82481  1.0000
  N   N5        1.0  0.80503  0.35831  0.82200  1.0000
  N   N6        1.0  0.69497  0.14169  0.32200  1.0000
  N   N7        1.0  0.19497  0.64169  0.17800  1.0000
  N   N8        1.0  0.30503  0.85831  0.67800  1.0000
  N   N9        1.0  0.43689  0.43365  0.60578  1.0000
  N   N10       1.0  0.06311  0.06635  0.10578  1.0000
  N   N11       1.0  0.56311  0.56635  0.39422  1.0000
  N   N12       1.0  0.93689  0.93365  0.89422  1.0000
  N   N13       1.0  0.81496  0.88857  0.59252  1.0000
  N   N14       1.0  0.68504  0.61143  0.09252  1.0000
  N   N15       1.0  0.18504  0.11143  0.40748  1.0000
  N   N16       1.0  0.31496  0.38857  0.90748  1.0000
  N   N17       1.0  0.82756  0.28331  0.54553  1.0000
  N   N18       1.0  0.67244  0.21669  0.04553  1.0000
  N   N19       1.0  0.17244  0.71669  0.45447  1.0000
  N   N20       1.0  0.32756  0.78331  0.95447  1.0000
  N   N21       1.0  0.52596  0.08683  0.78441  1.0000
  N   N22       1.0  0.97404  0.41317  0.28441  1.0000
  N   N23       1.0  0.47404  0.91317  0.21559  1.0000
  N   N24       1.0  0.02596  0.58683  0.71559  1.0000
  N   N25       1.0  0.63549  0.70996  0.82772  1.0000
  N   N26       1.0  0.86451  0.79004  0.32772  1.0000
  N   N27       1.0  0.36451  0.29004  0.17228  1.0000
  N   N28       1.0  0.13549  0.20996  0.67228  1.0000
  O   O1        1.0  0.76037  0.80240  0.62504  1.0000
  O   O2        1.0  0.73962  0.69760  0.12504  1.0000
  O   O3        1.0  0.23962  0.19760  0.37496  1.0000
  O   O4        1.0  0.26038  0.30240  0.87496  1.0000
  O   O5        1.0  0.45773  0.36845  0.53615  1.0000
  O   O6        1.0  0.04227  0.13155  0.03615  1.0000
  O   O7        1.0  0.54227  0.63155  0.46385  1.0000
  O   O8        1.0  0.95773  0.86845  0.96385  1.0000
  O   O9        1.0  0.34039  0.48086  0.61298  1.0000
  O   O10       1.0  0.15961  0.01914  0.11298  1.0000
  O   O11       1.0  0.65961  0.51914  0.38702  1.0000
  O   O12       1.0  0.84039  0.98086  0.88702  1.0000
  O   O13       1.0  0.90919  0.89086  0.53924  1.0000
  O   O14       1.0  0.59081  0.60914  0.03923  1.0000
  O   O15       1.0  0.09080  0.10914  0.46076  1.0000
  O   O16       1.0  0.40919  0.39086  0.96076  1.0000
  O   O17       1.0  0.78730  0.25656  0.82108  1.0000
  O   O18       1.0  0.71270  0.24344  0.32108  1.0000
  O   O19       1.0  0.21270  0.74344  0.17892  1.0000
  O   O20       1.0  0.28730  0.75656  0.67892  1.0000
  O   O21       1.0  0.89822  0.40741  0.85886  1.0000
  O   O22       1.0  0.60178  0.09259  0.35886  1.0000
  O   O23       1.0  0.10177  0.59259  0.14114  1.0000
  O   O24       1.0  0.39822  0.90741  0.64114  1.0000
  O   O25       1.0  0.90648  0.26978  0.47935  1.0000
  O   O26       1.0  0.59352  0.23022  0.97935  1.0000
  O   O27       1.0  0.09352  0.73022  0.52065  1.0000
  O   O28       1.0  0.40648  0.76978  0.02065  1.0000
  O   O29       1.0  0.80021  0.37558  0.57393  1.0000
  O   O30       1.0  0.69979  0.12442  0.07393  1.0000
  O   O31       1.0  0.19979  0.62442  0.42607  1.0000
  O   O32       1.0  0.30021  0.87558  0.92607  1.0000
  O   O33       1.0  0.52979  0.01636  0.85356  1.0000
  O   O34       1.0  0.97021  0.48364  0.35356  1.0000
  O   O35       1.0  0.47021  0.98364  0.14644  1.0000
  O   O36       1.0  0.02979  0.51636  0.64644  1.0000
  O   O37       1.0  0.72798  0.74233  0.87803  1.0000
  O   O38       1.0  0.77202  0.75767  0.37803  1.0000
  O   O39       1.0  0.27203  0.25767  0.12197  1.0000
  O   O40       1.0  0.22798  0.24233  0.62197  1.0000
  O   O41       1.0  0.44545  0.15257  0.77987  1.0000
  O   O42       1.0  0.05455  0.34743  0.27987  1.0000
  O   O43       1.0  0.55455  0.84743  0.22013  1.0000
  O   O44       1.0  0.94544  0.65257  0.72013  1.0000
  O   O45       1.0  0.54859  0.76777  0.81150  1.0000
  O   O46       1.0  0.95141  0.73223  0.31150  1.0000
  O   O47       1.0  0.45141  0.23224  0.18850  1.0000
  O   O48       1.0  0.04859  0.26777  0.68850  1.0000
