data_image0
_chemical_formula_structural       Rb4H16C48N28O48
_chemical_formula_sum              "Rb4 H16 C48 N28 O48"
_cell_length_a       11.0334
_cell_length_b       12.311
_cell_length_c       13.2783
_cell_angle_alpha    90
_cell_angle_beta     90
_cell_angle_gamma    94.0457

_space_group_name_H-M_alt    "P 1"
_space_group_IT_number       1

loop_
  _space_group_symop_operation_xyz
  'x, y, z'

loop_
  _atom_site_type_symbol
  _atom_site_label
  _atom_site_symmetry_multiplicity
  _atom_site_fract_x
  _atom_site_fract_y
  _atom_site_fract_z
  _atom_site_occupancy
  Rb  Rb1       1.0  0.15205  0.89688  0.98620  1.0000
  Rb  Rb2       1.0  0.34794  0.60312  0.48620  1.0000
  Rb  Rb3       1.0  0.84795  0.10312  0.01380  1.0000
  Rb  Rb4       1.0  0.65205  0.39688  0.51380  1.0000
  H   H1        1.0  0.36379  0.58089  0.77894  1.0000
  H   H2        1.0  0.13621  0.91911  0.27894  1.0000
  H   H3        1.0  0.63621  0.41911  0.22106  1.0000
  H   H4        1.0  0.86378  0.08089  0.72106  1.0000
  H   H5        1.0  0.52345  0.88130  0.79773  1.0000
  H   H6        1.0  0.97655  0.61870  0.29773  1.0000
  H   H7        1.0  0.47655  0.11870  0.20226  1.0000
  H   H8        1.0  0.02345  0.38130  0.70227  1.0000
  H   H9        1.0  0.10821  0.41913  0.98558  1.0000
  H   H10       1.0  0.39179  0.08087  0.48558  1.0000
  H   H11       1.0  0.89179  0.58087  0.01442  1.0000
  H   H12       1.0  0.60821  0.91913  0.51442  1.0000
  H   H13       1.0  0.19886  0.94501  0.63350  1.0000
  H   H14       1.0  0.30114  0.55499  0.13350  1.0000
  H   H15       1.0  0.80114  0.05499  0.36650  1.0000
  H   H16       1.0  0.69886  0.44501  0.86650  1.0000
  C   C1        1.0  0.37198  0.12033  0.78949  1.0000
  C   C2        1.0  0.12802  0.37967  0.28949  1.0000
  C   C3        1.0  0.62802  0.87967  0.21051  1.0000
  C   C4        1.0  0.87198  0.62033  0.71051  1.0000
  C   C5        1.0  0.18437  0.41659  0.93372  1.0000
  C   C6        1.0  0.31563  0.08341  0.43372  1.0000
  C   C7        1.0  0.81563  0.58341  0.06628  1.0000
  C   C8        1.0  0.68437  0.91659  0.56628  1.0000
  C   C9        1.0  0.45568  0.93683  0.77518  1.0000
  C   C10       1.0  0.04432  0.56317  0.27518  1.0000
  C   C11       1.0  0.54431  0.06317  0.22482  1.0000
  C   C12       1.0  0.95569  0.43683  0.72483  1.0000
  C   C13       1.0  0.23071  0.31766  0.91187  1.0000
  C   C14       1.0  0.26929  0.18234  0.41187  1.0000
  C   C15       1.0  0.76929  0.68234  0.08813  1.0000
  C   C16       1.0  0.73071  0.81765  0.58813  1.0000
  C   C17       1.0  0.45868  0.04047  0.81490  1.0000
  C   C18       1.0  0.04133  0.45953  0.31490  1.0000
  C   C19       1.0  0.54133  0.95953  0.18510  1.0000
  C   C20       1.0  0.95868  0.54047  0.68510  1.0000
  C   C21       1.0  0.27260  0.97316  0.68338  1.0000
  C   C22       1.0  0.22740  0.52684  0.18338  1.0000
  C   C23       1.0  0.72740  0.02684  0.31662  1.0000
  C   C24       1.0  0.77260  0.47316  0.81662  1.0000
  C   C25       1.0  0.27824  0.07886  0.71875  1.0000
  C   C26       1.0  0.22176  0.42114  0.21875  1.0000
  C   C27       1.0  0.72176  0.92114  0.28125  1.0000
  C   C28       1.0  0.77824  0.57886  0.78125  1.0000
  C   C29       1.0  0.33095  0.30693  0.84261  1.0000
  C   C30       1.0  0.16905  0.19307  0.34261  1.0000
  C   C31       1.0  0.66905  0.69307  0.15739  1.0000
  C   C32       1.0  0.83095  0.80693  0.65739  1.0000
  C   C33       1.0  0.36085  0.90301  0.71024  1.0000
  C   C34       1.0  0.13915  0.59699  0.21024  1.0000
  C   C35       1.0  0.63915  0.09699  0.28976  1.0000
  C   C36       1.0  0.86085  0.40301  0.78976  1.0000
  C   C37       1.0  0.23348  0.51110  0.88713  1.0000
  C   C38       1.0  0.26652  0.98890  0.38713  1.0000
  C   C39       1.0  0.76652  0.48890  0.11287  1.0000
  C   C40       1.0  0.73348  0.01110  0.61287  1.0000
  C   C41       1.0  0.32731  0.50753  0.81711  1.0000
  C   C42       1.0  0.17269  0.99247  0.31711  1.0000
  C   C43       1.0  0.67269  0.49247  0.18289  1.0000
  C   C44       1.0  0.82731  0.00753  0.68289  1.0000
  C   C45       1.0  0.37436  0.40920  0.79684  1.0000
  C   C46       1.0  0.12563  0.09080  0.29684  1.0000
  C   C47       1.0  0.62563  0.59080  0.20316  1.0000
  C   C48       1.0  0.87437  0.90920  0.70316  1.0000
  N   N1        1.0  0.46850  0.41116  0.72085  1.0000
  N   N2        1.0  0.03150  0.08884  0.22085  1.0000
  N   N3        1.0  0.53150  0.58884  0.27915  1.0000
  N   N4        1.0  0.96850  0.91116  0.77915  1.0000
  N   N5        1.0  0.38501  0.21779  0.82608  1.0000
  N   N6        1.0  0.11499  0.28221  0.32608  1.0000
  N   N7        1.0  0.61499  0.78221  0.17392  1.0000
  N   N8        1.0  0.88501  0.71779  0.67392  1.0000
  N   N9        1.0  0.55251  0.06570  0.88999  1.0000
  N   N10       1.0  0.94749  0.43430  0.38998  1.0000
  N   N11       1.0  0.44749  0.93430  0.11001  1.0000
  N   N12       1.0  0.05251  0.56570  0.61002  1.0000
  N   N13       1.0  0.18630  0.61441  0.91073  1.0000
  N   N14       1.0  0.31370  0.88559  0.41073  1.0000
  N   N15       1.0  0.81370  0.38559  0.08927  1.0000
  N   N16       1.0  0.68630  0.11441  0.58927  1.0000
  N   N17       1.0  0.18388  0.14516  0.68072  1.0000
  N   N18       1.0  0.31612  0.35484  0.18072  1.0000
  N   N19       1.0  0.81612  0.85484  0.31928  1.0000
  N   N20       1.0  0.68388  0.64516  0.81928  1.0000
  N   N21       1.0  0.17094  0.22307  0.96048  1.0000
  N   N22       1.0  0.32906  0.27693  0.46048  1.0000
  N   N23       1.0  0.82905  0.77693  0.03952  1.0000
  N   N24       1.0  0.67094  0.72307  0.53952  1.0000
  N   N25       1.0  0.35223  0.79444  0.67071  1.0000
  N   N26       1.0  0.14777  0.70556  0.17071  1.0000
  N   N27       1.0  0.64777  0.20556  0.32929  1.0000
  N   N28       1.0  0.85223  0.29444  0.82929  1.0000
  O   O1        1.0  0.25684  0.76207  0.62605  1.0000
  O   O2        1.0  0.24316  0.73793  0.12605  1.0000
  O   O3        1.0  0.74316  0.23793  0.37395  1.0000
  O   O4        1.0  0.75684  0.26207  0.87395  1.0000
  O   O5        1.0  0.10623  0.23775  0.03532  1.0000
  O   O6        1.0  0.39377  0.26225  0.53532  1.0000
  O   O7        1.0  0.89377  0.76225  0.96468  1.0000
  O   O8        1.0  0.60623  0.73775  0.46468  1.0000
  O   O9        1.0  0.19754  0.24594  0.68935  1.0000
  O   O10       1.0  0.30246  0.25406  0.18935  1.0000
  O   O11       1.0  0.80246  0.75406  0.31065  1.0000
  O   O12       1.0  0.69754  0.74594  0.81065  1.0000
  O   O13       1.0  0.09447  0.09759  0.63825  1.0000
  O   O14       1.0  0.40553  0.40241  0.13825  1.0000
  O   O15       1.0  0.90553  0.90241  0.36175  1.0000
  O   O16       1.0  0.59447  0.59759  0.86175  1.0000
  O   O17       1.0  0.46852  0.48385  0.65518  1.0000
  O   O18       1.0  0.03148  0.01615  0.15518  1.0000
  O   O19       1.0  0.53148  0.51615  0.34482  1.0000
  O   O20       1.0  0.96852  0.98385  0.84482  1.0000
  O   O21       1.0  0.44081  0.73739  0.68143  1.0000
  O   O22       1.0  0.05919  0.76261  0.18143  1.0000
  O   O23       1.0  0.55919  0.26261  0.31857  1.0000
  O   O24       1.0  0.94081  0.23739  0.81857  1.0000
  O   O25       1.0  0.09571  0.61473  0.96708  1.0000
  O   O26       1.0  0.40429  0.88527  0.46708  1.0000
  O   O27       1.0  0.90429  0.38527  0.03292  1.0000
  O   O28       1.0  0.59571  0.11473  0.53292  1.0000
  O   O29       1.0  0.54569  0.34257  0.72429  1.0000
  O   O30       1.0  0.95431  0.15743  0.22429  1.0000
  O   O31       1.0  0.45431  0.65743  0.27571  1.0000
  O   O32       1.0  0.04569  0.84257  0.77571  1.0000
  O   O33       1.0  0.53205  0.12961  0.95918  1.0000
  O   O34       1.0  0.96795  0.37039  0.45918  1.0000
  O   O35       1.0  0.46795  0.87039  0.04082  1.0000
  O   O36       1.0  0.03205  0.62961  0.54083  1.0000
  O   O37       1.0  0.23897  0.69863  0.87481  1.0000
  O   O38       1.0  0.26103  0.80137  0.37481  1.0000
  O   O39       1.0  0.76103  0.30137  0.12519  1.0000
  O   O40       1.0  0.73897  0.19863  0.62519  1.0000
  O   O41       1.0  0.64844  0.01809  0.88195  1.0000
  O   O42       1.0  0.85156  0.48191  0.38195  1.0000
  O   O43       1.0  0.35156  0.98190  0.11805  1.0000
  O   O44       1.0  0.14844  0.51809  0.61805  1.0000
  O   O45       1.0  0.18476  0.13139  0.92415  1.0000
  O   O46       1.0  0.31524  0.36861  0.42415  1.0000
  O   O47       1.0  0.81524  0.86861  0.07585  1.0000
  O   O48       1.0  0.68476  0.63139  0.57585  1.0000
