data_image0
_chemical_formula_structural       Cd6H12C48S7N12O24
_chemical_formula_sum              "Cd6 H12 C48 S7 N12 O24"
_cell_length_a       13.1051
_cell_length_b       13.106
_cell_length_c       13.1057
_cell_angle_alpha    98.3171
_cell_angle_beta     98.3144
_cell_angle_gamma    98.3178

_space_group_name_H-M_alt    "P 1"
_space_group_IT_number       1

loop_
  _space_group_symop_operation_xyz
  'x, y, z'

loop_
  _atom_site_type_symbol
  _atom_site_label
  _atom_site_symmetry_multiplicity
  _atom_site_fract_x
  _atom_site_fract_y
  _atom_site_fract_z
  _atom_site_occupancy
  Cd  Cd1       1.0  0.69418  0.59825  0.46435  1.0000
  Cd  Cd2       1.0  0.46436  0.69416  0.59825  1.0000
  Cd  Cd3       1.0  0.59825  0.46435  0.69415  1.0000
  Cd  Cd4       1.0  0.30582  0.40175  0.53565  1.0000
  Cd  Cd5       1.0  0.53564  0.30584  0.40176  1.0000
  Cd  Cd6       1.0  0.40175  0.53565  0.30585  1.0000
  H   H1        1.0  0.99348  0.47296  0.76787  1.0000
  H   H2        1.0  0.76790  0.99349  0.47294  1.0000
  H   H3        1.0  0.47294  0.76785  0.99346  1.0000
  H   H4        1.0  0.00652  0.52704  0.23214  1.0000
  H   H5        1.0  0.23210  0.00651  0.52706  1.0000
  H   H6        1.0  0.52706  0.23215  0.00654  1.0000
  H   H7        1.0  0.17688  0.52798  0.74538  1.0000
  H   H8        1.0  0.74537  0.17687  0.52791  1.0000
  H   H9        1.0  0.52793  0.74534  0.17687  1.0000
  H   H10       1.0  0.82311  0.47202  0.25462  1.0000
  H   H11       1.0  0.25463  0.82313  0.47208  1.0000
  H   H12       1.0  0.47207  0.25466  0.82313  1.0000
  C   C1        1.0  0.81719  0.51187  0.67218  1.0000
  C   C2        1.0  0.67224  0.81722  0.51188  1.0000
  C   C3        1.0  0.51188  0.67220  0.81720  1.0000
  C   C4        1.0  0.18281  0.48812  0.32782  1.0000
  C   C5        1.0  0.32776  0.18278  0.48813  1.0000
  C   C6        1.0  0.48812  0.32780  0.18280  1.0000
  C   C7        1.0  0.92413  0.54864  0.64997  1.0000
  C   C8        1.0  0.65000  0.92414  0.54863  1.0000
  C   C9        1.0  0.54863  0.64996  0.92412  1.0000
  C   C10       1.0  0.07587  0.45135  0.35003  1.0000
  C   C11       1.0  0.35001  0.07586  0.45137  1.0000
  C   C12       1.0  0.45138  0.35005  0.07588  1.0000
  C   C13       1.0  0.00951  0.52179  0.70948  1.0000
  C   C14       1.0  0.70950  0.00953  0.52176  1.0000
  C   C15       1.0  0.52176  0.70946  0.00951  1.0000
  C   C16       1.0  0.99049  0.47821  0.29052  1.0000
  C   C17       1.0  0.29050  0.99047  0.47824  1.0000
  C   C18       1.0  0.47824  0.29055  0.99049  1.0000
  C   C19       1.0  0.11401  0.55403  0.69724  1.0000
  C   C20       1.0  0.69723  0.11400  0.55399  1.0000
  C   C21       1.0  0.55400  0.69722  0.11400  1.0000
  C   C22       1.0  0.88599  0.44597  0.30277  1.0000
  C   C23       1.0  0.30277  0.88600  0.44601  1.0000
  C   C24       1.0  0.44601  0.30278  0.88600  1.0000
  C   C25       1.0  0.13777  0.61718  0.62500  1.0000
  C   C26       1.0  0.62498  0.13776  0.61713  1.0000
  C   C27       1.0  0.61715  0.62498  0.13776  1.0000
  C   C28       1.0  0.86222  0.38282  0.37501  1.0000
  C   C29       1.0  0.37502  0.86224  0.38287  1.0000
  C   C30       1.0  0.38285  0.37503  0.86224  1.0000
  C   C31       1.0  0.05332  0.64872  0.56310  1.0000
  C   C32       1.0  0.56310  0.05329  0.64869  1.0000
  C   C33       1.0  0.64871  0.56309  0.05330  1.0000
  C   C34       1.0  0.94668  0.35127  0.43690  1.0000
  C   C35       1.0  0.43690  0.94671  0.35131  1.0000
  C   C36       1.0  0.35130  0.43691  0.94670  1.0000
  C   C37       1.0  0.94621  0.61279  0.57409  1.0000
  C   C38       1.0  0.57411  0.94621  0.61277  1.0000
  C   C39       1.0  0.61279  0.57409  0.94620  1.0000
  C   C40       1.0  0.05379  0.38721  0.42591  1.0000
  C   C41       1.0  0.42589  0.05379  0.38723  1.0000
  C   C42       1.0  0.38721  0.42591  0.05380  1.0000
  C   C43       1.0  0.24864  0.65220  0.61409  1.0000
  C   C44       1.0  0.61406  0.24860  0.65217  1.0000
  C   C45       1.0  0.65218  0.61406  0.24861  1.0000
  C   C46       1.0  0.75136  0.34780  0.38591  1.0000
  C   C47       1.0  0.38594  0.75140  0.34783  1.0000
  C   C48       1.0  0.34782  0.38594  0.75139  1.0000
  S   S1        1.0  0.94406  0.71871  0.43772  1.0000
  S   S2        1.0  0.43775  0.94404  0.71872  1.0000
  S   S3        1.0  0.71875  0.43776  0.94405  1.0000
  S   S4        1.0  0.05594  0.28129  0.56228  1.0000
  S   S5        1.0  0.56225  0.05596  0.28128  1.0000
  S   S6        1.0  0.28125  0.56225  0.05595  1.0000
  S   S7        1.0  0.50000  0.50000  0.50000  1.0000
  N   N1        1.0  0.87737  0.64769  0.50576  1.0000
  N   N2        1.0  0.50579  0.87736  0.64769  1.0000
  N   N3        1.0  0.64772  0.50578  0.87736  1.0000
  N   N4        1.0  0.12263  0.35230  0.49424  1.0000
  N   N5        1.0  0.49420  0.12264  0.35231  1.0000
  N   N6        1.0  0.35228  0.49422  0.12264  1.0000
  N   N7        1.0  0.06070  0.70962  0.48849  1.0000
  N   N8        1.0  0.48849  0.06067  0.70960  1.0000
  N   N9        1.0  0.70961  0.48850  0.06068  1.0000
  N   N10       1.0  0.93930  0.29037  0.51151  1.0000
  N   N11       1.0  0.51151  0.93933  0.29041  1.0000
  N   N12       1.0  0.29039  0.51151  0.93932  1.0000
  O   O1        1.0  0.73810  0.54833  0.62774  1.0000
  O   O2        1.0  0.62777  0.73814  0.54834  1.0000
  O   O3        1.0  0.54836  0.62777  0.73811  1.0000
  O   O4        1.0  0.26190  0.45167  0.37227  1.0000
  O   O5        1.0  0.37223  0.26186  0.45166  1.0000
  O   O6        1.0  0.45164  0.37223  0.26189  1.0000
  O   O7        1.0  0.80663  0.44961  0.73536  1.0000
  O   O8        1.0  0.73544  0.80665  0.44963  1.0000
  O   O9        1.0  0.44962  0.73537  0.80664  1.0000
  O   O10       1.0  0.19337  0.55039  0.26464  1.0000
  O   O11       1.0  0.26456  0.19335  0.55037  1.0000
  O   O12       1.0  0.55039  0.26463  0.19336  1.0000
  O   O13       1.0  0.28152  0.74741  0.61723  1.0000
  O   O14       1.0  0.61719  0.28146  0.74738  1.0000
  O   O15       1.0  0.74740  0.61720  0.28147  1.0000
  O   O16       1.0  0.71848  0.25259  0.38277  1.0000
  O   O17       1.0  0.38281  0.71854  0.25262  1.0000
  O   O18       1.0  0.25260  0.38280  0.71853  1.0000
  O   O19       1.0  0.30790  0.58204  0.60370  1.0000
  O   O20       1.0  0.60368  0.30790  0.58203  1.0000
  O   O21       1.0  0.58204  0.60367  0.30791  1.0000
  O   O22       1.0  0.69209  0.41796  0.39630  1.0000
  O   O23       1.0  0.39632  0.69210  0.41797  1.0000
  O   O24       1.0  0.41796  0.39633  0.69209  1.0000
