data_image0
_chemical_formula_structural       K2H2C28O8F20
_chemical_formula_sum              "K2 H2 C28 O8 F20"
_cell_length_a       6.59482
_cell_length_b       7.39389
_cell_length_c       16.0074
_cell_angle_alpha    97.2731
_cell_angle_beta     92.3238
_cell_angle_gamma    103.581

_space_group_name_H-M_alt    "P 1"
_space_group_IT_number       1

loop_
  _space_group_symop_operation_xyz
  'x, y, z'

loop_
  _atom_site_type_symbol
  _atom_site_label
  _atom_site_symmetry_multiplicity
  _atom_site_fract_x
  _atom_site_fract_y
  _atom_site_fract_z
  _atom_site_occupancy
  K   K1        1.0  0.71218  0.31232  0.50147  1.0000
  K   K2        1.0  0.28782  0.68767  0.49853  1.0000
  H   H1        1.0  0.74666  0.84620  0.44765  1.0000
  H   H2        1.0  0.25334  0.15378  0.55235  1.0000
  C   C1        1.0  0.81944  0.82138  0.57985  1.0000
  C   C2        1.0  0.18057  0.17862  0.42016  1.0000
  C   C3        1.0  0.80936  0.87747  0.67340  1.0000
  C   C4        1.0  0.19065  0.12253  0.32660  1.0000
  C   C5        1.0  0.78176  0.05353  0.70723  1.0000
  C   C6        1.0  0.21825  0.94648  0.29277  1.0000
  C   C7        1.0  0.77662  0.10691  0.79358  1.0000
  C   C8        1.0  0.22338  0.89310  0.20642  1.0000
  C   C9        1.0  0.79420  0.98105  0.84970  1.0000
  C   C10       1.0  0.20579  0.01897  0.15030  1.0000
  C   C11       1.0  0.81860  0.80345  0.81828  1.0000
  C   C12       1.0  0.18140  0.19656  0.18172  1.0000
  C   C13       1.0  0.82869  0.75490  0.73174  1.0000
  C   C14       1.0  0.17131  0.24511  0.26826  1.0000
  C   C15       1.0  0.66997  0.64114  0.35100  1.0000
  C   C16       1.0  0.33002  0.35884  0.64900  1.0000
  C   C17       1.0  0.69123  0.58455  0.25904  1.0000
  C   C18       1.0  0.30876  0.41544  0.74096  1.0000
  C   C19       1.0  0.70398  0.71090  0.19998  1.0000
  C   C20       1.0  0.29603  0.28909  0.80002  1.0000
  C   C21       1.0  0.71683  0.65626  0.11417  1.0000
  C   C22       1.0  0.28317  0.34373  0.88583  1.0000
  C   C23       1.0  0.71889  0.47093  0.08533  1.0000
  C   C24       1.0  0.28111  0.52907  0.91467  1.0000
  C   C25       1.0  0.70569  0.34140  0.14229  1.0000
  C   C26       1.0  0.29431  0.65859  0.85771  1.0000
  C   C27       1.0  0.69205  0.39876  0.22776  1.0000
  C   C28       1.0  0.30795  0.60123  0.77223  1.0000
  O   O1        1.0  0.92341  0.70569  0.55565  1.0000
  O   O2        1.0  0.07661  0.29432  0.44435  1.0000
  O   O3        1.0  0.71544  0.89888  0.53075  1.0000
  O   O4        1.0  0.28456  0.10111  0.46926  1.0000
  O   O5        1.0  0.56597  0.52862  0.39372  1.0000
  O   O6        1.0  0.43404  0.47137  0.60627  1.0000
  O   O7        1.0  0.76756  0.81482  0.37983  1.0000
  O   O8        1.0  0.23243  0.18517  0.62017  1.0000
  F   F1        1.0  0.76226  0.18458  0.65743  1.0000
  F   F2        1.0  0.23774  0.81542  0.34257  1.0000
  F   F3        1.0  0.75444  0.27959  0.82341  1.0000
  F   F4        1.0  0.24556  0.72042  0.17659  1.0000
  F   F5        1.0  0.78761  0.03039  0.93286  1.0000
  F   F6        1.0  0.21236  0.96961  0.06714  1.0000
  F   F7        1.0  0.83108  0.67936  0.87206  1.0000
  F   F8        1.0  0.16891  0.32065  0.12795  1.0000
  F   F9        1.0  0.85318  0.58076  0.70644  1.0000
  F   F10       1.0  0.14682  0.41925  0.29356  1.0000
  F   F11       1.0  0.69696  0.89050  0.22396  1.0000
  F   F12       1.0  0.30306  0.10950  0.77604  1.0000
  F   F13       1.0  0.72533  0.78036  0.05902  1.0000
  F   F14       1.0  0.27466  0.21964  0.94098  1.0000
  F   F15       1.0  0.73264  0.41719  0.00295  1.0000
  F   F16       1.0  0.26737  0.58282  0.99704  1.0000
  F   F17       1.0  0.70764  0.16254  0.11414  1.0000
  F   F18       1.0  0.29237  0.83746  0.88586  1.0000
  F   F19       1.0  0.68554  0.26888  0.28038  1.0000
  F   F20       1.0  0.31444  0.73110  0.71962  1.0000
