data_image0
_chemical_formula_structural       Zn2H28C32S4N4O10
_chemical_formula_sum              "Zn2 H28 C32 S4 N4 O10"
_cell_length_a       8.94053
_cell_length_b       10.8816
_cell_length_c       11.5513
_cell_angle_alpha    102.971
_cell_angle_beta     111.447
_cell_angle_gamma    108.568

_space_group_name_H-M_alt    "P 1"
_space_group_IT_number       1

loop_
  _space_group_symop_operation_xyz
  'x, y, z'

loop_
  _atom_site_type_symbol
  _atom_site_label
  _atom_site_symmetry_multiplicity
  _atom_site_fract_x
  _atom_site_fract_y
  _atom_site_fract_z
  _atom_site_occupancy
  Zn  Zn1       1.0  0.83382  0.64158  0.01676  1.0000
  Zn  Zn2       1.0  0.16618  0.35842  0.98323  1.0000
  H   H1        1.0  0.66773  0.10359  0.30242  1.0000
  H   H2        1.0  0.33227  0.89641  0.69758  1.0000
  H   H3        1.0  0.84380  0.14077  0.46207  1.0000
  H   H4        1.0  0.15620  0.85924  0.53793  1.0000
  H   H5        1.0  0.91744  0.39874  0.52843  1.0000
  H   H6        1.0  0.08256  0.60126  0.47157  1.0000
  H   H7        1.0  0.69700  0.29758  0.49448  1.0000
  H   H8        1.0  0.30300  0.70242  0.50552  1.0000
  H   H9        1.0  0.00770  0.94666  0.25640  1.0000
  H   H10       1.0  0.99230  0.05334  0.74359  1.0000
  H   H11       1.0  0.28926  0.09644  0.46794  1.0000
  H   H12       1.0  0.71074  0.90356  0.53205  1.0000
  H   H13       1.0  0.48694  0.79667  0.35585  1.0000
  H   H14       1.0  0.51305  0.20332  0.64415  1.0000
  H   H15       1.0  0.19932  0.66348  0.14872  1.0000
  H   H16       1.0  0.80068  0.33652  0.85128  1.0000
  H   H17       1.0  0.87141  0.89227  0.95157  1.0000
  H   H18       1.0  0.12859  0.10773  0.04843  1.0000
  H   H19       1.0  0.73828  0.06005  0.94335  1.0000
  H   H20       1.0  0.26173  0.93995  0.05665  1.0000
  H   H21       1.0  0.38474  0.81775  0.06915  1.0000
  H   H22       1.0  0.61526  0.18225  0.93085  1.0000
  H   H23       1.0  0.54724  0.67257  0.08695  1.0000
  H   H24       1.0  0.45276  0.32742  0.91305  1.0000
  H   H25       1.0  0.48556  0.47624  0.81852  1.0000
  H   H26       1.0  0.51444  0.52376  0.18148  1.0000
  H   H27       1.0  0.64285  0.48395  0.77317  1.0000
  H   H28       1.0  0.35715  0.51606  0.22683  1.0000
  C   C1        1.0  0.80948  0.49194  0.17152  1.0000
  C   C2        1.0  0.19051  0.50806  0.82848  1.0000
  C   C3        1.0  0.08007  0.38116  0.20946  1.0000
  C   C4        1.0  0.91993  0.61884  0.79054  1.0000
  C   C5        1.0  0.82799  0.40101  0.24987  1.0000
  C   C6        1.0  0.17201  0.59899  0.75013  1.0000
  C   C7        1.0  0.94098  0.33977  0.25751  1.0000
  C   C8        1.0  0.05902  0.66023  0.74249  1.0000
  C   C9        1.0  0.79774  0.18426  0.38612  1.0000
  C   C10       1.0  0.20226  0.81574  0.61388  1.0000
  C   C11       1.0  0.78533  0.31722  0.44839  1.0000
  C   C12       1.0  0.21467  0.68278  0.55161  1.0000
  C   C13       1.0  0.11793  0.91730  0.28273  1.0000
  C   C14       1.0  0.88207  0.08270  0.71727  1.0000
  C   C15       1.0  0.27700  0.00073  0.40216  1.0000
  C   C16       1.0  0.72300  0.99927  0.59784  1.0000
  C   C17       1.0  0.41602  0.95937  0.43537  1.0000
  C   C18       1.0  0.58398  0.04063  0.56463  1.0000
  C   C19       1.0  0.38693  0.83652  0.34035  1.0000
  C   C20       1.0  0.61306  0.16347  0.65965  1.0000
  C   C21       1.0  0.22440  0.75975  0.22265  1.0000
  C   C22       1.0  0.77559  0.24025  0.77735  1.0000
  C   C23       1.0  0.76521  0.88282  0.97933  1.0000
  C   C24       1.0  0.23479  0.11718  0.02067  1.0000
  C   C25       1.0  0.68612  0.97362  0.97184  1.0000
  C   C26       1.0  0.31388  0.02638  0.02815  1.0000
  C   C27       1.0  0.54558  0.95400  0.00435  1.0000
  C   C28       1.0  0.45442  0.04600  0.99565  1.0000
  C   C29       1.0  0.49483  0.84256  0.04526  1.0000
  C   C30       1.0  0.50517  0.15743  0.95474  1.0000
  C   C31       1.0  0.58356  0.75841  0.05385  1.0000
  C   C32       1.0  0.41644  0.24159  0.94615  1.0000
  S   S1        1.0  0.68927  0.38554  0.32692  1.0000
  S   S2        1.0  0.31073  0.61446  0.67308  1.0000
  S   S3        1.0  0.96540  0.21877  0.32989  1.0000
  S   S4        1.0  0.03460  0.78124  0.67011  1.0000
  N   N1        1.0  0.09040  0.79800  0.19460  1.0000
  N   N2        1.0  0.90960  0.20200  0.80541  1.0000
  N   N3        1.0  0.71645  0.77760  0.02082  1.0000
  N   N4        1.0  0.28355  0.22240  0.97918  1.0000
  O   O1        1.0  0.88628  0.50033  0.09672  1.0000
  O   O2        1.0  0.11372  0.49967  0.90328  1.0000
  O   O3        1.0  0.71477  0.55636  0.17805  1.0000
  O   O4        1.0  0.28523  0.44364  0.82195  1.0000
  O   O5        1.0  0.03927  0.29943  0.09244  1.0000
  O   O6        1.0  0.96073  0.70057  0.90756  1.0000
  O   O7        1.0  0.22639  0.48669  0.29255  1.0000
  O   O8        1.0  0.77361  0.51331  0.70745  1.0000
  O   O9        1.0  0.60251  0.47273  0.84305  1.0000
  O   O10       1.0  0.39749  0.52727  0.15695  1.0000
