data_image0
_chemical_formula_structural       Zn4H32C48N8O20
_chemical_formula_sum              "Zn4 H32 C48 N8 O20"
_cell_length_a       5.74781
_cell_length_b       12.5414
_cell_length_c       16.8053
_cell_angle_alpha    103.254
_cell_angle_beta     89.9994
_cell_angle_gamma    90.0003

_space_group_name_H-M_alt    "P 1"
_space_group_IT_number       1

loop_
  _space_group_symop_operation_xyz
  'x, y, z'

loop_
  _atom_site_type_symbol
  _atom_site_label
  _atom_site_symmetry_multiplicity
  _atom_site_fract_x
  _atom_site_fract_y
  _atom_site_fract_z
  _atom_site_occupancy
  Zn  Zn1       1.0  0.96897  0.43715  0.88624  1.0000
  Zn  Zn2       1.0  0.46897  0.56285  0.61375  1.0000
  Zn  Zn3       1.0  0.03101  0.56285  0.11376  1.0000
  Zn  Zn4       1.0  0.53102  0.43714  0.38623  1.0000
  H   H1        1.0  0.96193  0.09147  0.69152  1.0000
  H   H2        1.0  0.46194  0.90852  0.80849  1.0000
  H   H3        1.0  0.03809  0.90851  0.30849  1.0000
  H   H4        1.0  0.53811  0.09148  0.19151  1.0000
  H   H5        1.0  0.27360  0.23208  0.69362  1.0000
  H   H6        1.0  0.77362  0.76792  0.80638  1.0000
  H   H7        1.0  0.72642  0.76792  0.30638  1.0000
  H   H8        1.0  0.22638  0.23209  0.19362  1.0000
  H   H9        1.0  0.91837  0.01159  0.81478  1.0000
  H   H10       1.0  0.41836  0.98840  0.68525  1.0000
  H   H11       1.0  0.08167  0.98841  0.18525  1.0000
  H   H12       1.0  0.58163  0.01160  0.31476  1.0000
  H   H13       1.0  0.93273  0.07481  0.02776  1.0000
  H   H14       1.0  0.43276  0.92519  0.47225  1.0000
  H   H15       1.0  0.06729  0.92521  0.97224  1.0000
  H   H16       1.0  0.56725  0.07480  0.52776  1.0000
  H   H17       1.0  0.87743  0.23324  0.14759  1.0000
  H   H18       1.0  0.37741  0.76676  0.35242  1.0000
  H   H19       1.0  0.12257  0.76676  0.85243  1.0000
  H   H20       1.0  0.62257  0.23324  0.64758  1.0000
  H   H21       1.0  0.56036  0.36811  0.14200  1.0000
  H   H22       1.0  0.06032  0.63191  0.35800  1.0000
  H   H23       1.0  0.43964  0.63188  0.85802  1.0000
  H   H24       1.0  0.93965  0.36811  0.64198  1.0000
  H   H25       1.0  0.28488  0.41571  0.77313  1.0000
  H   H26       1.0  0.78488  0.58429  0.72686  1.0000
  H   H27       1.0  0.71513  0.58429  0.22687  1.0000
  H   H28       1.0  0.21512  0.41571  0.27313  1.0000
  H   H29       1.0  0.12050  0.51664  0.76246  1.0000
  H   H30       1.0  0.62050  0.48336  0.73753  1.0000
  H   H31       1.0  0.87951  0.48336  0.23754  1.0000
  H   H32       1.0  0.37950  0.51664  0.26246  1.0000
  C   C1        1.0  0.57965  0.30869  0.81650  1.0000
  C   C2        1.0  0.07968  0.69130  0.68349  1.0000
  C   C3        1.0  0.42033  0.69130  0.18349  1.0000
  C   C4        1.0  0.92033  0.30870  0.31650  1.0000
  C   C5        1.0  0.36396  0.16998  0.87784  1.0000
  C   C6        1.0  0.86393  0.83002  0.62216  1.0000
  C   C7        1.0  0.63608  0.83004  0.12217  1.0000
  C   C8        1.0  0.13605  0.16997  0.37783  1.0000
  C   C9        1.0  0.40181  0.22068  0.81236  1.0000
  C   C10       1.0  0.90183  0.77932  0.68765  1.0000
  C   C11       1.0  0.59819  0.77932  0.18765  1.0000
  C   C12       1.0  0.09818  0.22068  0.31235  1.0000
  C   C13       1.0  0.50548  0.19580  0.95467  1.0000
  C   C14       1.0  0.00545  0.80421  0.54533  1.0000
  C   C15       1.0  0.49455  0.80422  0.04535  1.0000
  C   C16       1.0  0.99453  0.19578  0.45466  1.0000
  C   C17       1.0  0.07829  0.11572  0.74370  1.0000
  C   C18       1.0  0.57830  0.88428  0.75631  1.0000
  C   C19       1.0  0.92172  0.88428  0.25631  1.0000
  C   C20       1.0  0.42171  0.11572  0.24369  1.0000
  C   C21       1.0  0.25317  0.19262  0.74465  1.0000
  C   C22       1.0  0.75317  0.80737  0.75536  1.0000
  C   C23       1.0  0.74684  0.80737  0.25536  1.0000
  C   C24       1.0  0.24684  0.19263  0.24464  1.0000
  C   C25       1.0  0.05610  0.07014  0.81161  1.0000
  C   C26       1.0  0.55608  0.92985  0.68839  1.0000
  C   C27       1.0  0.94393  0.92986  0.18840  1.0000
  C   C28       1.0  0.44391  0.07015  0.31160  1.0000
  C   C29       1.0  0.79781  0.13572  0.02699  1.0000
  C   C30       1.0  0.29781  0.86428  0.47301  1.0000
  C   C31       1.0  0.20219  0.86429  0.97302  1.0000
  C   C32       1.0  0.70218  0.13571  0.52699  1.0000
  C   C33       1.0  0.76761  0.22377  0.09385  1.0000
  C   C34       1.0  0.26760  0.77624  0.40614  1.0000
  C   C35       1.0  0.23239  0.77623  0.90616  1.0000
  C   C36       1.0  0.73239  0.22376  0.59385  1.0000
  C   C37       1.0  0.59390  0.29957  0.09041  1.0000
  C   C38       1.0  0.09387  0.70045  0.40958  1.0000
  C   C39       1.0  0.40610  0.70043  0.90960  1.0000
  C   C40       1.0  0.90612  0.29956  0.59041  1.0000
  C   C41       1.0  0.46038  0.28775  0.01916  1.0000
  C   C42       1.0  0.96037  0.71227  0.48083  1.0000
  C   C43       1.0  0.53961  0.71227  0.98085  1.0000
  C   C44       1.0  0.03961  0.28772  0.51916  1.0000
  C   C45       1.0  0.28075  0.37270  0.01557  1.0000
  C   C46       1.0  0.78072  0.62732  0.48442  1.0000
  C   C47       1.0  0.71924  0.62733  0.98444  1.0000
  C   C48       1.0  0.21924  0.37267  0.51556  1.0000
  N   N1        1.0  0.19557  0.09602  0.87728  1.0000
  N   N2        1.0  0.69554  0.90398  0.62273  1.0000
  N   N3        1.0  0.80446  0.90400  0.12273  1.0000
  N   N4        1.0  0.30443  0.09601  0.37727  1.0000
  N   N5        1.0  0.66695  0.12044  0.95930  1.0000
  N   N6        1.0  0.16693  0.87956  0.54070  1.0000
  N   N7        1.0  0.33307  0.87956  0.04070  1.0000
  N   N8        1.0  0.83306  0.12043  0.45930  1.0000
  O   O1        1.0  0.75119  0.31278  0.86556  1.0000
  O   O2        1.0  0.25120  0.68723  0.63443  1.0000
  O   O3        1.0  0.24879  0.68724  0.13444  1.0000
  O   O4        1.0  0.74880  0.31277  0.36556  1.0000
  O   O5        1.0  0.12313  0.44737  0.78215  1.0000
  O   O6        1.0  0.62313  0.55263  0.71784  1.0000
  O   O7        1.0  0.87689  0.55263  0.21786  1.0000
  O   O8        1.0  0.37689  0.44736  0.28214  1.0000
  O   O9        1.0  0.54808  0.37548  0.77072  1.0000
  O   O10       1.0  0.04810  0.62451  0.72927  1.0000
  O   O11       1.0  0.45192  0.62452  0.22928  1.0000
  O   O12       1.0  0.95190  0.37548  0.27072  1.0000
  O   O13       1.0  0.23151  0.39232  0.94631  1.0000
  O   O14       1.0  0.73148  0.60769  0.55368  1.0000
  O   O15       1.0  0.76848  0.60770  0.05370  1.0000
  O   O16       1.0  0.26848  0.39229  0.44629  1.0000
  O   O17       1.0  0.19353  0.42262  0.08390  1.0000
  O   O18       1.0  0.69349  0.57738  0.41609  1.0000
  O   O19       1.0  0.80647  0.57738  0.91612  1.0000
  O   O20       1.0  0.30646  0.42262  0.58388  1.0000
