data_image0
_chemical_formula_structural       Zn6P4H24C8S4O24
_chemical_formula_sum              "Zn6 P4 H24 C8 S4 O24"
_cell_length_a       5.43742
_cell_length_b       6.0599
_cell_length_c       23.8439
_cell_angle_alpha    94.5625
_cell_angle_beta     89.9926
_cell_angle_gamma    116.667

_space_group_name_H-M_alt    "P 1"
_space_group_IT_number       1

loop_
  _space_group_symop_operation_xyz
  'x, y, z'

loop_
  _atom_site_type_symbol
  _atom_site_label
  _atom_site_symmetry_multiplicity
  _atom_site_fract_x
  _atom_site_fract_y
  _atom_site_fract_z
  _atom_site_occupancy
  Zn  Zn1       1.0  0.73242  0.00012  0.25002  1.0000
  Zn  Zn2       1.0  0.26758  0.99988  0.74998  1.0000
  Zn  Zn3       1.0  0.75532  0.54409  0.29756  1.0000
  Zn  Zn4       1.0  0.21130  0.45605  0.20246  1.0000
  Zn  Zn5       1.0  0.24469  0.45591  0.70244  1.0000
  Zn  Zn6       1.0  0.78869  0.54394  0.79754  1.0000
  P   P1        1.0  0.28182  0.04890  0.33476  1.0000
  P   P2        1.0  0.23323  0.95148  0.16530  1.0000
  P   P3        1.0  0.71818  0.95111  0.66524  1.0000
  P   P4        1.0  0.76678  0.04852  0.83470  1.0000
  H   H1        1.0  0.47476  0.16344  0.43057  1.0000
  H   H2        1.0  0.31134  0.83670  0.06942  1.0000
  H   H3        1.0  0.52523  0.83656  0.56943  1.0000
  H   H4        1.0  0.68865  0.16329  0.93058  1.0000
  H   H5        1.0  0.12422  0.11505  0.42667  1.0000
  H   H6        1.0  0.00913  0.88497  0.07344  1.0000
  H   H7        1.0  0.87578  0.88495  0.57333  1.0000
  H   H8        1.0  0.99087  0.11502  0.92656  1.0000
  H   H9        1.0  0.37931  0.52488  0.46009  1.0000
  H   H10       1.0  0.85424  0.47562  0.03991  1.0000
  H   H11       1.0  0.62071  0.47513  0.53992  1.0000
  H   H12       1.0  0.14573  0.52438  0.96008  1.0000
  H   H13       1.0  0.61108  0.85152  0.46062  1.0000
  H   H14       1.0  0.75955  0.14905  0.03939  1.0000
  H   H15       1.0  0.38892  0.14849  0.53938  1.0000
  H   H16       1.0  0.24044  0.85094  0.96061  1.0000
  H   H17       1.0  0.48750  0.66180  0.39440  1.0000
  H   H18       1.0  0.82564  0.33876  0.10562  1.0000
  H   H19       1.0  0.51251  0.33820  0.60560  1.0000
  H   H20       1.0  0.17436  0.66125  0.89438  1.0000
  H   H21       1.0  0.10922  0.38175  0.30212  1.0000
  H   H22       1.0  0.72768  0.61856  0.19792  1.0000
  H   H23       1.0  0.89078  0.61825  0.69788  1.0000
  H   H24       1.0  0.27233  0.38144  0.80209  1.0000
  C   C1        1.0  0.26865  0.04490  0.41116  1.0000
  C   C2        1.0  0.22383  0.95511  0.08889  1.0000
  C   C3        1.0  0.73135  0.95512  0.58884  1.0000
  C   C4        1.0  0.77617  0.04488  0.91112  1.0000
  C   C5        1.0  0.43972  0.69210  0.43800  1.0000
  C   C6        1.0  0.74757  0.30844  0.06202  1.0000
  C   C7        1.0  0.56027  0.30790  0.56200  1.0000
  C   C8        1.0  0.25242  0.69156  0.93798  1.0000
  S   S1        1.0  0.14860  0.74864  0.43817  1.0000
  S   S2        1.0  0.39973  0.25141  0.06184  1.0000
  S   S3        1.0  0.85140  0.25135  0.56182  1.0000
  S   S4        1.0  0.60026  0.74858  0.93816  1.0000
  O   O1        1.0  0.39284  0.32693  0.32554  1.0000
  O   O2        1.0  0.06633  0.67345  0.17456  1.0000
  O   O3        1.0  0.60718  0.67308  0.67447  1.0000
  O   O4        1.0  0.93366  0.32653  0.82544  1.0000
  O   O5        1.0  0.97815  0.90950  0.31256  1.0000
  O   O6        1.0  0.06867  0.09070  0.18745  1.0000
  O   O7        1.0  0.02185  0.09052  0.68744  1.0000
  O   O8        1.0  0.93134  0.90931  0.81255  1.0000
  O   O9        1.0  0.46054  0.92923  0.31362  1.0000
  O   O10       1.0  0.53167  0.07159  0.18645  1.0000
  O   O11       1.0  0.53946  0.07079  0.68638  1.0000
  O   O12       1.0  0.46835  0.92841  0.81355  1.0000
  O   O13       1.0  0.07833  0.77758  0.49643  1.0000
  O   O14       1.0  0.30073  0.22236  0.00357  1.0000
  O   O15       1.0  0.92167  0.22241  0.50357  1.0000
  O   O16       1.0  0.69925  0.77761  0.99642  1.0000
  O   O17       1.0  0.93293  0.55989  0.40011  1.0000
  O   O18       1.0  0.37224  0.43998  0.09986  1.0000
  O   O19       1.0  0.06707  0.44011  0.59989  1.0000
  O   O20       1.0  0.62775  0.56001  0.90014  1.0000
  O   O21       1.0  0.97464  0.37339  0.27303  1.0000
  O   O22       1.0  0.60129  0.62681  0.22699  1.0000
  O   O23       1.0  0.02537  0.62662  0.72698  1.0000
  O   O24       1.0  0.39871  0.37319  0.77301  1.0000
