data_image0
_chemical_formula_structural       H60Pb4C20S8N4O16
_chemical_formula_sum              "H60 Pb4 C20 S8 N4 O16"
_cell_length_a       7.57112
_cell_length_b       10.4939
_cell_length_c       14.8112
_cell_angle_alpha    89.999
_cell_angle_beta     101.568
_cell_angle_gamma    89.9995

_space_group_name_H-M_alt    "P 1"
_space_group_IT_number       1

loop_
  _space_group_symop_operation_xyz
  'x, y, z'

loop_
  _atom_site_type_symbol
  _atom_site_label
  _atom_site_symmetry_multiplicity
  _atom_site_fract_x
  _atom_site_fract_y
  _atom_site_fract_z
  _atom_site_occupancy
  H   H1        1.0  0.27402  0.47989  0.48035  1.0000
  H   H2        1.0  0.72596  0.97989  0.01964  1.0000
  H   H3        1.0  0.72598  0.52011  0.51965  1.0000
  H   H4        1.0  0.27403  0.02010  0.98036  1.0000
  H   H5        1.0  0.17295  0.32379  0.48274  1.0000
  H   H6        1.0  0.82705  0.82379  0.01726  1.0000
  H   H7        1.0  0.82705  0.67621  0.51726  1.0000
  H   H8        1.0  0.17295  0.17620  0.98274  1.0000
  H   H9        1.0  0.41011  0.34662  0.52826  1.0000
  H   H10       1.0  0.58989  0.84662  0.97173  1.0000
  H   H11       1.0  0.58989  0.65338  0.47174  1.0000
  H   H12       1.0  0.41012  0.15337  0.02827  1.0000
  H   H13       1.0  0.05018  0.01254  0.20447  1.0000
  H   H14       1.0  0.94981  0.51253  0.29552  1.0000
  H   H15       1.0  0.94981  0.98747  0.79552  1.0000
  H   H16       1.0  0.05018  0.48747  0.70448  1.0000
  H   H17       1.0  0.12696  0.17508  0.19439  1.0000
  H   H18       1.0  0.87303  0.67506  0.30562  1.0000
  H   H19       1.0  0.87303  0.82494  0.80561  1.0000
  H   H20       1.0  0.12697  0.32493  0.69439  1.0000
  H   H21       1.0  0.28111  0.04287  0.19543  1.0000
  H   H22       1.0  0.71888  0.54287  0.30456  1.0000
  H   H23       1.0  0.71888  0.95714  0.80456  1.0000
  H   H24       1.0  0.28112  0.45714  0.69544  1.0000
  H   H25       1.0  0.84729  0.89980  0.41491  1.0000
  H   H26       1.0  0.15271  0.39980  0.08509  1.0000
  H   H27       1.0  0.15271  0.10020  0.58508  1.0000
  H   H28       1.0  0.84729  0.60020  0.91492  1.0000
  H   H29       1.0  0.64123  0.91621  0.45854  1.0000
  H   H30       1.0  0.35877  0.41622  0.04145  1.0000
  H   H31       1.0  0.35877  0.08377  0.54146  1.0000
  H   H32       1.0  0.64123  0.58378  0.95855  1.0000
  H   H33       1.0  0.63150  0.88310  0.33762  1.0000
  H   H34       1.0  0.36851  0.38310  0.16237  1.0000
  H   H35       1.0  0.36851  0.11689  0.66237  1.0000
  H   H36       1.0  0.63150  0.61690  0.83763  1.0000
  H   H37       1.0  0.93505  0.21393  0.53157  1.0000
  H   H38       1.0  0.06496  0.71392  0.96842  1.0000
  H   H39       1.0  0.06495  0.78607  0.46843  1.0000
  H   H40       1.0  0.93505  0.28608  0.03158  1.0000
  H   H41       1.0  0.84074  0.35417  0.46827  1.0000
  H   H42       1.0  0.15924  0.85417  0.03172  1.0000
  H   H43       1.0  0.15926  0.64583  0.53173  1.0000
  H   H44       1.0  0.84075  0.14583  0.96828  1.0000
  H   H45       1.0  0.71002  0.26224  0.53549  1.0000
  H   H46       1.0  0.28999  0.76224  0.96451  1.0000
  H   H47       1.0  0.28998  0.73776  0.46452  1.0000
  H   H48       1.0  0.71002  0.23776  0.03549  1.0000
  H   H49       1.0  0.82322  0.19853  0.21112  1.0000
  H   H50       1.0  0.17678  0.69854  0.28888  1.0000
  H   H51       1.0  0.17678  0.80147  0.78888  1.0000
  H   H52       1.0  0.82322  0.30146  0.71112  1.0000
  H   H53       1.0  0.59855  0.13265  0.18424  1.0000
  H   H54       1.0  0.40145  0.63265  0.31576  1.0000
  H   H55       1.0  0.40144  0.86736  0.81576  1.0000
  H   H56       1.0  0.59855  0.36735  0.68425  1.0000
  H   H57       1.0  0.63489  0.29759  0.22101  1.0000
  H   H58       1.0  0.36512  0.79759  0.27899  1.0000
  H   H59       1.0  0.36511  0.70241  0.77900  1.0000
  H   H60       1.0  0.63489  0.20241  0.72102  1.0000
  Pb  Pb1       1.0  0.71289  0.13685  0.37135  1.0000
  Pb  Pb2       1.0  0.28711  0.63686  0.12865  1.0000
  Pb  Pb3       1.0  0.28711  0.86314  0.62865  1.0000
  Pb  Pb4       1.0  0.71288  0.36315  0.87135  1.0000
  C   C1        1.0  0.29406  0.37687  0.47606  1.0000
  C   C2        1.0  0.70593  0.87687  0.02393  1.0000
  C   C3        1.0  0.70594  0.62313  0.52394  1.0000
  C   C4        1.0  0.29407  0.12312  0.97607  1.0000
  C   C5        1.0  0.16415  0.07912  0.22070  1.0000
  C   C6        1.0  0.83584  0.57911  0.27930  1.0000
  C   C7        1.0  0.83584  0.92089  0.77930  1.0000
  C   C8        1.0  0.16416  0.42089  0.72070  1.0000
  C   C9        1.0  0.70582  0.92906  0.39970  1.0000
  C   C10       1.0  0.29417  0.42907  0.10030  1.0000
  C   C11       1.0  0.29418  0.07093  0.60030  1.0000
  C   C12       1.0  0.70582  0.57094  0.89971  1.0000
  C   C13       1.0  0.81311  0.25985  0.49341  1.0000
  C   C14       1.0  0.18688  0.75986  0.00658  1.0000
  C   C15       1.0  0.18688  0.74015  0.50659  1.0000
  C   C16       1.0  0.81312  0.24015  0.99342  1.0000
  C   C17       1.0  0.68821  0.20080  0.22667  1.0000
  C   C18       1.0  0.31179  0.70081  0.27333  1.0000
  C   C19       1.0  0.31179  0.79920  0.77334  1.0000
  C   C20       1.0  0.68821  0.29920  0.72667  1.0000
  S   S1        1.0  0.33925  0.34543  0.36505  1.0000
  S   S2        1.0  0.66074  0.84544  0.13495  1.0000
  S   S3        1.0  0.66075  0.65456  0.63495  1.0000
  S   S4        1.0  0.33927  0.15456  0.86505  1.0000
  S   S5        1.0  0.22524  0.08831  0.34267  1.0000
  S   S6        1.0  0.77476  0.58832  0.15733  1.0000
  S   S7        1.0  0.77476  0.91169  0.65732  1.0000
  S   S8        1.0  0.22525  0.41168  0.84267  1.0000
  N   N1        1.0  0.38722  0.19352  0.36508  1.0000
  N   N2        1.0  0.61277  0.69353  0.13492  1.0000
  N   N3        1.0  0.61277  0.80648  0.63492  1.0000
  N   N4        1.0  0.38724  0.30647  0.86508  1.0000
  O   O1        1.0  0.50554  0.41165  0.35908  1.0000
  O   O2        1.0  0.49445  0.91167  0.14091  1.0000
  O   O3        1.0  0.49445  0.58833  0.64092  1.0000
  O   O4        1.0  0.50556  0.08833  0.85908  1.0000
  O   O5        1.0  0.17838  0.37776  0.29731  1.0000
  O   O6        1.0  0.82161  0.87777  0.20269  1.0000
  O   O7        1.0  0.82161  0.62224  0.70269  1.0000
  O   O8        1.0  0.17841  0.12223  0.79730  1.0000
  O   O9        1.0  0.06803  0.13193  0.37759  1.0000
  O   O10       1.0  0.93196  0.63195  0.12241  1.0000
  O   O11       1.0  0.93197  0.86806  0.62241  1.0000
  O   O12       1.0  0.06805  0.36805  0.87760  1.0000
  O   O13       1.0  0.30225  0.96741  0.37694  1.0000
  O   O14       1.0  0.69775  0.46743  0.12306  1.0000
  O   O15       1.0  0.69774  0.03259  0.62305  1.0000
  O   O16       1.0  0.30225  0.53258  0.87695  1.0000
