data_image0
_chemical_formula_structural       Ag16H32C24S8Br8N24
_chemical_formula_sum              "Ag16 H32 C24 S8 Br8 N24"
_cell_length_a       7.68315
_cell_length_b       10.0761
_cell_length_c       19.0624
_cell_angle_alpha    90
_cell_angle_beta     90
_cell_angle_gamma    90.0001

_space_group_name_H-M_alt    "P 1"
_space_group_IT_number       1

loop_
  _space_group_symop_operation_xyz
  'x, y, z'

loop_
  _atom_site_type_symbol
  _atom_site_label
  _atom_site_symmetry_multiplicity
  _atom_site_fract_x
  _atom_site_fract_y
  _atom_site_fract_z
  _atom_site_occupancy
  Ag  Ag1       1.0  0.92054  0.92854  0.70808  1.0000
  Ag  Ag2       1.0  0.07946  0.57146  0.20808  1.0000
  Ag  Ag3       1.0  0.42054  0.07146  0.79192  1.0000
  Ag  Ag4       1.0  0.57946  0.42854  0.29192  1.0000
  Ag  Ag5       1.0  0.07946  0.07146  0.29192  1.0000
  Ag  Ag6       1.0  0.92054  0.42854  0.79192  1.0000
  Ag  Ag7       1.0  0.57946  0.92854  0.20808  1.0000
  Ag  Ag8       1.0  0.42054  0.57146  0.70809  1.0000
  Ag  Ag9       1.0  0.60324  0.30303  0.67688  1.0000
  Ag  Ag10      1.0  0.39676  0.19697  0.17688  1.0000
  Ag  Ag11      1.0  0.10324  0.69697  0.82312  1.0000
  Ag  Ag12      1.0  0.89677  0.80303  0.32312  1.0000
  Ag  Ag13      1.0  0.39676  0.69697  0.32312  1.0000
  Ag  Ag14      1.0  0.60324  0.80303  0.82312  1.0000
  Ag  Ag15      1.0  0.89676  0.30303  0.17688  1.0000
  Ag  Ag16      1.0  0.10324  0.19697  0.67688  1.0000
  H   H1        1.0  0.75854  0.50930  0.52577  1.0000
  H   H2        1.0  0.24146  0.99070  0.02577  1.0000
  H   H3        1.0  0.25854  0.49070  0.97423  1.0000
  H   H4        1.0  0.74146  0.00931  0.47423  1.0000
  H   H5        1.0  0.24146  0.49070  0.47423  1.0000
  H   H6        1.0  0.75854  0.00930  0.97423  1.0000
  H   H7        1.0  0.74146  0.50930  0.02577  1.0000
  H   H8        1.0  0.25854  0.99069  0.52577  1.0000
  H   H9        1.0  0.93170  0.70771  0.48503  1.0000
  H   H10       1.0  0.06830  0.79229  0.98503  1.0000
  H   H11       1.0  0.43170  0.29229  0.01497  1.0000
  H   H12       1.0  0.56830  0.20771  0.51497  1.0000
  H   H13       1.0  0.06830  0.29229  0.51497  1.0000
  H   H14       1.0  0.93170  0.20770  0.01497  1.0000
  H   H15       1.0  0.56830  0.70771  0.98503  1.0000
  H   H16       1.0  0.43170  0.79229  0.48503  1.0000
  H   H17       1.0  0.13489  0.72448  0.52919  1.0000
  H   H18       1.0  0.86511  0.77552  0.02919  1.0000
  H   H19       1.0  0.63489  0.27552  0.97081  1.0000
  H   H20       1.0  0.36511  0.22448  0.47081  1.0000
  H   H21       1.0  0.86511  0.27552  0.47081  1.0000
  H   H22       1.0  0.13489  0.22448  0.97081  1.0000
  H   H23       1.0  0.36511  0.72448  0.02919  1.0000
  H   H24       1.0  0.63489  0.77552  0.52919  1.0000
  H   H25       1.0  0.95712  0.82760  0.55440  1.0000
  H   H26       1.0  0.04288  0.67240  0.05440  1.0000
  H   H27       1.0  0.45712  0.17240  0.94560  1.0000
  H   H28       1.0  0.54288  0.32760  0.44560  1.0000
  H   H29       1.0  0.04288  0.17240  0.44560  1.0000
  H   H30       1.0  0.95712  0.32760  0.94560  1.0000
  H   H31       1.0  0.54288  0.82760  0.05440  1.0000
  H   H32       1.0  0.45712  0.67240  0.55440  1.0000
  C   C1        1.0  0.98609  0.62265  0.65558  1.0000
  C   C2        1.0  0.01391  0.87735  0.15558  1.0000
  C   C3        1.0  0.48609  0.37735  0.84442  1.0000
  C   C4        1.0  0.51391  0.12265  0.34442  1.0000
  C   C5        1.0  0.01391  0.37735  0.34442  1.0000
  C   C6        1.0  0.98609  0.12265  0.84442  1.0000
  C   C7        1.0  0.51391  0.62265  0.15558  1.0000
  C   C8        1.0  0.48609  0.87735  0.65558  1.0000
  C   C9        1.0  0.82260  0.52800  0.57558  1.0000
  C   C10       1.0  0.17740  0.97200  0.07558  1.0000
  C   C11       1.0  0.32260  0.47200  0.92442  1.0000
  C   C12       1.0  0.67740  0.02800  0.42442  1.0000
  C   C13       1.0  0.17740  0.47200  0.42442  1.0000
  C   C14       1.0  0.82260  0.02800  0.92442  1.0000
  C   C15       1.0  0.67740  0.52800  0.07558  1.0000
  C   C16       1.0  0.32260  0.97200  0.57558  1.0000
  C   C17       1.0  0.99345  0.72812  0.53565  1.0000
  C   C18       1.0  0.00655  0.77188  0.03565  1.0000
  C   C19       1.0  0.49345  0.27188  0.96435  1.0000
  C   C20       1.0  0.50655  0.22812  0.46435  1.0000
  C   C21       1.0  0.00655  0.27188  0.46435  1.0000
  C   C22       1.0  0.99345  0.22812  0.96435  1.0000
  C   C23       1.0  0.50655  0.72812  0.03565  1.0000
  C   C24       1.0  0.49345  0.77188  0.53565  1.0000
  S   S1        1.0  0.12737  0.73335  0.69404  1.0000
  S   S2        1.0  0.87263  0.76666  0.19404  1.0000
  S   S3        1.0  0.62737  0.26666  0.80596  1.0000
  S   S4        1.0  0.37263  0.23335  0.30596  1.0000
  S   S5        1.0  0.87263  0.26665  0.30596  1.0000
  S   S6        1.0  0.12737  0.23335  0.80596  1.0000
  S   S7        1.0  0.37263  0.73335  0.19404  1.0000
  S   S8        1.0  0.62737  0.76665  0.69404  1.0000
  Br  Br1       1.0  0.81255  0.10609  0.60868  1.0000
  Br  Br2       1.0  0.18745  0.39391  0.10868  1.0000
  Br  Br3       1.0  0.31255  0.89391  0.89132  1.0000
  Br  Br4       1.0  0.68745  0.60609  0.39132  1.0000
  Br  Br5       1.0  0.18745  0.89391  0.39132  1.0000
  Br  Br6       1.0  0.81255  0.60609  0.89132  1.0000
  Br  Br7       1.0  0.68745  0.10609  0.10868  1.0000
  Br  Br8       1.0  0.31255  0.39391  0.60869  1.0000
  N   N1        1.0  0.80067  0.46145  0.63437  1.0000
  N   N2        1.0  0.19933  0.03855  0.13437  1.0000
  N   N3        1.0  0.30067  0.53855  0.86563  1.0000
  N   N4        1.0  0.69933  0.96145  0.36563  1.0000
  N   N5        1.0  0.19933  0.53854  0.36563  1.0000
  N   N6        1.0  0.80067  0.96145  0.86563  1.0000
  N   N7        1.0  0.69933  0.46145  0.13437  1.0000
  N   N8        1.0  0.30067  0.03854  0.63436  1.0000
  N   N9        1.0  0.90305  0.52030  0.68471  1.0000
  N   N10       1.0  0.09695  0.97970  0.18471  1.0000
  N   N11       1.0  0.40305  0.47970  0.81530  1.0000
  N   N12       1.0  0.59695  0.02030  0.31529  1.0000
  N   N13       1.0  0.09695  0.47970  0.31529  1.0000
  N   N14       1.0  0.90305  0.02030  0.81529  1.0000
  N   N15       1.0  0.59695  0.52030  0.18471  1.0000
  N   N16       1.0  0.40305  0.97970  0.68471  1.0000
  N   N17       1.0  0.93797  0.62885  0.58600  1.0000
  N   N18       1.0  0.06203  0.87115  0.08600  1.0000
  N   N19       1.0  0.43797  0.37115  0.91400  1.0000
  N   N20       1.0  0.56203  0.12885  0.41400  1.0000
  N   N21       1.0  0.06203  0.37115  0.41400  1.0000
  N   N22       1.0  0.93797  0.12885  0.91400  1.0000
  N   N23       1.0  0.56203  0.62885  0.08600  1.0000
  N   N24       1.0  0.43797  0.87115  0.58600  1.0000
