data_image0
_chemical_formula_structural       Ag16H32C24S8I8N24
_chemical_formula_sum              "Ag16 H32 C24 S8 I8 N24"
_cell_length_a       7.78986
_cell_length_b       10.1594
_cell_length_c       19.7631
_cell_angle_alpha    90.0003
_cell_angle_beta     90.0002
_cell_angle_gamma    90

_space_group_name_H-M_alt    "P 1"
_space_group_IT_number       1

loop_
  _space_group_symop_operation_xyz
  'x, y, z'

loop_
  _atom_site_type_symbol
  _atom_site_label
  _atom_site_symmetry_multiplicity
  _atom_site_fract_x
  _atom_site_fract_y
  _atom_site_fract_z
  _atom_site_occupancy
  Ag  Ag1       1.0  0.92120  0.56985  0.70662  1.0000
  Ag  Ag2       1.0  0.07881  0.93016  0.20662  1.0000
  Ag  Ag3       1.0  0.42119  0.43015  0.79338  1.0000
  Ag  Ag4       1.0  0.57881  0.06985  0.29338  1.0000
  Ag  Ag5       1.0  0.07881  0.43016  0.29338  1.0000
  Ag  Ag6       1.0  0.92119  0.06985  0.79338  1.0000
  Ag  Ag7       1.0  0.57881  0.56985  0.20662  1.0000
  Ag  Ag8       1.0  0.42119  0.93016  0.70662  1.0000
  Ag  Ag9       1.0  0.60598  0.19507  0.67471  1.0000
  Ag  Ag10      1.0  0.39402  0.30493  0.17471  1.0000
  Ag  Ag11      1.0  0.10598  0.80493  0.82529  1.0000
  Ag  Ag12      1.0  0.89402  0.69507  0.32529  1.0000
  Ag  Ag13      1.0  0.39402  0.80493  0.32529  1.0000
  Ag  Ag14      1.0  0.60598  0.69507  0.82529  1.0000
  Ag  Ag15      1.0  0.89402  0.19507  0.17471  1.0000
  Ag  Ag16      1.0  0.10599  0.30492  0.67471  1.0000
  H   H1        1.0  0.77234  0.99042  0.53551  1.0000
  H   H2        1.0  0.22766  0.50957  0.03551  1.0000
  H   H3        1.0  0.27234  0.00957  0.96449  1.0000
  H   H4        1.0  0.72766  0.49043  0.46449  1.0000
  H   H5        1.0  0.22766  0.00957  0.46449  1.0000
  H   H6        1.0  0.77234  0.49043  0.96449  1.0000
  H   H7        1.0  0.72766  0.99043  0.03551  1.0000
  H   H8        1.0  0.27234  0.50957  0.53551  1.0000
  H   H9        1.0  0.95119  0.79692  0.49628  1.0000
  H   H10       1.0  0.04881  0.70307  0.99628  1.0000
  H   H11       1.0  0.45119  0.20308  0.00372  1.0000
  H   H12       1.0  0.54881  0.29693  0.50372  1.0000
  H   H13       1.0  0.04881  0.20308  0.50372  1.0000
  H   H14       1.0  0.95119  0.29693  0.00372  1.0000
  H   H15       1.0  0.54881  0.79692  0.99628  1.0000
  H   H16       1.0  0.45119  0.70307  0.49628  1.0000
  H   H17       1.0  0.98338  0.67626  0.56155  1.0000
  H   H18       1.0  0.01661  0.82373  0.06155  1.0000
  H   H19       1.0  0.48339  0.32373  0.93844  1.0000
  H   H20       1.0  0.51661  0.17627  0.43845  1.0000
  H   H21       1.0  0.01662  0.32373  0.43845  1.0000
  H   H22       1.0  0.98339  0.17627  0.93845  1.0000
  H   H23       1.0  0.51661  0.67627  0.06155  1.0000
  H   H24       1.0  0.48338  0.82373  0.56155  1.0000
  H   H25       1.0  0.15087  0.78904  0.54047  1.0000
  H   H26       1.0  0.84913  0.71096  0.04047  1.0000
  H   H27       1.0  0.65087  0.21096  0.95953  1.0000
  H   H28       1.0  0.34913  0.28904  0.45953  1.0000
  H   H29       1.0  0.84913  0.21096  0.45953  1.0000
  H   H30       1.0  0.15087  0.28904  0.95953  1.0000
  H   H31       1.0  0.34913  0.78904  0.04047  1.0000
  H   H32       1.0  0.65087  0.71096  0.54047  1.0000
  C   C1        1.0  0.98853  0.87517  0.66244  1.0000
  C   C2        1.0  0.01147  0.62483  0.16245  1.0000
  C   C3        1.0  0.48853  0.12483  0.83755  1.0000
  C   C4        1.0  0.51147  0.37517  0.33755  1.0000
  C   C5        1.0  0.01147  0.12483  0.33755  1.0000
  C   C6        1.0  0.98853  0.37517  0.83756  1.0000
  C   C7        1.0  0.51147  0.87517  0.16245  1.0000
  C   C8        1.0  0.48853  0.62483  0.66245  1.0000
  C   C9        1.0  0.83232  0.97019  0.58404  1.0000
  C   C10       1.0  0.16767  0.52980  0.08404  1.0000
  C   C11       1.0  0.33232  0.02981  0.91596  1.0000
  C   C12       1.0  0.66767  0.47019  0.41596  1.0000
  C   C13       1.0  0.16767  0.02981  0.41596  1.0000
  C   C14       1.0  0.83232  0.47020  0.91596  1.0000
  C   C15       1.0  0.66767  0.97019  0.08405  1.0000
  C   C16       1.0  0.33232  0.52981  0.58404  1.0000
  C   C17       1.0  0.01151  0.77751  0.54534  1.0000
  C   C18       1.0  0.98848  0.72249  0.04534  1.0000
  C   C19       1.0  0.51152  0.22249  0.95466  1.0000
  C   C20       1.0  0.48848  0.27751  0.45466  1.0000
  C   C21       1.0  0.98849  0.22249  0.45466  1.0000
  C   C22       1.0  0.01152  0.27751  0.95466  1.0000
  C   C23       1.0  0.48848  0.77751  0.04534  1.0000
  C   C24       1.0  0.51151  0.72249  0.54534  1.0000
  S   S1        1.0  0.12655  0.76543  0.70034  1.0000
  S   S2        1.0  0.87345  0.73456  0.20034  1.0000
  S   S3        1.0  0.62655  0.23456  0.79966  1.0000
  S   S4        1.0  0.37345  0.26543  0.29966  1.0000
  S   S5        1.0  0.87345  0.23457  0.29966  1.0000
  S   S6        1.0  0.12655  0.26544  0.79966  1.0000
  S   S7        1.0  0.37345  0.76544  0.20034  1.0000
  S   S8        1.0  0.62655  0.73457  0.70034  1.0000
  I   I1        1.0  0.81133  0.39586  0.60368  1.0000
  I   I2        1.0  0.18866  0.10413  0.10368  1.0000
  I   I3        1.0  0.31134  0.60413  0.89632  1.0000
  I   I4        1.0  0.68867  0.89587  0.39632  1.0000
  I   I5        1.0  0.18867  0.60413  0.39632  1.0000
  I   I6        1.0  0.81134  0.89587  0.89632  1.0000
  I   I7        1.0  0.68866  0.39587  0.10368  1.0000
  I   I8        1.0  0.31133  0.10413  0.60368  1.0000
  N   N1        1.0  0.80573  0.03445  0.64090  1.0000
  N   N2        1.0  0.19426  0.46555  0.14090  1.0000
  N   N3        1.0  0.30574  0.96555  0.85909  1.0000
  N   N4        1.0  0.69426  0.53445  0.35910  1.0000
  N   N5        1.0  0.19426  0.96555  0.35910  1.0000
  N   N6        1.0  0.80574  0.53445  0.85910  1.0000
  N   N7        1.0  0.69426  0.03445  0.14091  1.0000
  N   N8        1.0  0.30574  0.46555  0.64091  1.0000
  N   N9        1.0  0.90364  0.97571  0.69022  1.0000
  N   N10       1.0  0.09636  0.52428  0.19022  1.0000
  N   N11       1.0  0.40364  0.02428  0.80978  1.0000
  N   N12       1.0  0.59636  0.47572  0.30978  1.0000
  N   N13       1.0  0.09637  0.02429  0.30978  1.0000
  N   N14       1.0  0.90364  0.47572  0.80978  1.0000
  N   N15       1.0  0.59636  0.97572  0.19022  1.0000
  N   N16       1.0  0.40364  0.52428  0.69022  1.0000
  N   N17       1.0  0.94605  0.87043  0.59475  1.0000
  N   N18       1.0  0.05395  0.62957  0.09475  1.0000
  N   N19       1.0  0.44605  0.12957  0.90524  1.0000
  N   N20       1.0  0.55395  0.37043  0.40524  1.0000
  N   N21       1.0  0.05396  0.12957  0.40525  1.0000
  N   N22       1.0  0.94605  0.37043  0.90525  1.0000
  N   N23       1.0  0.55395  0.87043  0.09476  1.0000
  N   N24       1.0  0.44605  0.62957  0.59475  1.0000
