data_image0
_chemical_formula_structural       Cd3H52C62N8O12F2
_chemical_formula_sum              "Cd3 H52 C62 N8 O12 F2"
_cell_length_a       8.42551
_cell_length_b       12.0934
_cell_length_c       15.0536
_cell_angle_alpha    67.5801
_cell_angle_beta     79.7304
_cell_angle_gamma    81.7433

_space_group_name_H-M_alt    "P 1"
_space_group_IT_number       1

loop_
  _space_group_symop_operation_xyz
  'x, y, z'

loop_
  _atom_site_type_symbol
  _atom_site_label
  _atom_site_symmetry_multiplicity
  _atom_site_fract_x
  _atom_site_fract_y
  _atom_site_fract_z
  _atom_site_occupancy
  Cd  Cd1       1.0  0.04030  0.48010  0.27185  1.0000
  Cd  Cd2       1.0  0.95970  0.51990  0.72815  1.0000
  Cd  Cd3       1.0  0.00000  0.50000  0.50000  1.0000
  H   H1        1.0  0.76599  0.81064  0.34773  1.0000
  H   H2        1.0  0.23401  0.18936  0.65228  1.0000
  H   H3        1.0  0.99897  0.08911  0.58867  1.0000
  H   H4        1.0  0.00103  0.91089  0.41133  1.0000
  H   H5        1.0  0.19304  0.06941  0.40222  1.0000
  H   H6        1.0  0.80696  0.93059  0.59777  1.0000
  H   H7        1.0  0.27419  0.04889  0.50842  1.0000
  H   H8        1.0  0.72581  0.95111  0.49158  1.0000
  H   H9        1.0  0.76256  0.14944  0.49913  1.0000
  H   H10       1.0  0.23744  0.85056  0.50087  1.0000
  H   H11       1.0  0.88325  0.12894  0.39684  1.0000
  H   H12       1.0  0.11675  0.87106  0.60316  1.0000
  H   H13       1.0  0.32211  0.52478  0.09511  1.0000
  H   H14       1.0  0.67789  0.47522  0.90489  1.0000
  H   H15       1.0  0.41741  0.46617  0.94768  1.0000
  H   H16       1.0  0.58259  0.53383  0.05232  1.0000
  H   H17       1.0  0.24486  0.34236  0.91039  1.0000
  H   H18       1.0  0.75515  0.65763  0.08962  1.0000
  H   H19       1.0  0.65421  0.40538  0.35978  1.0000
  H   H20       1.0  0.34579  0.59462  0.64022  1.0000
  H   H21       1.0  0.45318  0.28361  0.33947  1.0000
  H   H22       1.0  0.54682  0.71639  0.66053  1.0000
  H   H23       1.0  0.53117  0.18966  0.21334  1.0000
  H   H24       1.0  0.46883  0.81033  0.78666  1.0000
  H   H25       1.0  0.62118  0.97927  0.03374  1.0000
  H   H26       1.0  0.37883  0.02073  0.96626  1.0000
  H   H27       1.0  0.56427  0.85771  0.94149  1.0000
  H   H28       1.0  0.43574  0.14229  0.05851  1.0000
  H   H29       1.0  0.96579  0.99960  0.72484  1.0000
  H   H30       1.0  0.03421  0.00040  0.27516  1.0000
  H   H31       1.0  0.01045  0.13088  0.80961  1.0000
  H   H32       1.0  0.98955  0.86911  0.19038  1.0000
  H   H33       1.0  0.28243  0.77042  0.31898  1.0000
  H   H34       1.0  0.71757  0.22958  0.68102  1.0000
  H   H35       1.0  0.34783  0.60538  0.46450  1.0000
  H   H36       1.0  0.65217  0.39462  0.53550  1.0000
  H   H37       1.0  0.51322  0.54878  0.40061  1.0000
  H   H38       1.0  0.48678  0.45122  0.59939  1.0000
  H   H39       1.0  0.61829  0.65271  0.48560  1.0000
  H   H40       1.0  0.38171  0.34729  0.51440  1.0000
  H   H41       1.0  0.49113  0.78463  0.43528  1.0000
  H   H42       1.0  0.50887  0.21537  0.56472  1.0000
  H   H43       1.0  0.69553  0.87012  0.18013  1.0000
  H   H44       1.0  0.30447  0.12988  0.81987  1.0000
  H   H45       1.0  0.53148  0.90725  0.25702  1.0000
  H   H46       1.0  0.46852  0.09275  0.74298  1.0000
  H   H47       1.0  0.43884  0.80689  0.15780  1.0000
  H   H48       1.0  0.56116  0.19311  0.84220  1.0000
  H   H49       1.0  0.57512  0.68162  0.20450  1.0000
  H   H50       1.0  0.42487  0.31838  0.79551  1.0000
  H   H51       1.0  0.04550  0.22919  0.89097  1.0000
  H   H52       1.0  0.95451  0.77081  0.10903  1.0000
  C   C1        1.0  0.68833  0.75532  0.33271  1.0000
  C   C2        1.0  0.31167  0.24468  0.66729  1.0000
  C   C3        1.0  0.80486  0.65543  0.31324  1.0000
  C   C4        1.0  0.19514  0.34457  0.68676  1.0000
  C   C5        1.0  0.04548  0.24829  0.46632  1.0000
  C   C6        1.0  0.95452  0.75171  0.53368  1.0000
  C   C7        1.0  0.02043  0.11473  0.50944  1.0000
  C   C8        1.0  0.97957  0.88527  0.49056  1.0000
  C   C9        1.0  0.16632  0.03727  0.48180  1.0000
  C   C10       1.0  0.83368  0.96273  0.51820  1.0000
  C   C11       1.0  0.86688  0.09523  0.47679  1.0000
  C   C12       1.0  0.13312  0.90477  0.52321  1.0000
  C   C13       1.0  0.25371  0.46952  0.07534  1.0000
  C   C14       1.0  0.74629  0.53048  0.92467  1.0000
  C   C15       1.0  0.30488  0.43685  0.99412  1.0000
  C   C16       1.0  0.69512  0.56315  0.00588  1.0000
  C   C17       1.0  0.20939  0.36821  0.97349  1.0000
  C   C18       1.0  0.79061  0.63179  0.02651  1.0000
  C   C19       1.0  0.06319  0.33278  0.03424  1.0000
  C   C20       1.0  0.93681  0.66723  0.96576  1.0000
  C   C21       1.0  0.01890  0.36978  0.11525  1.0000
  C   C22       1.0  0.98109  0.63022  0.88475  1.0000
  C   C23       1.0  0.86618  0.33881  0.17863  1.0000
  C   C24       1.0  0.13382  0.66119  0.82137  1.0000
  C   C25       1.0  0.68096  0.36483  0.30468  1.0000
  C   C26       1.0  0.31904  0.63517  0.69532  1.0000
  C   C27       1.0  0.57048  0.29536  0.29399  1.0000
  C   C28       1.0  0.42952  0.70464  0.70601  1.0000
  C   C29       1.0  0.61303  0.24399  0.22420  1.0000
  C   C30       1.0  0.38697  0.75601  0.77581  1.0000
  C   C31       1.0  0.76311  0.26494  0.16413  1.0000
  C   C32       1.0  0.23688  0.73506  0.83587  1.0000
  C   C33       1.0  0.81533  0.22182  0.08639  1.0000
  C   C34       1.0  0.18467  0.77818  0.91361  1.0000
  C   C35       1.0  0.95703  0.25961  0.02263  1.0000
  C   C36       1.0  0.04297  0.74039  0.97737  1.0000
  C   C37       1.0  0.83985  0.13806  0.98091  1.0000
  C   C38       1.0  0.16015  0.86194  0.01909  1.0000
  C   C39       1.0  0.81703  0.06410  0.92801  1.0000
  C   C40       1.0  0.18297  0.93590  0.07198  1.0000
  C   C41       1.0  0.69414  0.98481  0.96516  1.0000
  C   C42       1.0  0.30586  0.01519  0.03484  1.0000
  C   C43       1.0  0.66381  0.91560  0.91536  1.0000
  C   C44       1.0  0.33619  0.08440  0.08464  1.0000
  C   C45       1.0  0.76295  0.92419  0.82911  1.0000
  C   C46       1.0  0.23705  0.07581  0.17089  1.0000
  C   C47       1.0  0.88952  0.99804  0.79164  1.0000
  C   C48       1.0  0.11049  0.00196  0.20835  1.0000
  C   C49       1.0  0.91508  0.06955  0.84076  1.0000
  C   C50       1.0  0.08493  0.93045  0.15924  1.0000
  C   C51       1.0  0.27315  0.61655  0.28754  1.0000
  C   C52       1.0  0.72684  0.38345  0.71246  1.0000
  C   C53       1.0  0.37131  0.69818  0.30857  1.0000
  C   C54       1.0  0.62869  0.30182  0.69143  1.0000
  C   C55       1.0  0.44515  0.63238  0.40339  1.0000
  C   C56       1.0  0.55485  0.36762  0.59661  1.0000
  C   C57       1.0  0.55995  0.70696  0.42104  1.0000
  C   C58       1.0  0.44005  0.29304  0.57896  1.0000
  C   C59       1.0  0.60529  0.83110  0.24316  1.0000
  C   C60       1.0  0.39471  0.16890  0.75684  1.0000
  C   C61       1.0  0.49861  0.75455  0.22190  1.0000
  C   C62       1.0  0.50138  0.24545  0.77810  1.0000
  N   N1        1.0  0.11580  0.43661  0.13330  1.0000
  N   N2        1.0  0.88420  0.56339  0.86670  1.0000
  N   N3        1.0  0.82341  0.38553  0.24898  1.0000
  N   N4        1.0  0.17659  0.61447  0.75102  1.0000
  N   N5        1.0  0.74393  0.14593  0.05991  1.0000
  N   N6        1.0  0.25607  0.85407  0.94009  1.0000
  N   N7        1.0  0.96947  0.20614  0.95602  1.0000
  N   N8        1.0  0.03054  0.79386  0.04398  1.0000
  O   O1        1.0  0.82322  0.55312  0.38128  1.0000
  O   O2        1.0  0.17678  0.44688  0.61871  1.0000
  O   O3        1.0  0.88275  0.67524  0.22846  1.0000
  O   O4        1.0  0.11726  0.32476  0.77154  1.0000
  O   O5        1.0  0.00037  0.30595  0.52346  1.0000
  O   O6        1.0  0.99962  0.69405  0.47655  1.0000
  O   O7        1.0  0.10321  0.29113  0.37739  1.0000
  O   O8        1.0  0.89678  0.70887  0.62261  1.0000
  O   O9        1.0  0.18902  0.54069  0.35990  1.0000
  O   O10       1.0  0.81098  0.45931  0.64011  1.0000
  O   O11       1.0  0.27343  0.62275  0.20202  1.0000
  O   O12       1.0  0.72657  0.37725  0.79798  1.0000
  F   F1        1.0  0.73676  0.85552  0.77968  1.0000
  F   F2        1.0  0.26324  0.14448  0.22032  1.0000
