data_image0
_chemical_formula_structural       Mg6H36C24O36
_chemical_formula_sum              "Mg6 H36 C24 O36"
_cell_length_a       9.60809
_cell_length_b       9.60809
_cell_length_c       9.60809
_cell_angle_alpha    96.6254
_cell_angle_beta     96.6254
_cell_angle_gamma    96.6254

_space_group_name_H-M_alt    "P 1"
_space_group_IT_number       1

loop_
  _space_group_symop_operation_xyz
  'x, y, z'

loop_
  _atom_site_type_symbol
  _atom_site_label
  _atom_site_symmetry_multiplicity
  _atom_site_fract_x
  _atom_site_fract_y
  _atom_site_fract_z
  _atom_site_occupancy
  Mg  Mg1       1.0  0.16233  0.37457  0.78882  1.0000
  Mg  Mg2       1.0  0.78882  0.16233  0.37457  1.0000
  Mg  Mg3       1.0  0.37457  0.78882  0.16233  1.0000
  Mg  Mg4       1.0  0.83767  0.62543  0.21118  1.0000
  Mg  Mg5       1.0  0.21118  0.83767  0.62543  1.0000
  Mg  Mg6       1.0  0.62543  0.21118  0.83767  1.0000
  H   H1        1.0  0.37475  0.58709  0.82860  1.0000
  H   H2        1.0  0.82860  0.37475  0.58709  1.0000
  H   H3        1.0  0.58708  0.82860  0.37475  1.0000
  H   H4        1.0  0.62525  0.41291  0.17140  1.0000
  H   H5        1.0  0.17140  0.62524  0.41291  1.0000
  H   H6        1.0  0.41292  0.17140  0.62524  1.0000
  H   H7        1.0  0.31217  0.56437  0.66822  1.0000
  H   H8        1.0  0.66822  0.31217  0.56437  1.0000
  H   H9        1.0  0.56437  0.66822  0.31217  1.0000
  H   H10       1.0  0.68783  0.43563  0.33178  1.0000
  H   H11       1.0  0.33178  0.68783  0.43563  1.0000
  H   H12       1.0  0.43563  0.33178  0.68783  1.0000
  H   H13       1.0  0.97250  0.16930  0.69693  1.0000
  H   H14       1.0  0.69693  0.97250  0.16930  1.0000
  H   H15       1.0  0.16930  0.69693  0.97250  1.0000
  H   H16       1.0  0.02750  0.83070  0.30307  1.0000
  H   H17       1.0  0.30307  0.02750  0.83070  1.0000
  H   H18       1.0  0.83070  0.30307  0.02750  1.0000
  H   H19       1.0  0.94007  0.18799  0.85774  1.0000
  H   H20       1.0  0.85775  0.94007  0.18799  1.0000
  H   H21       1.0  0.18799  0.85774  0.94007  1.0000
  H   H22       1.0  0.05993  0.81201  0.14225  1.0000
  H   H23       1.0  0.14225  0.05993  0.81201  1.0000
  H   H24       1.0  0.81201  0.14225  0.05993  1.0000
  H   H25       1.0  0.07132  0.12396  0.27284  1.0000
  H   H26       1.0  0.27284  0.07132  0.12396  1.0000
  H   H27       1.0  0.12396  0.27284  0.07132  1.0000
  H   H28       1.0  0.92868  0.87604  0.72716  1.0000
  H   H29       1.0  0.72716  0.92868  0.87604  1.0000
  H   H30       1.0  0.87604  0.72716  0.92868  1.0000
  H   H31       1.0  0.22844  0.42135  0.37094  1.0000
  H   H32       1.0  0.37094  0.22844  0.42135  1.0000
  H   H33       1.0  0.42135  0.37094  0.22844  1.0000
  H   H34       1.0  0.77156  0.57865  0.62906  1.0000
  H   H35       1.0  0.62906  0.77156  0.57865  1.0000
  H   H36       1.0  0.57865  0.62906  0.77156  1.0000
  C   C1        1.0  0.10061  0.21064  0.49273  1.0000
  C   C2        1.0  0.49273  0.10061  0.21064  1.0000
  C   C3        1.0  0.21064  0.49273  0.10061  1.0000
  C   C4        1.0  0.89939  0.78936  0.50727  1.0000
  C   C5        1.0  0.50727  0.89939  0.78936  1.0000
  C   C6        1.0  0.78936  0.50727  0.89939  1.0000
  C   C7        1.0  0.14848  0.19970  0.34563  1.0000
  C   C8        1.0  0.34563  0.14848  0.19970  1.0000
  C   C9        1.0  0.19970  0.34563  0.14848  1.0000
  C   C10       1.0  0.85152  0.80030  0.65437  1.0000
  C   C11       1.0  0.65437  0.85152  0.80030  1.0000
  C   C12       1.0  0.80030  0.65437  0.85152  1.0000
  C   C13       1.0  0.15165  0.34674  0.29654  1.0000
  C   C14       1.0  0.29654  0.15165  0.34674  1.0000
  C   C15       1.0  0.34674  0.29654  0.15165  1.0000
  C   C16       1.0  0.84835  0.65326  0.70346  1.0000
  C   C17       1.0  0.70346  0.84835  0.65326  1.0000
  C   C18       1.0  0.65326  0.70346  0.84835  1.0000
  C   C19       1.0  0.00776  0.40011  0.29368  1.0000
  C   C20       1.0  0.29368  0.00776  0.40011  1.0000
  C   C21       1.0  0.40011  0.29368  0.00776  1.0000
  C   C22       1.0  0.99224  0.59989  0.70632  1.0000
  C   C23       1.0  0.70632  0.99224  0.59989  1.0000
  C   C24       1.0  0.59989  0.70632  0.99224  1.0000
  O   O1        1.0  0.18712  0.27793  0.59349  1.0000
  O   O2        1.0  0.59349  0.18712  0.27793  1.0000
  O   O3        1.0  0.27793  0.59349  0.18712  1.0000
  O   O4        1.0  0.81288  0.72207  0.40651  1.0000
  O   O5        1.0  0.40651  0.81288  0.72207  1.0000
  O   O6        1.0  0.72207  0.40651  0.81288  1.0000
  O   O7        1.0  0.97513  0.15757  0.50628  1.0000
  O   O8        1.0  0.50628  0.97513  0.15757  1.0000
  O   O9        1.0  0.15757  0.50628  0.97513  1.0000
  O   O10       1.0  0.02487  0.84243  0.49372  1.0000
  O   O11       1.0  0.49372  0.02487  0.84243  1.0000
  O   O12       1.0  0.84243  0.49372  0.02487  1.0000
  O   O13       1.0  0.89739  0.31127  0.27526  1.0000
  O   O14       1.0  0.27526  0.89739  0.31127  1.0000
  O   O15       1.0  0.31127  0.27526  0.89739  1.0000
  O   O16       1.0  0.10261  0.68873  0.72474  1.0000
  O   O17       1.0  0.72474  0.10261  0.68873  1.0000
  O   O18       1.0  0.68873  0.72474  0.10261  1.0000
  O   O19       1.0  0.00667  0.53377  0.30390  1.0000
  O   O20       1.0  0.30390  0.00667  0.53377  1.0000
  O   O21       1.0  0.53377  0.30390  0.00667  1.0000
  O   O22       1.0  0.99333  0.46623  0.69610  1.0000
  O   O23       1.0  0.69610  0.99333  0.46623  1.0000
  O   O24       1.0  0.46623  0.69610  0.99333  1.0000
  O   O25       1.0  0.33735  0.51255  0.74799  1.0000
  O   O26       1.0  0.74799  0.33735  0.51255  1.0000
  O   O27       1.0  0.51255  0.74799  0.33735  1.0000
  O   O28       1.0  0.66265  0.48745  0.25201  1.0000
  O   O29       1.0  0.25201  0.66265  0.48745  1.0000
  O   O30       1.0  0.48745  0.25201  0.66265  1.0000
  O   O31       1.0  0.01760  0.18902  0.79753  1.0000
  O   O32       1.0  0.79753  0.01760  0.18902  1.0000
  O   O33       1.0  0.18902  0.79753  0.01760  1.0000
  O   O34       1.0  0.98240  0.81098  0.20247  1.0000
  O   O35       1.0  0.20247  0.98240  0.81098  1.0000
  O   O36       1.0  0.81098  0.20247  0.98240  1.0000
