data_image0
_chemical_formula_structural       Zn2H44C50N6O14F2
_chemical_formula_sum              "Zn2 H44 C50 N6 O14 F2"
_cell_length_a       9.78489
_cell_length_b       10.169
_cell_length_c       12.762
_cell_angle_alpha    107.424
_cell_angle_beta     107.594
_cell_angle_gamma    96.3169

_space_group_name_H-M_alt    "P 1"
_space_group_IT_number       1

loop_
  _space_group_symop_operation_xyz
  'x, y, z'

loop_
  _atom_site_type_symbol
  _atom_site_label
  _atom_site_symmetry_multiplicity
  _atom_site_fract_x
  _atom_site_fract_y
  _atom_site_fract_z
  _atom_site_occupancy
  Zn  Zn1       1.0  0.83827  0.82670  0.96317  1.0000
  Zn  Zn2       1.0  0.16176  0.17333  0.03683  1.0000
  H   H1        1.0  0.22976  0.51597  0.94514  1.0000
  H   H2        1.0  0.77024  0.48403  0.05486  1.0000
  H   H3        1.0  0.35717  0.66426  0.96115  1.0000
  H   H4        1.0  0.64283  0.33574  0.03885  1.0000
  H   H5        1.0  0.12390  0.07296  0.30923  1.0000
  H   H6        1.0  0.87610  0.92704  0.69077  1.0000
  H   H7        1.0  0.84746  0.32548  0.54415  1.0000
  H   H8        1.0  0.15255  0.67452  0.45585  1.0000
  H   H9        1.0  0.48844  0.04614  0.18816  1.0000
  H   H10       1.0  0.51155  0.95387  0.81183  1.0000
  H   H11       1.0  0.58748  0.19861  0.45877  1.0000
  H   H12       1.0  0.41253  0.80138  0.54123  1.0000
  H   H13       1.0  0.62708  0.45962  0.50900  1.0000
  H   H14       1.0  0.37292  0.54037  0.49101  1.0000
  H   H15       1.0  0.70019  0.44779  0.39082  1.0000
  H   H16       1.0  0.29980  0.55221  0.60918  1.0000
  H   H17       1.0  0.38310  0.29571  0.35366  1.0000
  H   H18       1.0  0.61690  0.70429  0.64635  1.0000
  H   H19       1.0  0.46231  0.28608  0.24016  1.0000
  H   H20       1.0  0.53768  0.71392  0.75985  1.0000
  H   H21       1.0  0.29990  0.27069  0.69593  1.0000
  H   H22       1.0  0.70010  0.72931  0.30407  1.0000
  H   H23       1.0  0.18036  0.28134  0.77790  1.0000
  H   H24       1.0  0.81963  0.71866  0.22209  1.0000
  H   H25       1.0  0.42425  0.42760  0.90478  1.0000
  H   H26       1.0  0.57575  0.57240  0.09522  1.0000
  H   H27       1.0  0.42619  0.52278  0.80816  1.0000
  H   H28       1.0  0.57381  0.47722  0.19183  1.0000
  H   H29       1.0  0.23114  0.67474  0.78226  1.0000
  H   H30       1.0  0.76886  0.32526  0.21774  1.0000
  H   H31       1.0  0.11319  0.67873  0.86470  1.0000
  H   H32       1.0  0.88681  0.32127  0.13530  1.0000
  H   H33       1.0  0.98880  0.42874  0.74805  1.0000
  H   H34       1.0  0.01120  0.57126  0.25195  1.0000
  H   H35       1.0  0.99144  0.52495  0.65255  1.0000
  H   H36       1.0  0.00856  0.47505  0.34745  1.0000
  H   H37       1.0  0.58248  0.39403  0.66434  1.0000
  H   H38       1.0  0.41752  0.60597  0.33567  1.0000
  H   H39       1.0  0.50675  0.13032  0.57384  1.0000
  H   H40       1.0  0.49325  0.86968  0.42616  1.0000
  H   H41       1.0  0.63226  0.98150  0.67865  1.0000
  H   H42       1.0  0.36774  0.01850  0.32135  1.0000
  H   H43       1.0  0.90549  0.35390  0.96162  1.0000
  H   H44       1.0  0.09451  0.64610  0.03838  1.0000
  C   C1        1.0  0.57485  0.85269  0.04532  1.0000
  C   C2        1.0  0.42514  0.14731  0.95467  1.0000
  C   C3        1.0  0.67371  0.97347  0.15313  1.0000
  C   C4        1.0  0.32630  0.02653  0.84687  1.0000
  C   C5        1.0  0.83112  0.99529  0.19513  1.0000
  C   C6        1.0  0.16887  0.00471  0.80487  1.0000
  C   C7        1.0  0.90904  0.10121  0.31139  1.0000
  C   C8        1.0  0.09096  0.89881  0.68861  1.0000
  C   C9        1.0  0.06332  0.12615  0.36163  1.0000
  C   C10       1.0  0.93669  0.87385  0.63837  1.0000
  C   C11       1.0  0.13527  0.22025  0.47339  1.0000
  C   C12       1.0  0.86473  0.77974  0.52662  1.0000
  C   C13       1.0  0.06189  0.29480  0.54503  1.0000
  C   C14       1.0  0.93811  0.70520  0.45497  1.0000
  C   C15       1.0  0.90920  0.27261  0.49317  1.0000
  C   C16       1.0  0.09080  0.72738  0.50684  1.0000
  C   C17       1.0  0.83350  0.17961  0.37747  1.0000
  C   C18       1.0  0.16650  0.82039  0.62252  1.0000
  C   C19       1.0  0.60737  0.05869  0.21984  1.0000
  C   C20       1.0  0.39263  0.94131  0.78017  1.0000
  C   C21       1.0  0.60142  0.23981  0.39212  1.0000
  C   C22       1.0  0.39858  0.76019  0.60788  1.0000
  C   C23       1.0  0.62446  0.39748  0.42215  1.0000
  C   C24       1.0  0.37553  0.60252  0.57786  1.0000
  C   C25       1.0  0.48232  0.30119  0.33209  1.0000
  C   C26       1.0  0.51768  0.69881  0.66791  1.0000
  C   C27       1.0  0.24259  0.34111  0.74101  1.0000
  C   C28       1.0  0.75741  0.65890  0.25899  1.0000
  C   C29       1.0  0.35526  0.46571  0.83990  1.0000
  C   C30       1.0  0.64475  0.53429  0.16010  1.0000
  C   C31       1.0  0.16963  0.61072  0.81576  1.0000
  C   C32       1.0  0.83037  0.38928  0.18424  1.0000
  C   C33       1.0  0.06102  0.48478  0.71566  1.0000
  C   C34       1.0  0.93899  0.51521  0.28434  1.0000
  C   C35       1.0  0.74999  0.39099  0.81874  1.0000
  C   C36       1.0  0.25001  0.60900  0.18126  1.0000
  C   C37       1.0  0.63836  0.32776  0.70829  1.0000
  C   C38       1.0  0.36163  0.67224  0.29171  1.0000
  C   C39       1.0  0.59698  0.18033  0.65785  1.0000
  C   C40       1.0  0.40302  0.81968  0.34216  1.0000
  C   C41       1.0  0.66569  0.09633  0.71657  1.0000
  C   C42       1.0  0.33431  0.90367  0.28343  1.0000
  C   C43       1.0  0.77548  0.15937  0.82778  1.0000
  C   C44       1.0  0.22453  0.84064  0.17223  1.0000
  C   C45       1.0  0.81821  0.30587  0.87643  1.0000
  C   C46       1.0  0.18179  0.69412  0.12357  1.0000
  C   C47       1.0  0.79310  0.54706  0.88357  1.0000
  C   C48       1.0  0.20690  0.45293  0.11643  1.0000
  C   C49       1.0  0.83715  0.07565  0.90247  1.0000
  C   C50       1.0  0.16285  0.92436  0.09753  1.0000
  N   N1        1.0  0.28003  0.56644  0.89963  1.0000
  N   N2        1.0  0.71996  0.43357  0.10037  1.0000
  N   N3        1.0  0.13987  0.39038  0.65780  1.0000
  N   N4        1.0  0.86011  0.60963  0.34219  1.0000
  N   N5        1.0  0.68162  0.16052  0.32597  1.0000
  N   N6        1.0  0.31838  0.83949  0.67403  1.0000
  O   O1        1.0  0.44396  0.81666  0.04083  1.0000
  O   O2        1.0  0.55604  0.18334  0.95917  1.0000
  O   O3        1.0  0.62373  0.78877  0.96662  1.0000
  O   O4        1.0  0.37627  0.21124  0.03338  1.0000
  O   O5        1.0  0.90491  0.92532  0.14138  1.0000
  O   O6        1.0  0.09508  0.07468  0.85862  1.0000
  O   O7        1.0  0.79117  0.63207  0.82738  1.0000
  O   O8        1.0  0.20882  0.36793  0.17261  1.0000
  O   O9        1.0  0.83110  0.58970  0.99509  1.0000
  O   O10       1.0  0.16890  0.41030  0.00492  1.0000
  O   O11       1.0  0.78084  0.94311  0.86026  1.0000
  O   O12       1.0  0.21918  0.05688  0.13976  1.0000
  O   O13       1.0  0.93360  0.14062  0.00400  1.0000
  O   O14       1.0  0.06639  0.85939  0.99599  1.0000
  F   F1        1.0  0.28627  0.24740  0.51708  1.0000
  F   F2        1.0  0.71374  0.75260  0.48292  1.0000
