data_image0
_chemical_formula_structural       Ba4H20C24O26
_chemical_formula_sum              "Ba4 H20 C24 O26"
_cell_length_a       9.12342
_cell_length_b       9.55895
_cell_length_c       10.1078
_cell_angle_alpha    103.954
_cell_angle_beta     90.0062
_cell_angle_gamma    118.516

_space_group_name_H-M_alt    "P 1"
_space_group_IT_number       1

loop_
  _space_group_symop_operation_xyz
  'x, y, z'

loop_
  _atom_site_type_symbol
  _atom_site_label
  _atom_site_symmetry_multiplicity
  _atom_site_fract_x
  _atom_site_fract_y
  _atom_site_fract_z
  _atom_site_occupancy
  Ba  Ba1       1.0  0.42348  0.22552  0.49923  1.0000
  Ba  Ba2       1.0  0.19809  0.77451  0.00083  1.0000
  Ba  Ba3       1.0  0.57652  0.77448  0.50077  1.0000
  Ba  Ba4       1.0  0.80191  0.22549  0.99917  1.0000
  H   H1        1.0  0.89851  0.85813  0.86692  1.0000
  H   H2        1.0  0.04025  0.14178  0.63313  1.0000
  H   H3        1.0  0.10149  0.14187  0.13307  1.0000
  H   H4        1.0  0.95975  0.85822  0.36687  1.0000
  H   H5        1.0  0.42704  0.91722  0.27230  1.0000
  H   H6        1.0  0.50993  0.08298  0.22782  1.0000
  H   H7        1.0  0.57296  0.08278  0.72770  1.0000
  H   H8        1.0  0.49007  0.91702  0.77218  1.0000
  H   H9        1.0  0.22995  0.58038  0.47211  1.0000
  H   H10       1.0  0.64926  0.41935  0.02777  1.0000
  H   H11       1.0  0.77005  0.41962  0.52789  1.0000
  H   H12       1.0  0.35074  0.58065  0.97223  1.0000
  H   H13       1.0  0.92841  0.62111  0.40697  1.0000
  H   H14       1.0  0.30717  0.37898  0.09313  1.0000
  H   H15       1.0  0.07158  0.37889  0.59303  1.0000
  H   H16       1.0  0.69283  0.62102  0.90687  1.0000
  H   H17       1.0  0.12289  0.67033  0.67660  1.0000
  H   H18       1.0  0.45233  0.32965  0.82352  1.0000
  H   H19       1.0  0.87711  0.32967  0.32340  1.0000
  H   H20       1.0  0.54768  0.67036  0.17648  1.0000
  C   C1        1.0  0.18167  0.59027  0.26654  1.0000
  C   C2        1.0  0.59147  0.40970  0.23342  1.0000
  C   C3        1.0  0.81832  0.40973  0.73346  1.0000
  C   C4        1.0  0.40853  0.59030  0.76658  1.0000
  C   C5        1.0  0.16844  0.84073  0.48336  1.0000
  C   C6        1.0  0.32741  0.15929  0.01663  1.0000
  C   C7        1.0  0.83156  0.15927  0.51664  1.0000
  C   C8        1.0  0.67259  0.84071  0.98337  1.0000
  C   C9        1.0  0.92668  0.73658  0.68401  1.0000
  C   C10       1.0  0.18991  0.26350  0.81603  1.0000
  C   C11       1.0  0.07331  0.26342  0.31599  1.0000
  C   C12       1.0  0.81009  0.73650  0.18397  1.0000
  C   C13       1.0  0.12064  0.54911  0.40131  1.0000
  C   C14       1.0  0.57143  0.45080  0.09865  1.0000
  C   C15       1.0  0.87936  0.45089  0.59869  1.0000
  C   C16       1.0  0.42857  0.54920  0.90135  1.0000
  C   C17       1.0  0.04564  0.65860  0.47035  1.0000
  C   C18       1.0  0.38683  0.34144  0.02971  1.0000
  C   C19       1.0  0.95436  0.34140  0.52965  1.0000
  C   C20       1.0  0.61317  0.65856  0.97029  1.0000
  C   C21       1.0  0.00574  0.63464  0.61415  1.0000
  C   C22       1.0  0.37095  0.36543  0.88591  1.0000
  C   C23       1.0  0.99425  0.36536  0.38585  1.0000
  C   C24       1.0  0.62905  0.63457  0.11409  1.0000
  O   O1        1.0  0.07485  0.53231  0.16028  1.0000
  O   O2        1.0  0.54286  0.46778  0.33978  1.0000
  O   O3        1.0  0.92515  0.46769  0.83972  1.0000
  O   O4        1.0  0.45714  0.53222  0.66022  1.0000
  O   O5        1.0  0.33902  0.68908  0.27197  1.0000
  O   O6        1.0  0.64990  0.31084  0.22792  1.0000
  O   O7        1.0  0.66098  0.31092  0.72803  1.0000
  O   O8        1.0  0.35010  0.68916  0.77208  1.0000
  O   O9        1.0  0.31629  0.90556  0.54347  1.0000
  O   O10       1.0  0.41040  0.09452  0.95642  1.0000
  O   O11       1.0  0.68371  0.09444  0.45653  1.0000
  O   O12       1.0  0.58960  0.90548  0.04358  1.0000
  O   O13       1.0  0.11723  0.92387  0.43296  1.0000
  O   O14       1.0  0.19311  0.07611  0.06707  1.0000
  O   O15       1.0  0.88277  0.07613  0.56704  1.0000
  O   O16       1.0  0.80689  0.92389  0.93293  1.0000
  O   O17       1.0  0.97721  0.80614  0.81697  1.0000
  O   O18       1.0  0.17084  0.19361  0.68313  1.0000
  O   O19       1.0  0.02279  0.19386  0.18303  1.0000
  O   O20       1.0  0.82916  0.80639  0.31687  1.0000
  O   O21       1.0  0.81759  0.74542  0.61975  1.0000
  O   O22       1.0  0.07199  0.25484  0.88021  1.0000
  O   O23       1.0  0.18241  0.25458  0.38024  1.0000
  O   O24       1.0  0.92801  0.74516  0.11979  1.0000
  O   O25       1.0  0.40383  0.00005  0.25000  1.0000
  O   O26       1.0  0.59617  0.99995  0.75000  1.0000
