data_image0
_chemical_formula_structural       U2CdH30C32N4O22
_chemical_formula_sum              "U2 Cd1 H30 C32 N4 O22"
_cell_length_a       7.68753
_cell_length_b       10.8534
_cell_length_c       13.8226
_cell_angle_alpha    78.7996
_cell_angle_beta     81.634
_cell_angle_gamma    86.2585

_space_group_name_H-M_alt    "P 1"
_space_group_IT_number       1

loop_
  _space_group_symop_operation_xyz
  'x, y, z'

loop_
  _atom_site_type_symbol
  _atom_site_label
  _atom_site_symmetry_multiplicity
  _atom_site_fract_x
  _atom_site_fract_y
  _atom_site_fract_z
  _atom_site_occupancy
  U   U1        1.0  0.20905  0.39993  0.64007  1.0000
  U   U2        1.0  0.79094  0.60006  0.35993  1.0000
  Cd  Cd1       1.0  0.50000  0.00000  0.50000  1.0000
  H   H1        1.0  0.84849  0.98977  0.50859  1.0000
  H   H2        1.0  0.15150  0.01022  0.49141  1.0000
  H   H3        1.0  0.84601  0.86165  0.46923  1.0000
  H   H4        1.0  0.15398  0.13834  0.53077  1.0000
  H   H5        1.0  0.14384  0.76814  0.58203  1.0000
  H   H6        1.0  0.85616  0.23185  0.41797  1.0000
  H   H7        1.0  0.93489  0.80921  0.63964  1.0000
  H   H8        1.0  0.06511  0.19078  0.36036  1.0000
  H   H9        1.0  0.72101  0.36081  0.63326  1.0000
  H   H10       1.0  0.27900  0.63920  0.36672  1.0000
  H   H11       1.0  0.78970  0.21036  0.69537  1.0000
  H   H12       1.0  0.21032  0.78966  0.30462  1.0000
  H   H13       1.0  0.14051  0.65000  0.89367  1.0000
  H   H14       1.0  0.85949  0.35001  0.10633  1.0000
  H   H15       1.0  0.51686  0.29260  0.41450  1.0000
  H   H16       1.0  0.48313  0.70740  0.58550  1.0000
  H   H17       1.0  0.43247  0.45504  0.27660  1.0000
  H   H18       1.0  0.56753  0.54496  0.72340  1.0000
  H   H19       1.0  0.32006  0.15565  0.13096  1.0000
  H   H20       1.0  0.67994  0.84436  0.86904  1.0000
  H   H21       1.0  0.41745  0.00486  0.27322  1.0000
  H   H22       1.0  0.58253  0.99514  0.72678  1.0000
  H   H23       1.0  0.18251  0.54541  0.20227  1.0000
  H   H24       1.0  0.81748  0.45460  0.79773  1.0000
  H   H25       1.0  0.08604  0.69762  0.05973  1.0000
  H   H26       1.0  0.91396  0.30239  0.94028  1.0000
  H   H27       1.0  0.29613  0.46793  0.85908  1.0000
  H   H28       1.0  0.70387  0.53208  0.14092  1.0000
  H   H29       1.0  0.40874  0.30907  0.99084  1.0000
  H   H30       1.0  0.59126  0.69094  0.00916  1.0000
  C   C1        1.0  0.94950  0.64399  0.57271  1.0000
  C   C2        1.0  0.05049  0.35600  0.42730  1.0000
  C   C3        1.0  0.02559  0.72873  0.63059  1.0000
  C   C4        1.0  0.97441  0.27126  0.36941  1.0000
  C   C5        1.0  0.08240  0.66832  0.73028  1.0000
  C   C6        1.0  0.91760  0.33167  0.26973  1.0000
  C   C7        1.0  0.55183  0.29203  0.76782  1.0000
  C   C8        1.0  0.44819  0.70799  0.23218  1.0000
  C   C9        1.0  0.67449  0.26904  0.67537  1.0000
  C   C10       1.0  0.32552  0.73097  0.32462  1.0000
  C   C11       1.0  0.58220  0.21327  0.60560  1.0000
  C   C12       1.0  0.41781  0.78673  0.39440  1.0000
  C   C13       1.0  0.47439  0.26528  0.35013  1.0000
  C   C14       1.0  0.52561  0.73471  0.64987  1.0000
  C   C15       1.0  0.42302  0.35650  0.27304  1.0000
  C   C16       1.0  0.57697  0.64350  0.72696  1.0000
  C   C17       1.0  0.36504  0.31958  0.19189  1.0000
  C   C18       1.0  0.63495  0.68043  0.80812  1.0000
  C   C19       1.0  0.36622  0.19046  0.19111  1.0000
  C   C20       1.0  0.63378  0.80954  0.80889  1.0000
  C   C21       1.0  0.41931  0.10547  0.27115  1.0000
  C   C22       1.0  0.58067  0.89453  0.72885  1.0000
  C   C23       1.0  0.30369  0.41270  0.10996  1.0000
  C   C24       1.0  0.69630  0.58730  0.89004  1.0000
  C   C25       1.0  0.21351  0.52469  0.12769  1.0000
  C   C26       1.0  0.78649  0.47532  0.87232  1.0000
  C   C27       1.0  0.15688  0.61005  0.04922  1.0000
  C   C28       1.0  0.84312  0.38996  0.95078  1.0000
  C   C29       1.0  0.27590  0.47994  0.93636  1.0000
  C   C30       1.0  0.72411  0.52007  0.06364  1.0000
  C   C31       1.0  0.33491  0.39142  0.01183  1.0000
  C   C32       1.0  0.66510  0.60859  0.98817  1.0000
  N   N1        1.0  0.47055  0.14151  0.35028  1.0000
  N   N2        1.0  0.52943  0.85849  0.64972  1.0000
  N   N3        1.0  0.18840  0.58606  0.95610  1.0000
  N   N4        1.0  0.81160  0.41395  0.04391  1.0000
  O   O1        1.0  0.95075  0.52533  0.60237  1.0000
  O   O2        1.0  0.04925  0.47466  0.39764  1.0000
  O   O3        1.0  0.88716  0.69813  0.49404  1.0000
  O   O4        1.0  0.11283  0.30186  0.50597  1.0000
  O   O5        1.0  0.14704  0.55512  0.74023  1.0000
  O   O6        1.0  0.85296  0.44487  0.25978  1.0000
  O   O7        1.0  0.06851  0.73128  0.79890  1.0000
  O   O8        1.0  0.93149  0.26872  0.20109  1.0000
  O   O9        1.0  0.41526  0.36703  0.74883  1.0000
  O   O10       1.0  0.58475  0.63298  0.25117  1.0000
  O   O11       1.0  0.58442  0.24557  0.85265  1.0000
  O   O12       1.0  0.41561  0.75447  0.14734  1.0000
  O   O13       1.0  0.42092  0.24367  0.59687  1.0000
  O   O14       1.0  0.57910  0.75631  0.40313  1.0000
  O   O15       1.0  0.66827  0.13466  0.55809  1.0000
  O   O16       1.0  0.33175  0.86533  0.44191  1.0000
  O   O17       1.0  0.32944  0.52056  0.55115  1.0000
  O   O18       1.0  0.67055  0.47943  0.44884  1.0000
  O   O19       1.0  0.07072  0.28830  0.72777  1.0000
  O   O20       1.0  0.92932  0.71169  0.27223  1.0000
  O   O21       1.0  0.81305  0.95307  0.45570  1.0000
  O   O22       1.0  0.18694  0.04692  0.54431  1.0000
