data_image0
_chemical_formula_structural       U2Cd2H24C32N4O20
_chemical_formula_sum              "U2 Cd2 H24 C32 N4 O20"
_cell_length_a       7.57363
_cell_length_b       11.6613
_cell_length_c       11.6611
_cell_angle_alpha    96.1186
_cell_angle_beta     105.924
_cell_angle_gamma    105.925

_space_group_name_H-M_alt    "P 1"
_space_group_IT_number       1

loop_
  _space_group_symop_operation_xyz
  'x, y, z'

loop_
  _atom_site_type_symbol
  _atom_site_label
  _atom_site_symmetry_multiplicity
  _atom_site_fract_x
  _atom_site_fract_y
  _atom_site_fract_z
  _atom_site_occupancy
  U   U1        1.0  0.22020  0.12650  0.78150  1.0000
  U   U2        1.0  0.72018  0.78148  0.12649  1.0000
  Cd  Cd1       1.0  0.79392  0.29100  0.81486  1.0000
  Cd  Cd2       1.0  0.29390  0.81485  0.29100  1.0000
  H   H1        1.0  0.29512  0.48963  0.69255  1.0000
  H   H2        1.0  0.79510  0.69255  0.48963  1.0000
  H   H3        1.0  0.42680  0.58091  0.83730  1.0000
  H   H4        1.0  0.92675  0.83731  0.58090  1.0000
  H   H5        1.0  0.57158  0.86674  0.65822  1.0000
  H   H6        1.0  0.07158  0.65822  0.86674  1.0000
  H   H7        1.0  0.60666  0.85298  0.81136  1.0000
  H   H8        1.0  0.10666  0.81136  0.85298  1.0000
  H   H9        1.0  0.85274  0.13188  0.01626  1.0000
  H   H10       1.0  0.35275  0.01625  0.13187  1.0000
  H   H11       1.0  0.85458  0.12815  0.22588  1.0000
  H   H12       1.0  0.35459  0.22588  0.12814  1.0000
  H   H13       1.0  0.74330  0.47551  0.23613  1.0000
  H   H14       1.0  0.24329  0.23613  0.47550  1.0000
  H   H15       1.0  0.75427  0.46596  0.02770  1.0000
  H   H16       1.0  0.25427  0.02771  0.46595  1.0000
  H   H17       1.0  0.86346  0.49721  0.43499  1.0000
  H   H18       1.0  0.36347  0.43499  0.49720  1.0000
  H   H19       1.0  0.83783  0.48258  0.64268  1.0000
  H   H20       1.0  0.33785  0.64268  0.48258  1.0000
  H   H21       1.0  0.71273  0.10823  0.57182  1.0000
  H   H22       1.0  0.21273  0.57182  0.10823  1.0000
  H   H23       1.0  0.73104  0.10543  0.36418  1.0000
  H   H24       1.0  0.23104  0.36418  0.10543  1.0000
  C   C1        1.0  0.19161  0.42307  0.82978  1.0000
  C   C2        1.0  0.69159  0.82976  0.42306  1.0000
  C   C3        1.0  0.36014  0.48611  0.78884  1.0000
  C   C4        1.0  0.86011  0.78884  0.48610  1.0000
  C   C5        1.0  0.51350  0.42491  0.79332  1.0000
  C   C6        1.0  0.01348  0.79332  0.42490  1.0000
  C   C7        1.0  0.82965  0.99078  0.77910  1.0000
  C   C8        1.0  0.32965  0.77910  0.99077  1.0000
  C   C9        1.0  0.61906  0.91973  0.75178  1.0000
  C   C10       1.0  0.11906  0.75177  0.91973  1.0000
  C   C11       1.0  0.47993  0.98968  0.75489  1.0000
  C   C12       1.0  0.97994  0.75488  0.98968  1.0000
  C   C13       1.0  0.82966  0.20646  0.06852  1.0000
  C   C14       1.0  0.32965  0.06852  0.20645  1.0000
  C   C15       1.0  0.82994  0.20551  0.18742  1.0000
  C   C16       1.0  0.32995  0.18742  0.20551  1.0000
  C   C17       1.0  0.80108  0.30269  0.25334  1.0000
  C   C18       1.0  0.30109  0.25334  0.30269  1.0000
  C   C19       1.0  0.77200  0.39768  0.19380  1.0000
  C   C20       1.0  0.27200  0.19379  0.39768  1.0000
  C   C21       1.0  0.77523  0.39250  0.07474  1.0000
  C   C22       1.0  0.27523  0.07474  0.39249  1.0000
  C   C23       1.0  0.79708  0.30173  0.37936  1.0000
  C   C24       1.0  0.29710  0.37936  0.30173  1.0000
  C   C25       1.0  0.82797  0.40868  0.46082  1.0000
  C   C26       1.0  0.32797  0.46082  0.40868  1.0000
  C   C27       1.0  0.81594  0.40199  0.57687  1.0000
  C   C28       1.0  0.31594  0.57687  0.40199  1.0000
  C   C29       1.0  0.74682  0.19282  0.53864  1.0000
  C   C30       1.0  0.24682  0.53864  0.19282  1.0000
  C   C31       1.0  0.75778  0.19227  0.42166  1.0000
  C   C32       1.0  0.25779  0.42166  0.19227  1.0000
  N   N1        1.0  0.80408  0.29870  0.01293  1.0000
  N   N2        1.0  0.30408  0.01293  0.29869  1.0000
  N   N3        1.0  0.77534  0.29565  0.61514  1.0000
  N   N4        1.0  0.27533  0.61514  0.29565  1.0000
  O   O1        1.0  0.13621  0.30590  0.81641  1.0000
  O   O2        1.0  0.63620  0.81641  0.30589  1.0000
  O   O3        1.0  0.09888  0.48311  0.86899  1.0000
  O   O4        1.0  0.59884  0.86896  0.48310  1.0000
  O   O5        1.0  0.46639  0.30789  0.78508  1.0000
  O   O6        1.0  0.96638  0.78508  0.30789  1.0000
  O   O7        1.0  0.68250  0.48667  0.80367  1.0000
  O   O8        1.0  0.18247  0.80367  0.48667  1.0000
  O   O9        1.0  0.94612  0.93699  0.75850  1.0000
  O   O10       1.0  0.44613  0.75849  0.93699  1.0000
  O   O11       1.0  0.89932  0.10615  0.82176  1.0000
  O   O12       1.0  0.39930  0.82175  0.10614  1.0000
  O   O13       1.0  0.51474  0.09980  0.73661  1.0000
  O   O14       1.0  0.01475  0.73661  0.09980  1.0000
  O   O15       1.0  0.31995  0.94019  0.77174  1.0000
  O   O16       1.0  0.81995  0.77173  0.94019  1.0000
  O   O17       1.0  0.10997  0.10872  0.61847  1.0000
  O   O18       1.0  0.60997  0.61846  0.10873  1.0000
  O   O19       1.0  0.33219  0.14342  0.94393  1.0000
  O   O20       1.0  0.83218  0.94392  0.14341  1.0000
