data_image0
_chemical_formula_structural       Mn2H32C52N4O8
_chemical_formula_sum              "Mn2 H32 C52 N4 O8"
_cell_length_a       7.07985
_cell_length_b       11.69
_cell_length_c       14.4853
_cell_angle_alpha    113.813
_cell_angle_beta     103.055
_cell_angle_gamma    89.9596

_space_group_name_H-M_alt    "P 1"
_space_group_IT_number       1

loop_
  _space_group_symop_operation_xyz
  'x, y, z'

loop_
  _atom_site_type_symbol
  _atom_site_label
  _atom_site_symmetry_multiplicity
  _atom_site_fract_x
  _atom_site_fract_y
  _atom_site_fract_z
  _atom_site_occupancy
  Mn  Mn1       1.0  0.74996  0.61943  0.00004  1.0000
  Mn  Mn2       1.0  0.25006  0.38059  1.00000  1.0000
  H   H1        1.0  0.04670  0.79827  0.21830  1.0000
  H   H2        1.0  0.45333  0.57994  0.78139  1.0000
  H   H3        1.0  0.95327  0.20177  0.78172  1.0000
  H   H4        1.0  0.54671  0.42005  0.21859  1.0000
  H   H5        1.0  0.16902  0.02724  0.32101  1.0000
  H   H6        1.0  0.33112  0.70624  0.67869  1.0000
  H   H7        1.0  0.83096  0.97280  0.67899  1.0000
  H   H8        1.0  0.66892  0.29373  0.32128  1.0000
  H   H9        1.0  0.05399  0.17993  0.24272  1.0000
  H   H10       1.0  0.44581  0.93721  0.75712  1.0000
  H   H11       1.0  0.94599  0.82007  0.75725  1.0000
  H   H12       1.0  0.55421  0.06277  0.24285  1.0000
  H   H13       1.0  0.86393  0.21443  0.08592  1.0000
  H   H14       1.0  0.63584  0.12845  0.91392  1.0000
  H   H15       1.0  0.13607  0.78556  0.91406  1.0000
  H   H16       1.0  0.36413  0.87153  0.08606  1.0000
  H   H17       1.0  0.78219  0.64309  0.29129  1.0000
  H   H18       1.0  0.71785  0.35181  0.70860  1.0000
  H   H19       1.0  0.21781  0.35690  0.70878  1.0000
  H   H20       1.0  0.28218  0.64822  0.29138  1.0000
  H   H21       1.0  0.79473  0.64423  0.46181  1.0000
  H   H22       1.0  0.70501  0.18234  0.53808  1.0000
  H   H23       1.0  0.20534  0.35573  0.53827  1.0000
  H   H24       1.0  0.29499  0.81769  0.46189  1.0000
  H   H25       1.0  0.19943  0.36061  0.40529  1.0000
  H   H26       1.0  0.30109  0.95552  0.59490  1.0000
  H   H27       1.0  0.80052  0.63930  0.59472  1.0000
  H   H28       1.0  0.69885  0.04453  0.40506  1.0000
  H   H29       1.0  0.17094  0.35578  0.23112  1.0000
  H   H30       1.0  0.32958  0.12505  0.76900  1.0000
  H   H31       1.0  0.82905  0.64420  0.76890  1.0000
  H   H32       1.0  0.67042  0.87499  0.23098  1.0000
  C   C1        1.0  0.00174  0.86792  0.18765  1.0000
  C   C2        1.0  0.49811  0.68025  0.81214  1.0000
  C   C3        1.0  0.99826  0.13211  0.81236  1.0000
  C   C4        1.0  0.50191  0.31972  0.18784  1.0000
  C   C5        1.0  0.06809  0.99637  0.24452  1.0000
  C   C6        1.0  0.43174  0.75185  0.75527  1.0000
  C   C7        1.0  0.93190  0.00365  0.75548  1.0000
  C   C8        1.0  0.56829  0.24813  0.24471  1.0000
  C   C9        1.0  0.00588  0.07988  0.20112  1.0000
  C   C10       1.0  0.49379  0.87878  0.79875  1.0000
  C   C11       1.0  0.99411  0.92013  0.79886  1.0000
  C   C12       1.0  0.50622  0.12120  0.20122  1.0000
  C   C13       1.0  0.87872  0.03538  0.10067  1.0000
  C   C14       1.0  0.62090  0.93467  0.89922  1.0000
  C   C15       1.0  0.12128  0.96461  0.89931  1.0000
  C   C16       1.0  0.37911  0.06531  0.10076  1.0000
  C   C17       1.0  0.81655  0.90462  0.05066  1.0000
  C   C18       1.0  0.68314  0.85389  0.94919  1.0000
  C   C19       1.0  0.18344  0.09537  0.94932  1.0000
  C   C20       1.0  0.31688  0.14610  0.05081  1.0000
  C   C21       1.0  0.81224  0.11450  0.04838  1.0000
  C   C22       1.0  0.68749  0.06606  0.95147  1.0000
  C   C23       1.0  0.18775  0.88549  0.95160  1.0000
  C   C24       1.0  0.31251  0.93393  0.04851  1.0000
  C   C25       1.0  0.95658  0.49256  0.14183  1.0000
  C   C26       1.0  0.54363  0.35097  0.85820  1.0000
  C   C27       1.0  0.04341  0.50743  0.85821  1.0000
  C   C28       1.0  0.45639  0.64904  0.14180  1.0000
  C   C29       1.0  0.97230  0.49707  0.24834  1.0000
  C   C30       1.0  0.52807  0.24892  0.75171  1.0000
  C   C31       1.0  0.02770  0.50292  0.75171  1.0000
  C   C32       1.0  0.47195  0.75111  0.24827  1.0000
  C   C33       1.0  0.87115  0.57994  0.31627  1.0000
  C   C34       1.0  0.62902  0.26372  0.68372  1.0000
  C   C35       1.0  0.12886  0.42004  0.68379  1.0000
  C   C36       1.0  0.37097  0.73631  0.31626  1.0000
  C   C37       1.0  0.88036  0.58030  0.41329  1.0000
  C   C38       1.0  0.61964  0.16701  0.58668  1.0000
  C   C39       1.0  0.11967  0.41966  0.58677  1.0000
  C   C40       1.0  0.38034  0.83304  0.41329  1.0000
  C   C41       1.0  0.99574  0.50044  0.44860  1.0000
  C   C42       1.0  0.50437  0.05189  0.55143  1.0000
  C   C43       1.0  0.00426  0.49948  0.55142  1.0000
  C   C44       1.0  0.49558  0.94815  0.44854  1.0000
  C   C45       1.0  0.10310  0.42152  0.38107  1.0000
  C   C46       1.0  0.39737  0.04057  0.61906  1.0000
  C   C47       1.0  0.89689  0.57841  0.61895  1.0000
  C   C48       1.0  0.60258  0.95948  0.38091  1.0000
  C   C49       1.0  0.08925  0.41849  0.28282  1.0000
  C   C50       1.0  0.41124  0.13589  0.71728  1.0000
  C   C51       1.0  0.91075  0.58148  0.71720  1.0000
  C   C52       1.0  0.58874  0.86413  0.28269  1.0000
  N   N1        1.0  0.87802  0.82385  0.09419  1.0000
  N   N2        1.0  0.62168  0.72960  0.90564  1.0000
  N   N3        1.0  0.12198  0.17616  0.90580  1.0000
  N   N4        1.0  0.37834  0.27039  0.09435  1.0000
  O   O1        1.0  0.88888  0.58692  0.12708  1.0000
  O   O2        1.0  0.61122  0.46003  0.87290  1.0000
  O   O3        1.0  0.11107  0.41309  0.87298  1.0000
  O   O4        1.0  0.38884  0.53999  0.12710  1.0000
  O   O5        1.0  0.00985  0.39740  0.07504  1.0000
  O   O6        1.0  0.49036  0.32270  0.92500  1.0000
  O   O7        1.0  0.99013  0.60263  0.92501  1.0000
  O   O8        1.0  0.50967  0.67732  0.07498  1.0000
