data_image0
_chemical_formula_structural       Cd4H40C48Br4N4O12
_chemical_formula_sum              "Cd4 H40 C48 Br4 N4 O12"
_cell_length_a       8.41903
_cell_length_b       9.58688
_cell_length_c       15.4047
_cell_angle_alpha    89.9999
_cell_angle_beta     96.7205
_cell_angle_gamma    90

_space_group_name_H-M_alt    "P 1"
_space_group_IT_number       1

loop_
  _space_group_symop_operation_xyz
  'x, y, z'

loop_
  _atom_site_type_symbol
  _atom_site_label
  _atom_site_symmetry_multiplicity
  _atom_site_fract_x
  _atom_site_fract_y
  _atom_site_fract_z
  _atom_site_occupancy
  Cd  Cd1       1.0  0.37541  0.51311  0.76256  1.0000
  Cd  Cd2       1.0  0.12460  0.01311  0.73744  1.0000
  Cd  Cd3       1.0  0.62459  0.48689  0.23745  1.0000
  Cd  Cd4       1.0  0.87541  0.98689  0.26256  1.0000
  H   H1        1.0  0.89981  0.40582  0.11479  1.0000
  H   H2        1.0  0.60019  0.90582  0.38521  1.0000
  H   H3        1.0  0.10019  0.59418  0.88521  1.0000
  H   H4        1.0  0.39981  0.09418  0.61479  1.0000
  H   H5        1.0  0.61176  0.86638  0.88478  1.0000
  H   H6        1.0  0.88825  0.36638  0.61521  1.0000
  H   H7        1.0  0.38825  0.13362  0.11522  1.0000
  H   H8        1.0  0.11176  0.63362  0.38478  1.0000
  H   H9        1.0  0.40645  0.20722  0.83679  1.0000
  H   H10       1.0  0.09357  0.70723  0.66321  1.0000
  H   H11       1.0  0.59355  0.79278  0.16321  1.0000
  H   H12       1.0  0.90644  0.29278  0.33679  1.0000
  H   H13       1.0  0.77366  0.18034  0.05667  1.0000
  H   H14       1.0  0.72635  0.68034  0.44334  1.0000
  H   H15       1.0  0.22634  0.81966  0.94333  1.0000
  H   H16       1.0  0.27366  0.31966  0.55667  1.0000
  H   H17       1.0  0.56785  0.06378  0.94985  1.0000
  H   H18       1.0  0.93216  0.56379  0.55015  1.0000
  H   H19       1.0  0.43215  0.93621  0.05015  1.0000
  H   H20       1.0  0.06784  0.43622  0.44985  1.0000
  H   H21       1.0  0.80290  0.78312  0.96651  1.0000
  H   H22       1.0  0.69711  0.28312  0.53349  1.0000
  H   H23       1.0  0.19710  0.21688  0.03349  1.0000
  H   H24       1.0  0.30290  0.71688  0.46651  1.0000
  H   H25       1.0  0.94043  0.66139  0.09251  1.0000
  H   H26       1.0  0.55957  0.16139  0.40750  1.0000
  H   H27       1.0  0.05957  0.33860  0.90750  1.0000
  H   H28       1.0  0.44042  0.83861  0.59251  1.0000
  H   H29       1.0  0.82091  0.80411  0.78916  1.0000
  H   H30       1.0  0.67909  0.30412  0.71082  1.0000
  H   H31       1.0  0.17909  0.19588  0.21083  1.0000
  H   H32       1.0  0.32090  0.69588  0.28916  1.0000
  H   H33       1.0  0.69825  0.94063  0.74159  1.0000
  H   H34       1.0  0.80174  0.44064  0.75840  1.0000
  H   H35       1.0  0.30175  0.05937  0.25840  1.0000
  H   H36       1.0  0.19825  0.55937  0.24159  1.0000
  H   H37       1.0  0.66854  0.76557  0.70110  1.0000
  H   H38       1.0  0.83145  0.26558  0.79890  1.0000
  H   H39       1.0  0.33145  0.23442  0.29890  1.0000
  H   H40       1.0  0.16854  0.73442  0.20110  1.0000
  C   C1        1.0  0.40997  0.84520  0.78763  1.0000
  C   C2        1.0  0.09003  0.34521  0.71237  1.0000
  C   C3        1.0  0.59003  0.15480  0.21237  1.0000
  C   C4        1.0  0.90997  0.65480  0.28763  1.0000
  C   C5        1.0  0.83329  0.46128  0.06046  1.0000
  C   C6        1.0  0.66672  0.96128  0.43954  1.0000
  C   C7        1.0  0.16671  0.53871  0.93954  1.0000
  C   C8        1.0  0.33329  0.03872  0.56046  1.0000
  C   C9        1.0  0.63383  0.45820  0.93026  1.0000
  C   C10       1.0  0.86618  0.95821  0.56974  1.0000
  C   C11       1.0  0.36617  0.54179  0.06974  1.0000
  C   C12       1.0  0.13383  0.04179  0.43026  1.0000
  C   C13       1.0  0.58073  0.80508  0.82487  1.0000
  C   C14       1.0  0.91927  0.30509  0.67513  1.0000
  C   C15       1.0  0.41927  0.19492  0.17513  1.0000
  C   C16       1.0  0.08073  0.69492  0.32487  1.0000
  C   C17       1.0  0.66471  0.60316  0.91812  1.0000
  C   C18       1.0  0.83529  0.10317  0.58187  1.0000
  C   C19       1.0  0.33529  0.39683  0.08188  1.0000
  C   C20       1.0  0.16472  0.89683  0.41812  1.0000
  C   C21       1.0  0.49781  0.25548  0.88305  1.0000
  C   C22       1.0  0.00221  0.75548  0.61695  1.0000
  C   C23       1.0  0.50220  0.74452  0.11695  1.0000
  C   C24       1.0  0.99780  0.24452  0.38305  1.0000
  C   C25       1.0  0.70028  0.24029  0.00674  1.0000
  C   C26       1.0  0.79972  0.74029  0.49326  1.0000
  C   C27       1.0  0.29972  0.75971  0.99326  1.0000
  C   C28       1.0  0.20028  0.25971  0.50674  1.0000
  C   C29       1.0  0.58799  0.17577  0.94785  1.0000
  C   C30       1.0  0.91202  0.67577  0.55215  1.0000
  C   C31       1.0  0.41201  0.82423  0.05215  1.0000
  C   C32       1.0  0.08799  0.32423  0.44785  1.0000
  C   C33       1.0  0.72392  0.38611  0.00086  1.0000
  C   C34       1.0  0.77608  0.88612  0.49914  1.0000
  C   C35       1.0  0.27608  0.61388  0.99914  1.0000
  C   C36       1.0  0.22392  0.11389  0.50086  1.0000
  C   C37       1.0  0.77532  0.67337  0.97561  1.0000
  C   C38       1.0  0.72469  0.17337  0.52440  1.0000
  C   C39       1.0  0.22468  0.32662  0.02440  1.0000
  C   C40       1.0  0.27531  0.82663  0.47561  1.0000
  C   C41       1.0  0.85655  0.60175  0.04776  1.0000
  C   C42       1.0  0.64346  0.10176  0.45224  1.0000
  C   C43       1.0  0.14346  0.39824  0.95224  1.0000
  C   C44       1.0  0.35654  0.89825  0.54776  1.0000
  C   C45       1.0  0.69973  0.83002  0.75956  1.0000
  C   C46       1.0  0.80027  0.33003  0.74043  1.0000
  C   C47       1.0  0.30027  0.16997  0.24043  1.0000
  C   C48       1.0  0.19973  0.66997  0.25956  1.0000
  Br  Br1       1.0  0.48458  0.52812  0.61355  1.0000
  Br  Br2       1.0  0.01540  0.02810  0.88644  1.0000
  Br  Br3       1.0  0.51541  0.47191  0.38645  1.0000
  Br  Br4       1.0  0.98457  0.97190  0.11355  1.0000
  N   N1        1.0  0.52067  0.39172  0.87385  1.0000
  N   N2        1.0  0.97934  0.89172  0.62616  1.0000
  N   N3        1.0  0.47932  0.60828  0.12616  1.0000
  N   N4        1.0  0.02067  0.10828  0.37384  1.0000
  O   O1        1.0  0.38924  0.97503  0.77304  1.0000
  O   O2        1.0  0.11076  0.47504  0.72696  1.0000
  O   O3        1.0  0.61076  0.02497  0.22696  1.0000
  O   O4        1.0  0.88923  0.52497  0.27304  1.0000
  O   O5        1.0  0.57658  0.65931  0.84696  1.0000
  O   O6        1.0  0.92342  0.15932  0.65304  1.0000
  O   O7        1.0  0.42341  0.34069  0.15305  1.0000
  O   O8        1.0  0.07659  0.84069  0.34696  1.0000
  O   O9        1.0  0.30156  0.75362  0.77353  1.0000
  O   O10       1.0  0.19844  0.25363  0.72647  1.0000
  O   O11       1.0  0.69843  0.24638  0.22647  1.0000
  O   O12       1.0  0.80156  0.74638  0.27353  1.0000
