data_image0
_chemical_formula_structural       Ag2H28C28N18O6
_chemical_formula_sum              "Ag2 H28 C28 N18 O6"
_cell_length_a       7.76103
_cell_length_b       8.68448
_cell_length_c       13.173
_cell_angle_alpha    73.547
_cell_angle_beta     77.23
_cell_angle_gamma    83.0218

_space_group_name_H-M_alt    "P 1"
_space_group_IT_number       1

loop_
  _space_group_symop_operation_xyz
  'x, y, z'

loop_
  _atom_site_type_symbol
  _atom_site_label
  _atom_site_symmetry_multiplicity
  _atom_site_fract_x
  _atom_site_fract_y
  _atom_site_fract_z
  _atom_site_occupancy
  Ag  Ag1       1.0  0.11680  0.74827  0.23676  1.0000
  Ag  Ag2       1.0  0.88320  0.25174  0.76325  1.0000
  H   H1        1.0  0.10553  0.08085  0.88760  1.0000
  H   H2        1.0  0.89447  0.91916  0.11240  1.0000
  H   H3        1.0  0.12112  0.42220  0.58118  1.0000
  H   H4        1.0  0.87888  0.57780  0.41882  1.0000
  H   H5        1.0  0.32393  0.24901  0.89413  1.0000
  H   H6        1.0  0.67607  0.75099  0.10587  1.0000
  H   H7        1.0  0.51249  0.26487  0.04470  1.0000
  H   H8        1.0  0.48752  0.73513  0.95530  1.0000
  H   H9        1.0  0.39272  0.01494  0.22204  1.0000
  H   H10       1.0  0.60729  0.98506  0.77796  1.0000
  H   H11       1.0  0.19705  0.88882  0.78212  1.0000
  H   H12       1.0  0.80295  0.11118  0.21788  1.0000
  H   H13       1.0  0.23781  0.55373  0.82857  1.0000
  H   H14       1.0  0.76218  0.44627  0.17143  1.0000
  H   H15       1.0  0.17383  0.45959  0.05084  1.0000
  H   H16       1.0  0.82617  0.54041  0.94916  1.0000
  H   H17       1.0  0.27109  0.61142  0.62893  1.0000
  H   H18       1.0  0.72890  0.38857  0.37108  1.0000
  H   H19       1.0  0.29430  0.94356  0.55964  1.0000
  H   H20       1.0  0.70570  0.05643  0.44036  1.0000
  H   H21       1.0  0.13865  0.03201  0.38126  1.0000
  H   H22       1.0  0.86135  0.96799  0.61874  1.0000
  H   H23       1.0  0.34027  0.22836  0.51936  1.0000
  H   H24       1.0  0.65972  0.77164  0.48064  1.0000
  H   H25       1.0  0.48810  0.16863  0.32305  1.0000
  H   H26       1.0  0.51191  0.83137  0.67695  1.0000
  H   H27       1.0  0.33794  0.41412  0.17753  1.0000
  H   H28       1.0  0.66207  0.58588  0.82247  1.0000
  C   C1        1.0  0.09671  0.99646  0.96818  1.0000
  C   C2        1.0  0.90329  0.00354  0.03182  1.0000
  C   C3        1.0  0.09908  0.49834  0.50238  1.0000
  C   C4        1.0  0.90092  0.50166  0.49762  1.0000
  C   C5        1.0  0.32331  0.17458  0.97563  1.0000
  C   C6        1.0  0.67669  0.82542  0.02437  1.0000
  C   C7        1.0  0.41405  0.18123  0.05345  1.0000
  C   C8        1.0  0.58595  0.81877  0.94655  1.0000
  C   C9        1.0  0.35307  0.05518  0.14418  1.0000
  C   C10       1.0  0.64694  0.94482  0.85582  1.0000
  C   C11       1.0  0.18623  0.79593  0.85790  1.0000
  C   C12       1.0  0.81378  0.20408  0.14210  1.0000
  C   C13       1.0  0.20772  0.62970  0.88376  1.0000
  C   C14       1.0  0.79228  0.37030  0.11624  1.0000
  C   C15       1.0  0.17487  0.58061  0.99787  1.0000
  C   C16       1.0  0.82513  0.41939  0.00213  1.0000
  C   C17       1.0  0.22868  0.70137  0.56165  1.0000
  C   C18       1.0  0.77132  0.29863  0.43835  1.0000
  C   C19       1.0  0.23955  0.86641  0.52459  1.0000
  C   C20       1.0  0.76044  0.13359  0.47541  1.0000
  C   C21       1.0  0.15911  0.91272  0.43343  1.0000
  C   C22       1.0  0.84089  0.08727  0.56657  1.0000
  C   C23       1.0  0.32198  0.29342  0.43862  1.0000
  C   C24       1.0  0.67802  0.70658  0.56138  1.0000
  C   C25       1.0  0.39421  0.26608  0.33890  1.0000
  C   C26       1.0  0.60579  0.73392  0.66110  1.0000
  C   C27       1.0  0.31647  0.38960  0.26461  1.0000
  C   C28       1.0  0.68353  0.61040  0.73539  1.0000
  N   N1        1.0  0.21574  0.04977  0.02039  1.0000
  N   N2        1.0  0.78426  0.95024  0.97961  1.0000
  N   N3        1.0  0.23174  0.97631  0.12419  1.0000
  N   N4        1.0  0.76826  0.02369  0.87581  1.0000
  N   N5        1.0  0.14499  0.83704  0.95356  1.0000
  N   N6        1.0  0.85501  0.16296  0.04644  1.0000
  N   N7        1.0  0.13491  0.70641  0.04038  1.0000
  N   N8        1.0  0.86509  0.29359  0.95962  1.0000
  N   N9        1.0  0.14547  0.65783  0.49404  1.0000
  N   N10       1.0  0.85453  0.34217  0.50595  1.0000
  N   N11       1.0  0.10080  0.78613  0.41516  1.0000
  N   N12       1.0  0.89920  0.21387  0.58484  1.0000
  N   N13       1.0  0.20872  0.42644  0.42098  1.0000
  N   N14       1.0  0.79128  0.57356  0.57902  1.0000
  N   N15       1.0  0.20265  0.48617  0.31462  1.0000
  N   N16       1.0  0.79735  0.51384  0.68538  1.0000
  N   N17       1.0  0.65197  0.75384  0.29352  1.0000
  N   N18       1.0  0.34803  0.24616  0.70648  1.0000
  O   O1        1.0  0.79407  0.67325  0.25997  1.0000
  O   O2        1.0  0.20594  0.32677  0.74002  1.0000
  O   O3        1.0  0.66554  0.89017  0.30812  1.0000
  O   O4        1.0  0.33445  0.10983  0.69188  1.0000
  O   O5        1.0  0.50485  0.69661  0.31009  1.0000
  O   O6        1.0  0.49516  0.30339  0.68992  1.0000
