data_image0
_chemical_formula_structural       Cd2H36C30S4N8O6
_chemical_formula_sum              "Cd2 H36 C30 S4 N8 O6"
_cell_length_a       8.87445
_cell_length_b       10.9874
_cell_length_c       11.5473
_cell_angle_alpha    117.873
_cell_angle_beta     104.644
_cell_angle_gamma    97.7448

_space_group_name_H-M_alt    "P 1"
_space_group_IT_number       1

loop_
  _space_group_symop_operation_xyz
  'x, y, z'

loop_
  _atom_site_type_symbol
  _atom_site_label
  _atom_site_symmetry_multiplicity
  _atom_site_fract_x
  _atom_site_fract_y
  _atom_site_fract_z
  _atom_site_occupancy
  Cd  Cd1       1.0  0.19635  0.81156  0.45019  1.0000
  Cd  Cd2       1.0  0.80220  0.18678  0.54746  1.0000
  H   H1        1.0  0.00514  0.23558  0.30447  1.0000
  H   H2        1.0  0.99269  0.76400  0.69170  1.0000
  H   H3        1.0  0.69608  0.16417  0.91277  1.0000
  H   H4        1.0  0.30193  0.83554  0.08333  1.0000
  H   H5        1.0  0.86214  0.98981  0.10966  1.0000
  H   H6        1.0  0.13529  0.01064  0.88830  1.0000
  H   H7        1.0  0.75900  0.95565  0.93869  1.0000
  H   H8        1.0  0.24308  0.04373  0.05798  1.0000
  H   H9        1.0  0.65946  0.99834  0.06170  1.0000
  H   H10       1.0  0.33762  0.00013  0.93139  1.0000
  H   H11       1.0  0.19118  0.43183  0.46614  1.0000
  H   H12       1.0  0.80584  0.56723  0.53016  1.0000
  H   H13       1.0  0.37908  0.58204  0.63819  1.0000
  H   H14       1.0  0.61632  0.41537  0.35948  1.0000
  H   H15       1.0  0.35952  0.76055  0.72009  1.0000
  H   H16       1.0  0.63740  0.23709  0.27693  1.0000
  H   H17       1.0  0.55571  0.84858  0.64698  1.0000
  H   H18       1.0  0.44893  0.15165  0.35990  1.0000
  H   H19       1.0  0.63967  0.74446  0.71093  1.0000
  H   H20       1.0  0.35868  0.24512  0.28513  1.0000
  H   H21       1.0  0.52283  0.69115  0.43883  1.0000
  H   H22       1.0  0.46894  0.31644  0.56353  1.0000
  H   H23       1.0  0.70031  0.35296  0.86660  1.0000
  H   H24       1.0  0.29524  0.64761  0.12916  1.0000
  H   H25       1.0  0.91129  0.63618  0.10854  1.0000
  H   H26       1.0  0.09066  0.36227  0.88592  1.0000
  H   H27       1.0  0.73110  0.53246  0.80672  1.0000
  H   H28       1.0  0.26702  0.47014  0.18993  1.0000
  H   H29       1.0  0.84590  0.71391  0.94402  1.0000
  H   H30       1.0  0.15528  0.28830  0.05511  1.0000
  H   H31       1.0  0.61839  0.72786  0.04072  1.0000
  H   H32       1.0  0.38326  0.27431  0.95789  1.0000
  H   H33       1.0  0.55423  0.69208  0.86603  1.0000
  H   H34       1.0  0.44602  0.30844  0.13232  1.0000
  H   H35       1.0  0.48735  0.50365  0.96016  1.0000
  H   H36       1.0  0.55216  0.55276  0.20443  1.0000
  C   C1        1.0  0.96953  0.48194  0.20403  1.0000
  C   C2        1.0  0.03032  0.51705  0.79097  1.0000
  C   C3        1.0  0.02535  0.42403  0.29030  1.0000
  C   C4        1.0  0.97365  0.57539  0.70525  1.0000
  C   C5        1.0  0.95975  0.27647  0.23669  1.0000
  C   C6        1.0  0.03857  0.72304  0.75925  1.0000
  C   C7        1.0  0.84202  0.18012  0.10221  1.0000
  C   C8        1.0  0.15633  0.81959  0.89384  1.0000
  C   C9        1.0  0.78778  0.23565  0.01830  1.0000
  C   C10       1.0  0.21053  0.76417  0.97763  1.0000
  C   C11       1.0  0.84751  0.38264  0.06556  1.0000
  C   C12       1.0  0.15137  0.61686  0.92968  1.0000
  C   C13       1.0  0.77766  0.02285  0.05051  1.0000
  C   C14       1.0  0.22111  0.97677  0.94548  1.0000
  C   C15       1.0  0.15740  0.50156  0.42606  1.0000
  C   C16       1.0  0.84112  0.49764  0.57000  1.0000
  C   C17       1.0  0.37746  0.67651  0.62786  1.0000
  C   C18       1.0  0.62047  0.32109  0.36987  1.0000
  C   C19       1.0  0.54214  0.73807  0.62548  1.0000
  C   C20       1.0  0.45764  0.25913  0.37456  1.0000
  C   C21       1.0  0.78650  0.43099  0.97300  1.0000
  C   C22       1.0  0.21172  0.56869  0.02191  1.0000
  C   C23       1.0  0.75657  0.61601  0.91612  1.0000
  C   C24       1.0  0.24368  0.38576  0.08109  1.0000
  C   C25       1.0  0.59679  0.64666  0.93077  1.0000
  C   C26       1.0  0.40237  0.35356  0.06739  1.0000
  C   C27       1.0  0.48280  0.13169  0.65014  1.0000
  C   C28       1.0  0.51984  0.85966  0.33950  1.0000
  C   C29       1.0  0.06789  0.06098  0.39927  1.0000
  C   C30       1.0  0.93065  0.93416  0.59573  1.0000
  S   S1        1.0  0.37001  0.05297  0.70151  1.0000
  S   S2        1.0  0.62933  0.94496  0.29182  1.0000
  S   S3        1.0  0.13777  0.93920  0.29816  1.0000
  S   S4        1.0  0.86964  0.05973  0.70225  1.0000
  N   N1        1.0  0.24236  0.63620  0.50125  1.0000
  N   N2        1.0  0.75750  0.36275  0.49536  1.0000
  N   N3        1.0  0.82805  0.56563  0.00683  1.0000
  N   N4        1.0  0.17216  0.43381  0.98819  1.0000
  N   N5        1.0  0.56678  0.19395  0.61761  1.0000
  N   N6        1.0  0.43756  0.79134  0.36839  1.0000
  N   N7        1.0  0.01786  0.15147  0.47038  1.0000
  N   N8        1.0  0.97376  0.84056  0.51998  1.0000
  O   O1        1.0  0.02755  0.61406  0.24024  1.0000
  O   O2        1.0  0.97414  0.38487  0.75472  1.0000
  O   O3        1.0  0.56512  0.65131  0.49718  1.0000
  O   O4        1.0  0.43174  0.35068  0.49948  1.0000
  O   O5        1.0  0.47456  0.51829  0.88073  1.0000
  O   O6        1.0  0.52428  0.47915  0.10599  1.0000
