data_image0
_chemical_formula_structural       Sr2H28C20N8O12
_chemical_formula_sum              "Sr2 H28 C20 N8 O12"
_cell_length_a       8.0722
_cell_length_b       8.42487
_cell_length_c       11.3796
_cell_angle_alpha    82.9492
_cell_angle_beta     78.8562
_cell_angle_gamma    66.7455

_space_group_name_H-M_alt    "P 1"
_space_group_IT_number       1

loop_
  _space_group_symop_operation_xyz
  'x, y, z'

loop_
  _atom_site_type_symbol
  _atom_site_label
  _atom_site_symmetry_multiplicity
  _atom_site_fract_x
  _atom_site_fract_y
  _atom_site_fract_z
  _atom_site_occupancy
  Sr  Sr1       1.0  0.21942  0.55609  0.04650  1.0000
  Sr  Sr2       1.0  0.78058  0.44392  0.95350  1.0000
  H   H1        1.0  0.40540  0.02602  0.26627  1.0000
  H   H2        1.0  0.59459  0.97400  0.73372  1.0000
  H   H3        1.0  0.42529  0.21927  0.29459  1.0000
  H   H4        1.0  0.57470  0.78075  0.70540  1.0000
  H   H5        1.0  0.48139  0.03984  0.39997  1.0000
  H   H6        1.0  0.51862  0.96017  0.60002  1.0000
  H   H7        1.0  0.80578  0.19007  0.27877  1.0000
  H   H8        1.0  0.19422  0.80995  0.72122  1.0000
  H   H9        1.0  0.83317  0.90051  0.51624  1.0000
  H   H10       1.0  0.16684  0.09947  0.48376  1.0000
  H   H11       1.0  0.00199  0.86797  0.60504  1.0000
  H   H12       1.0  0.99800  0.13202  0.39496  1.0000
  H   H13       1.0  0.89807  0.71575  0.61655  1.0000
  H   H14       1.0  0.10192  0.28425  0.38346  1.0000
  H   H15       1.0  0.36129  0.70662  0.47699  1.0000
  H   H16       1.0  0.63871  0.29334  0.52303  1.0000
  H   H17       1.0  0.68669  0.81338  0.13773  1.0000
  H   H18       1.0  0.31331  0.18664  0.86226  1.0000
  H   H19       1.0  0.93049  0.63846  0.35923  1.0000
  H   H20       1.0  0.06951  0.36153  0.64077  1.0000
  H   H21       1.0  0.03411  0.29586  0.14962  1.0000
  H   H22       1.0  0.96589  0.70415  0.85038  1.0000
  H   H23       1.0  0.85045  0.46189  0.19307  1.0000
  H   H24       1.0  0.14955  0.53811  0.80693  1.0000
  H   H25       1.0  0.33640  0.15841  0.05329  1.0000
  H   H26       1.0  0.66360  0.84159  0.94671  1.0000
  H   H27       1.0  0.51539  0.19334  0.97706  1.0000
  H   H28       1.0  0.48461  0.80666  0.02294  1.0000
  C   C1        1.0  0.48820  0.07762  0.30365  1.0000
  C   C2        1.0  0.51180  0.92240  0.69634  1.0000
  C   C3        1.0  0.68004  0.01532  0.24110  1.0000
  C   C4        1.0  0.31996  0.98469  0.75889  1.0000
  C   C5        1.0  0.81818  0.07633  0.23688  1.0000
  C   C6        1.0  0.18182  0.92368  0.76311  1.0000
  C   C7        1.0  0.97011  0.96425  0.16278  1.0000
  C   C8        1.0  0.02989  0.03576  0.83721  1.0000
  C   C9        1.0  0.15588  0.96431  0.12320  1.0000
  C   C10       1.0  0.84412  0.03569  0.87680  1.0000
  C   C11       1.0  0.94974  0.80166  0.55358  1.0000
  C   C12       1.0  0.05026  0.19833  0.44642  1.0000
  C   C13       1.0  0.09361  0.70612  0.45616  1.0000
  C   C14       1.0  0.90640  0.29386  0.54384  1.0000
  C   C15       1.0  0.27954  0.67209  0.42745  1.0000
  C   C16       1.0  0.72047  0.32788  0.57256  1.0000
  C   C17       1.0  0.52223  0.52342  0.24219  1.0000
  C   C18       1.0  0.47778  0.47656  0.75781  1.0000
  C   C19       1.0  0.33963  0.58237  0.32048  1.0000
  C   C20       1.0  0.66037  0.41762  0.67952  1.0000
  N   N1        1.0  0.92854  0.84200  0.12331  1.0000
  N   N2        1.0  0.07146  0.15801  0.87669  1.0000
  N   N3        1.0  0.75408  0.87461  0.17282  1.0000
  N   N4        1.0  0.24591  0.12541  0.82717  1.0000
  N   N5        1.0  0.20010  0.55990  0.28562  1.0000
  N   N6        1.0  0.79991  0.44009  0.71438  1.0000
  N   N7        1.0  0.05477  0.63426  0.36917  1.0000
  N   N8        1.0  0.94523  0.36573  0.63083  1.0000
  O   O1        1.0  0.27172  0.83741  0.06330  1.0000
  O   O2        1.0  0.72829  0.16259  0.93670  1.0000
  O   O3        1.0  0.18898  0.08974  0.15090  1.0000
  O   O4        1.0  0.81102  0.91026  0.84910  1.0000
  O   O5        1.0  0.52991  0.46951  0.13994  1.0000
  O   O6        1.0  0.47009  0.53049  0.86006  1.0000
  O   O7        1.0  0.65512  0.53221  0.28154  1.0000
  O   O8        1.0  0.34489  0.46778  0.71847  1.0000
  O   O9        1.0  0.96440  0.42113  0.13011  1.0000
  O   O10       1.0  0.03560  0.57888  0.86990  1.0000
  O   O11       1.0  0.37773  0.23746  0.99321  1.0000
  O   O12       1.0  0.62227  0.76255  0.00680  1.0000
