data_image0
_chemical_formula_structural       CoH20C24N10O6
_chemical_formula_sum              "Co1 H20 C24 N10 O6"
_cell_length_a       8.77437
_cell_length_b       9.54438
_cell_length_c       10.3176
_cell_angle_alpha    100.798
_cell_angle_beta     100.949
_cell_angle_gamma    108.488

_space_group_name_H-M_alt    "P 1"
_space_group_IT_number       1

loop_
  _space_group_symop_operation_xyz
  'x, y, z'

loop_
  _atom_site_type_symbol
  _atom_site_label
  _atom_site_symmetry_multiplicity
  _atom_site_fract_x
  _atom_site_fract_y
  _atom_site_fract_z
  _atom_site_occupancy
  Co  Co1       1.0  0.00000  0.50000  1.00000  1.0000
  H   H1        1.0  0.14901  0.50257  0.30051  1.0000
  H   H2        1.0  0.85098  0.49743  0.69948  1.0000
  H   H3        1.0  0.15021  0.41636  0.49715  1.0000
  H   H4        1.0  0.84979  0.58364  0.50285  1.0000
  H   H5        1.0  0.43496  0.17635  0.31845  1.0000
  H   H6        1.0  0.56504  0.82366  0.68155  1.0000
  H   H7        1.0  0.59750  0.20001  0.55140  1.0000
  H   H8        1.0  0.40251  0.80000  0.44860  1.0000
  H   H9        1.0  0.53993  0.33257  0.75731  1.0000
  H   H10       1.0  0.46007  0.66744  0.24269  1.0000
  H   H11       1.0  0.21160  0.08767  0.13768  1.0000
  H   H12       1.0  0.78840  0.91233  0.86233  1.0000
  H   H13       1.0  0.06193  0.18264  0.92626  1.0000
  H   H14       1.0  0.93808  0.81736  0.07375  1.0000
  H   H15       1.0  0.04786  0.31713  0.72676  1.0000
  H   H16       1.0  0.95214  0.68286  0.27324  1.0000
  H   H17       1.0  0.54642  0.63825  0.85619  1.0000
  H   H18       1.0  0.45357  0.36175  0.14380  1.0000
  H   H19       1.0  0.36995  0.71609  0.03697  1.0000
  H   H20       1.0  0.63005  0.28390  0.96303  1.0000
  C   C1        1.0  0.13832  0.40032  0.22747  1.0000
  C   C2        1.0  0.86167  0.59967  0.77253  1.0000
  C   C3        1.0  0.28463  0.29713  0.39318  1.0000
  C   C4        1.0  0.71537  0.70287  0.60682  1.0000
  C   C5        1.0  0.24850  0.36925  0.50787  1.0000
  C   C6        1.0  0.75150  0.63074  0.49213  1.0000
  C   C7        1.0  0.40981  0.23540  0.40828  1.0000
  C   C8        1.0  0.59020  0.76461  0.59173  1.0000
  C   C9        1.0  0.50024  0.24838  0.53926  1.0000
  C   C10       1.0  0.49977  0.75163  0.46074  1.0000
  C   C11       1.0  0.46815  0.32231  0.65525  1.0000
  C   C12       1.0  0.53186  0.67771  0.34476  1.0000
  C   C13       1.0  0.17421  0.18580  0.13863  1.0000
  C   C14       1.0  0.82580  0.81421  0.86137  1.0000
  C   C15       1.0  0.10028  0.23447  0.03571  1.0000
  C   C16       1.0  0.89971  0.76553  0.96429  1.0000
  C   C17       1.0  0.15652  0.41790  0.78545  1.0000
  C   C18       1.0  0.84348  0.58209  0.21455  1.0000
  C   C19       1.0  0.34163  0.38160  0.63802  1.0000
  C   C20       1.0  0.65837  0.61839  0.36198  1.0000
  C   C21       1.0  0.41816  0.58454  0.85730  1.0000
  C   C22       1.0  0.58183  0.41546  0.14270  1.0000
  C   C23       1.0  0.33093  0.62056  0.94702  1.0000
  C   C24       1.0  0.66907  0.37944  0.05297  1.0000
  N   N1        1.0  0.77648  0.15884  0.78764  1.0000
  N   N2        1.0  0.22351  0.84116  0.21236  1.0000
  N   N3        1.0  0.07914  0.36853  0.09242  1.0000
  N   N4        1.0  0.92086  0.63147  0.90758  1.0000
  N   N5        1.0  0.19788  0.29181  0.26008  1.0000
  N   N6        1.0  0.80212  0.70819  0.73993  1.0000
  N   N7        1.0  0.16883  0.51492  0.90191  1.0000
  N   N8        1.0  0.83117  0.48507  0.09809  1.0000
  N   N9        1.0  0.30664  0.45727  0.75527  1.0000
  N   N10       1.0  0.69336  0.54272  0.24473  1.0000
  O   O1        1.0  0.80991  0.30443  0.81194  1.0000
  O   O2        1.0  0.19009  0.69556  0.18806  1.0000
  O   O3        1.0  0.85364  0.09942  0.71629  1.0000
  O   O4        1.0  0.14635  0.90057  0.28371  1.0000
  O   O5        1.0  0.66810  0.07902  0.83567  1.0000
  O   O6        1.0  0.33189  0.92098  0.16433  1.0000
