data_image0
_chemical_formula_structural       Cu2H32C32N4O8
_chemical_formula_sum              "Cu2 H32 C32 N4 O8"
_cell_length_a       8.71251
_cell_length_b       8.75846
_cell_length_c       10.6674
_cell_angle_alpha    88.5676
_cell_angle_beta     69.2349
_cell_angle_gamma    77.1562

_space_group_name_H-M_alt    "P 1"
_space_group_IT_number       1

loop_
  _space_group_symop_operation_xyz
  'x, y, z'

loop_
  _atom_site_type_symbol
  _atom_site_label
  _atom_site_symmetry_multiplicity
  _atom_site_fract_x
  _atom_site_fract_y
  _atom_site_fract_z
  _atom_site_occupancy
  Cu  Cu1       1.0  0.49151  0.34085  0.36678  1.0000
  Cu  Cu2       1.0  0.50849  0.65915  0.63322  1.0000
  H   H1        1.0  0.14444  0.52000  0.50452  1.0000
  H   H2        1.0  0.85555  0.48001  0.49548  1.0000
  H   H3        1.0  0.91605  0.52891  0.72364  1.0000
  H   H4        1.0  0.08394  0.47108  0.27636  1.0000
  H   H5        1.0  0.23540  0.11396  0.81101  1.0000
  H   H6        1.0  0.76460  0.88604  0.18898  1.0000
  H   H7        1.0  0.44431  0.12443  0.59093  1.0000
  H   H8        1.0  0.55569  0.87557  0.40907  1.0000
  H   H9        1.0  0.73421  0.51929  0.89556  1.0000
  H   H10       1.0  0.26578  0.48070  0.10444  1.0000
  H   H11       1.0  0.52841  0.52410  0.12828  1.0000
  H   H12       1.0  0.47159  0.47590  0.87172  1.0000
  H   H13       1.0  0.84148  0.15517  0.22859  1.0000
  H   H14       1.0  0.15852  0.84483  0.77140  1.0000
  H   H15       1.0  0.06545  0.13405  0.00238  1.0000
  H   H16       1.0  0.93455  0.86595  0.99762  1.0000
  H   H17       1.0  0.86497  0.23028  0.64448  1.0000
  H   H18       1.0  0.13503  0.76971  0.35552  1.0000
  H   H19       1.0  0.73135  0.09860  0.67080  1.0000
  H   H20       1.0  0.26864  0.90140  0.32920  1.0000
  H   H21       1.0  0.00207  0.12829  0.39907  1.0000
  H   H22       1.0  0.99793  0.87170  0.60093  1.0000
  H   H23       1.0  0.87155  0.99343  0.43306  1.0000
  H   H24       1.0  0.12845  0.00656  0.56695  1.0000
  H   H25       1.0  0.17805  0.08913  0.19849  1.0000
  H   H26       1.0  0.82195  0.91087  0.80152  1.0000
  H   H27       1.0  0.26585  0.21922  0.07947  1.0000
  H   H28       1.0  0.73415  0.78077  0.92053  1.0000
  H   H29       1.0  0.35587  0.93941  0.98275  1.0000
  H   H30       1.0  0.64414  0.06059  0.01726  1.0000
  H   H31       1.0  0.44569  0.88236  0.10681  1.0000
  H   H32       1.0  0.55431  0.11764  0.89320  1.0000
  C   C1        1.0  0.15883  0.43379  0.57713  1.0000
  C   C2        1.0  0.84117  0.56621  0.42287  1.0000
  C   C3        1.0  0.03155  0.43751  0.70101  1.0000
  C   C4        1.0  0.96844  0.56249  0.29899  1.0000
  C   C5        1.0  0.05372  0.32376  0.79244  1.0000
  C   C6        1.0  0.94628  0.67624  0.20756  1.0000
  C   C7        1.0  0.20543  0.20879  0.74962  1.0000
  C   C8        1.0  0.79457  0.79121  0.25037  1.0000
  C   C9        1.0  0.32674  0.21333  0.62386  1.0000
  C   C10       1.0  0.67326  0.78667  0.37613  1.0000
  C   C11       1.0  0.92255  0.32676  0.92700  1.0000
  C   C12       1.0  0.07745  0.67324  0.07300  1.0000
  C   C13       1.0  0.76662  0.43626  0.96525  1.0000
  C   C14       1.0  0.23338  0.56374  0.03475  1.0000
  C   C15       1.0  0.64900  0.43904  0.09406  1.0000
  C   C16       1.0  0.35100  0.56096  0.90594  1.0000
  C   C17       1.0  0.82443  0.23221  0.15042  1.0000
  C   C18       1.0  0.17558  0.76779  0.84958  1.0000
  C   C19       1.0  0.94847  0.22251  0.02372  1.0000
  C   C20       1.0  0.05154  0.77749  0.97628  1.0000
  C   C21       1.0  0.67469  0.28661  0.55786  1.0000
  C   C22       1.0  0.32531  0.71339  0.44214  1.0000
  C   C23       1.0  0.80524  0.16675  0.59420  1.0000
  C   C24       1.0  0.19476  0.83325  0.40580  1.0000
  C   C25       1.0  0.93604  0.05771  0.47830  1.0000
  C   C26       1.0  0.06396  0.94229  0.52170  1.0000
  C   C27       1.0  0.37170  0.17247  0.23452  1.0000
  C   C28       1.0  0.62830  0.82754  0.76548  1.0000
  C   C29       1.0  0.29763  0.11972  0.13768  1.0000
  C   C30       1.0  0.70238  0.88028  0.86233  1.0000
  C   C31       1.0  0.41778  0.97987  0.04526  1.0000
  C   C32       1.0  0.58222  0.02013  0.95475  1.0000
  N   N1        1.0  0.30555  0.32570  0.53938  1.0000
  N   N2        1.0  0.69445  0.67431  0.46062  1.0000
  N   N3        1.0  0.67700  0.33913  0.18567  1.0000
  N   N4        1.0  0.32300  0.66087  0.81433  1.0000
  O   O1        1.0  0.67085  0.26381  0.44028  1.0000
  O   O2        1.0  0.32915  0.73618  0.55971  1.0000
  O   O3        1.0  0.57954  0.39518  0.64335  1.0000
  O   O4        1.0  0.42047  0.60483  0.35663  1.0000
  O   O5        1.0  0.33728  0.32237  0.26251  1.0000
  O   O6        1.0  0.66271  0.67764  0.73750  1.0000
  O   O7        1.0  0.46248  0.07328  0.28051  1.0000
  O   O8        1.0  0.53752  0.92673  0.71949  1.0000
