data_image0
_chemical_formula_structural       Co2H32C44N4O12
_chemical_formula_sum              "Co2 H32 C44 N4 O12"
_cell_length_a       7.12514
_cell_length_b       9.6154
_cell_length_c       12.6979
_cell_angle_alpha    87.9789
_cell_angle_beta     94.2834
_cell_angle_gamma    93.4886

_space_group_name_H-M_alt    "P 1"
_space_group_IT_number       1

loop_
  _space_group_symop_operation_xyz
  'x, y, z'

loop_
  _atom_site_type_symbol
  _atom_site_label
  _atom_site_symmetry_multiplicity
  _atom_site_fract_x
  _atom_site_fract_y
  _atom_site_fract_z
  _atom_site_occupancy
  Co  Co1       1.0  0.00000  0.50000  0.50000  1.0000
  Co  Co2       1.0  0.50000  0.00000  0.50000  1.0000
  H   H1        1.0  0.90290  0.02046  0.60973  1.0000
  H   H2        1.0  0.59071  0.52007  0.39310  1.0000
  H   H3        1.0  0.09710  0.97954  0.39027  1.0000
  H   H4        1.0  0.40929  0.47993  0.60690  1.0000
  H   H5        1.0  0.23019  0.41918  0.02143  1.0000
  H   H6        1.0  0.26260  0.92014  0.97605  1.0000
  H   H7        1.0  0.76981  0.58082  0.97857  1.0000
  H   H8        1.0  0.73742  0.07986  0.02395  1.0000
  H   H9        1.0  0.14838  0.62784  0.91180  1.0000
  H   H10       1.0  0.33509  0.12729  0.08541  1.0000
  H   H11       1.0  0.85161  0.37216  0.08820  1.0000
  H   H12       1.0  0.66494  0.87271  0.91458  1.0000
  H   H13       1.0  0.02983  0.60530  0.72244  1.0000
  H   H14       1.0  0.45788  0.10033  0.27426  1.0000
  H   H15       1.0  0.97016  0.39469  0.27757  1.0000
  H   H16       1.0  0.54213  0.89967  0.72573  1.0000
  H   H17       1.0  0.90156  0.86293  0.73507  1.0000
  H   H18       1.0  0.59299  0.36819  0.26828  1.0000
  H   H19       1.0  0.09844  0.13707  0.26493  1.0000
  H   H20       1.0  0.40700  0.63180  0.73171  1.0000
  H   H21       1.0  0.07721  0.80826  0.83412  1.0000
  H   H22       1.0  0.42330  0.30943  0.16581  1.0000
  H   H23       1.0  0.92279  0.19174  0.16588  1.0000
  H   H24       1.0  0.57668  0.69057  0.83419  1.0000
  H   H25       1.0  0.14489  0.86773  0.70543  1.0000
  H   H26       1.0  0.34720  0.35086  0.29291  1.0000
  H   H27       1.0  0.85511  0.13227  0.29457  1.0000
  H   H28       1.0  0.65280  0.64914  0.70709  1.0000
  H   H29       1.0  0.17359  0.18232  0.94482  1.0000
  H   H30       1.0  0.32378  0.68258  0.05318  1.0000
  H   H31       1.0  0.82641  0.81768  0.05518  1.0000
  H   H32       1.0  0.67623  0.31741  0.94683  1.0000
  C   C1        1.0  0.14631  0.27646  0.89754  1.0000
  C   C2        1.0  0.35155  0.77515  0.10003  1.0000
  C   C3        1.0  0.85369  0.72353  0.10246  1.0000
  C   C4        1.0  0.64845  0.22485  0.89997  1.0000
  C   C5        1.0  0.92171  0.24260  0.58772  1.0000
  C   C6        1.0  0.57934  0.74057  0.41074  1.0000
  C   C7        1.0  0.07829  0.75741  0.41228  1.0000
  C   C8        1.0  0.42065  0.25942  0.58926  1.0000
  C   C9        1.0  0.95071  0.11866  0.64571  1.0000
  C   C10       1.0  0.54712  0.61704  0.35495  1.0000
  C   C11       1.0  0.04929  0.88133  0.35429  1.0000
  C   C12       1.0  0.45287  0.38296  0.64505  1.0000
  C   C13       1.0  0.03677  0.12706  0.74711  1.0000
  C   C14       1.0  0.46374  0.62455  0.25270  1.0000
  C   C15       1.0  0.96324  0.87294  0.25289  1.0000
  C   C16       1.0  0.53625  0.37545  0.74731  1.0000
  C   C17       1.0  0.07600  0.26124  0.79126  1.0000
  C   C18       1.0  0.42432  0.75802  0.20609  1.0000
  C   C19       1.0  0.92399  0.73876  0.20874  1.0000
  C   C20       1.0  0.57568  0.24198  0.79391  1.0000
  C   C21       1.0  0.17582  0.40683  0.93956  1.0000
  C   C22       1.0  0.31816  0.90613  0.05776  1.0000
  C   C23       1.0  0.82418  0.59317  0.06044  1.0000
  C   C24       1.0  0.68185  0.09387  0.94224  1.0000
  C   C25       1.0  0.13126  0.52578  0.87647  1.0000
  C   C26       1.0  0.35853  0.02416  0.12044  1.0000
  C   C27       1.0  0.86874  0.47421  0.12353  1.0000
  C   C28       1.0  0.64148  0.97584  0.87956  1.0000
  C   C29       1.0  0.06561  0.51491  0.77194  1.0000
  C   C30       1.0  0.42748  0.01088  0.22437  1.0000
  C   C31       1.0  0.93437  0.48509  0.22807  1.0000
  C   C32       1.0  0.57252  0.98913  0.77563  1.0000
  C   C33       1.0  0.04031  0.38255  0.72592  1.0000
  C   C34       1.0  0.46057  0.87730  0.27007  1.0000
  C   C35       1.0  0.95968  0.61744  0.27408  1.0000
  C   C36       1.0  0.53943  0.12269  0.72993  1.0000
  C   C37       1.0  0.04809  0.88043  0.76730  1.0000
  C   C38       1.0  0.44853  0.37732  0.23335  1.0000
  C   C39       1.0  0.95191  0.11956  0.23270  1.0000
  C   C40       1.0  0.55146  0.62269  0.76665  1.0000
  C   C41       1.0  0.81781  0.24509  0.48182  1.0000
  C   C42       1.0  0.68224  0.74163  0.51888  1.0000
  C   C43       1.0  0.18219  0.75490  0.51818  1.0000
  C   C44       1.0  0.31775  0.25838  0.48112  1.0000
  N   N1        1.0  0.97717  0.37109  0.62134  1.0000
  N   N2        1.0  0.52869  0.86603  0.37353  1.0000
  N   N3        1.0  0.02283  0.62891  0.37866  1.0000
  N   N4        1.0  0.47130  0.13397  0.62647  1.0000
  O   O1        1.0  0.08085  0.01714  0.81051  1.0000
  O   O2        1.0  0.42075  0.51568  0.18994  1.0000
  O   O3        1.0  0.91915  0.98285  0.18949  1.0000
  O   O4        1.0  0.57925  0.48431  0.81006  1.0000
  O   O5        1.0  0.82588  0.36513  0.43248  1.0000
  O   O6        1.0  0.67880  0.85550  0.56891  1.0000
  O   O7        1.0  0.17412  0.63488  0.56752  1.0000
  O   O8        1.0  0.32120  0.14450  0.43109  1.0000
  O   O9        1.0  0.72470  0.13908  0.44598  1.0000
  O   O10       1.0  0.76705  0.63652  0.55414  1.0000
  O   O11       1.0  0.27530  0.86093  0.55402  1.0000
  O   O12       1.0  0.23295  0.36348  0.44587  1.0000
