data_image0
_chemical_formula_structural       Ba4H24C12N16O16
_chemical_formula_sum              "Ba4 H24 C12 N16 O16"
_cell_length_a       7.44419
_cell_length_b       7.83397
_cell_length_c       14.9412
_cell_angle_alpha    94.3815
_cell_angle_beta     90.0288
_cell_angle_gamma    118.372

_space_group_name_H-M_alt    "P 1"
_space_group_IT_number       1

loop_
  _space_group_symop_operation_xyz
  'x, y, z'

loop_
  _atom_site_type_symbol
  _atom_site_label
  _atom_site_symmetry_multiplicity
  _atom_site_fract_x
  _atom_site_fract_y
  _atom_site_fract_z
  _atom_site_occupancy
  Ba  Ba1       1.0  0.18782  0.67131  0.69623  1.0000
  Ba  Ba2       1.0  0.51643  0.32843  0.80376  1.0000
  Ba  Ba3       1.0  0.81217  0.32869  0.30377  1.0000
  Ba  Ba4       1.0  0.48357  0.67157  0.19624  1.0000
  H   H1        1.0  0.56266  0.90907  0.85958  1.0000
  H   H2        1.0  0.65363  0.09093  0.64041  1.0000
  H   H3        1.0  0.43734  0.09093  0.14041  1.0000
  H   H4        1.0  0.34636  0.90907  0.35959  1.0000
  H   H5        1.0  0.35801  0.89978  0.89049  1.0000
  H   H6        1.0  0.45816  0.10018  0.60954  1.0000
  H   H7        1.0  0.64199  0.10022  0.10951  1.0000
  H   H8        1.0  0.54185  0.89982  0.39046  1.0000
  H   H9        1.0  0.23263  0.59530  0.45972  1.0000
  H   H10       1.0  0.63696  0.40455  0.04035  1.0000
  H   H11       1.0  0.76737  0.40470  0.54028  1.0000
  H   H12       1.0  0.36304  0.59545  0.95965  1.0000
  H   H13       1.0  0.19662  0.77178  0.48111  1.0000
  H   H14       1.0  0.42439  0.22815  0.01897  1.0000
  H   H15       1.0  0.80338  0.22822  0.51890  1.0000
  H   H16       1.0  0.57561  0.77184  0.98103  1.0000
  H   H17       1.0  0.77341  0.69698  0.50509  1.0000
  H   H18       1.0  0.07752  0.30324  0.99490  1.0000
  H   H19       1.0  0.22659  0.30303  0.49491  1.0000
  H   H20       1.0  0.92248  0.69676  0.00509  1.0000
  H   H21       1.0  0.59793  0.78051  0.54255  1.0000
  H   H22       1.0  0.81823  0.21952  0.95770  1.0000
  H   H23       1.0  0.40206  0.21949  0.45745  1.0000
  H   H24       1.0  0.18178  0.78048  0.04230  1.0000
  C   C1        1.0  0.66146  0.61825  0.63709  1.0000
  C   C2        1.0  0.04320  0.38155  0.86294  1.0000
  C   C3        1.0  0.33853  0.38175  0.36291  1.0000
  C   C4        1.0  0.95680  0.61845  0.13706  1.0000
  C   C5        1.0  0.72655  0.75869  0.56317  1.0000
  C   C6        1.0  0.96852  0.24132  0.93696  1.0000
  C   C7        1.0  0.27345  0.24131  0.43683  1.0000
  C   C8        1.0  0.03148  0.75868  0.06304  1.0000
  C   C9        1.0  0.89987  0.94865  0.59913  1.0000
  C   C10       1.0  0.95157  0.05133  0.90094  1.0000
  C   C11       1.0  0.10013  0.05135  0.40087  1.0000
  C   C12       1.0  0.04844  0.94866  0.09906  1.0000
  N   N1        1.0  0.07754  0.97399  0.63460  1.0000
  N   N2        1.0  0.10372  0.02589  0.86542  1.0000
  N   N3        1.0  0.92245  0.02601  0.36540  1.0000
  N   N4        1.0  0.89628  0.97411  0.13458  1.0000
  N   N5        1.0  0.18380  0.16600  0.66169  1.0000
  N   N6        1.0  0.01768  0.83391  0.83825  1.0000
  N   N7        1.0  0.81620  0.83400  0.33831  1.0000
  N   N8        1.0  0.98232  0.16609  0.16175  1.0000
  N   N9        1.0  0.07554  0.25257  0.64351  1.0000
  N   N10       1.0  0.82288  0.74748  0.85642  1.0000
  N   N11       1.0  0.92446  0.74742  0.35649  1.0000
  N   N12       1.0  0.17712  0.25252  0.14358  1.0000
  N   N13       1.0  0.89464  0.11858  0.60416  1.0000
  N   N14       1.0  0.77625  0.88154  0.89585  1.0000
  N   N15       1.0  0.10536  0.88142  0.39584  1.0000
  N   N16       1.0  0.22375  0.11846  0.10415  1.0000
  O   O1        1.0  0.52277  0.61028  0.68797  1.0000
  O   O2        1.0  0.91216  0.38915  0.81208  1.0000
  O   O3        1.0  0.47723  0.38973  0.31203  1.0000
  O   O4        1.0  0.08785  0.61085  0.18792  1.0000
  O   O5        1.0  0.75592  0.51937  0.64518  1.0000
  O   O6        1.0  0.23649  0.48063  0.85471  1.0000
  O   O7        1.0  0.24407  0.48064  0.35482  1.0000
  O   O8        1.0  0.76352  0.51937  0.14529  1.0000
  O   O9        1.0  0.45270  0.93972  0.84182  1.0000
  O   O10       1.0  0.51300  0.06014  0.65817  1.0000
  O   O11       1.0  0.54730  0.06028  0.15818  1.0000
  O   O12       1.0  0.48699  0.93986  0.34183  1.0000
  O   O13       1.0  0.24203  0.68902  0.51060  1.0000
  O   O14       1.0  0.55253  0.31085  0.98946  1.0000
  O   O15       1.0  0.75797  0.31098  0.48940  1.0000
  O   O16       1.0  0.44747  0.68915  0.01054  1.0000
