data_image0
_chemical_formula_structural       Lu2H14C6O16
_chemical_formula_sum              "Lu2 H14 C6 O16"
_cell_length_a       6.46452
_cell_length_b       6.46842
_cell_length_c       9.3554
_cell_angle_alpha    72.317
_cell_angle_beta     87.4234
_cell_angle_gamma    83.2917

_space_group_name_H-M_alt    "P 1"
_space_group_IT_number       1

loop_
  _space_group_symop_operation_xyz
  'x, y, z'

loop_
  _atom_site_type_symbol
  _atom_site_label
  _atom_site_symmetry_multiplicity
  _atom_site_fract_x
  _atom_site_fract_y
  _atom_site_fract_z
  _atom_site_occupancy
  Lu  Lu1       1.0  0.25155  0.24934  0.24931  1.0000
  Lu  Lu2       1.0  0.74845  0.75066  0.75069  1.0000
  H   H1        1.0  0.73473  0.36121  0.28535  1.0000
  H   H2        1.0  0.26526  0.63879  0.71465  1.0000
  H   H3        1.0  0.20767  0.87714  0.07060  1.0000
  H   H4        1.0  0.79234  0.12287  0.92940  1.0000
  H   H5        1.0  0.20030  0.28585  0.65571  1.0000
  H   H6        1.0  0.79969  0.71416  0.34430  1.0000
  H   H7        1.0  0.40378  0.80986  0.42894  1.0000
  H   H8        1.0  0.59621  0.19013  0.57106  1.0000
  H   H9        1.0  0.15128  0.82658  0.43069  1.0000
  H   H10       1.0  0.84872  0.17342  0.56931  1.0000
  H   H11       1.0  0.39873  0.29986  0.94711  1.0000
  H   H12       1.0  0.60128  0.70014  0.05289  1.0000
  H   H13       1.0  0.14878  0.29770  0.94068  1.0000
  H   H14       1.0  0.85123  0.70230  0.05932  1.0000
  C   C1        1.0  0.75472  0.22080  0.23956  1.0000
  C   C2        1.0  0.24529  0.77920  0.76044  1.0000
  C   C3        1.0  0.22228  0.69998  0.12709  1.0000
  C   C4        1.0  0.77773  0.30002  0.87292  1.0000
  C   C5        1.0  0.21157  0.28606  0.53774  1.0000
  C   C6        1.0  0.78842  0.71394  0.46226  1.0000
  O   O1        1.0  0.59268  0.13768  0.22295  1.0000
  O   O2        1.0  0.40733  0.86232  0.77705  1.0000
  O   O3        1.0  0.93796  0.15386  0.20734  1.0000
  O   O4        1.0  0.06203  0.84614  0.79266  1.0000
  O   O5        1.0  0.40110  0.59099  0.14931  1.0000
  O   O6        1.0  0.59891  0.40901  0.85069  1.0000
  O   O7        1.0  0.05932  0.60113  0.16829  1.0000
  O   O8        1.0  0.94068  0.39888  0.83172  1.0000
  O   O9        1.0  0.05008  0.26918  0.47076  1.0000
  O   O10       1.0  0.94991  0.73082  0.52925  1.0000
  O   O11       1.0  0.38606  0.29993  0.46824  1.0000
  O   O12       1.0  0.61393  0.70007  0.53177  1.0000
  O   O13       1.0  0.27533  0.89466  0.37575  1.0000
  O   O14       1.0  0.72467  0.10533  0.62425  1.0000
  O   O15       1.0  0.27146  0.25421  0.00910  1.0000
  O   O16       1.0  0.72855  0.74579  0.99089  1.0000
