data_image0
_chemical_formula_structural       Zn2H28C48N4O8
_chemical_formula_sum              "Zn2 H28 C48 N4 O8"
_cell_length_a       9.17071
_cell_length_b       10.9831
_cell_length_c       10.9265
_cell_angle_alpha    118.713
_cell_angle_beta     104.508
_cell_angle_gamma    92.7424

_space_group_name_H-M_alt    "P 1"
_space_group_IT_number       1

loop_
  _space_group_symop_operation_xyz
  'x, y, z'

loop_
  _atom_site_type_symbol
  _atom_site_label
  _atom_site_symmetry_multiplicity
  _atom_site_fract_x
  _atom_site_fract_y
  _atom_site_fract_z
  _atom_site_occupancy
  Zn  Zn1       1.0  0.47025  0.06223  0.39038  1.0000
  Zn  Zn2       1.0  0.52975  0.93777  0.60962  1.0000
  H   H1        1.0  0.82997  0.09215  0.49240  1.0000
  H   H2        1.0  0.17003  0.90786  0.50760  1.0000
  H   H3        1.0  0.02304  0.97431  0.36534  1.0000
  H   H4        1.0  0.97696  0.02569  0.63466  1.0000
  H   H5        1.0  0.93136  0.80561  0.09576  1.0000
  H   H6        1.0  0.06864  0.19439  0.90424  1.0000
  H   H7        1.0  0.71526  0.70115  0.85421  1.0000
  H   H8        1.0  0.28474  0.29885  0.14579  1.0000
  H   H9        1.0  0.44246  0.67011  0.72249  1.0000
  H   H10       1.0  0.55754  0.32989  0.27751  1.0000
  H   H11       1.0  0.17669  0.71902  0.73384  1.0000
  H   H12       1.0  0.82330  0.28098  0.26616  1.0000
  H   H13       1.0  0.01005  0.83984  0.88723  1.0000
  H   H14       1.0  0.98995  0.16016  0.11277  1.0000
  H   H15       1.0  0.13147  0.99198  0.16319  1.0000
  H   H16       1.0  0.86853  0.00802  0.83681  1.0000
  H   H17       1.0  0.35225  0.47835  0.40736  1.0000
  H   H18       1.0  0.64774  0.52165  0.59264  1.0000
  H   H19       1.0  0.17233  0.64167  0.41258  1.0000
  H   H20       1.0  0.82767  0.35833  0.58742  1.0000
  H   H21       1.0  0.06082  0.26821  0.53107  1.0000
  H   H22       1.0  0.93918  0.73179  0.46893  1.0000
  H   H23       1.0  0.59295  0.72515  0.28956  1.0000
  H   H24       1.0  0.40706  0.27485  0.71044  1.0000
  H   H25       1.0  0.20022  0.38789  0.80771  1.0000
  H   H26       1.0  0.79978  0.61211  0.19229  1.0000
  H   H27       1.0  0.12148  0.56492  0.01618  1.0000
  H   H28       1.0  0.87853  0.43508  0.98382  1.0000
  C   C1        1.0  0.79757  0.02204  0.37327  1.0000
  C   C2        1.0  0.20243  0.97797  0.62673  1.0000
  C   C3        1.0  0.90321  0.95477  0.30234  1.0000
  C   C4        1.0  0.09679  0.04522  0.69766  1.0000
  C   C5        1.0  0.85308  0.86401  0.15185  1.0000
  C   C6        1.0  0.14691  0.13599  0.84815  1.0000
  C   C7        1.0  0.69870  0.84418  0.07081  1.0000
  C   C8        1.0  0.30130  0.15582  0.92918  1.0000
  C   C9        1.0  0.63779  0.75485  0.91462  1.0000
  C   C10       1.0  0.36221  0.24515  0.08537  1.0000
  C   C11       1.0  0.48638  0.73622  0.84173  1.0000
  C   C12       1.0  0.51363  0.26378  0.15827  1.0000
  C   C13       1.0  0.38331  0.80430  0.92051  1.0000
  C   C14       1.0  0.61669  0.19570  0.07949  1.0000
  C   C15       1.0  0.22487  0.78623  0.85262  1.0000
  C   C16       1.0  0.77513  0.21377  0.14738  1.0000
  C   C17       1.0  0.13278  0.85339  0.93762  1.0000
  C   C18       1.0  0.86722  0.14660  0.06238  1.0000
  C   C19       1.0  0.19910  0.93847  0.09075  1.0000
  C   C20       1.0  0.80090  0.06153  0.90925  1.0000
  C   C21       1.0  0.44002  0.89371  0.07550  1.0000
  C   C22       1.0  0.55998  0.10629  0.92450  1.0000
  C   C23       1.0  0.60038  0.91572  0.15156  1.0000
  C   C24       1.0  0.39962  0.08428  0.84844  1.0000
  C   C25       1.0  0.31364  0.25402  0.44772  1.0000
  C   C26       1.0  0.68636  0.74598  0.55228  1.0000
  C   C27       1.0  0.21403  0.36115  0.46590  1.0000
  C   C28       1.0  0.78596  0.63885  0.53410  1.0000
  C   C29       1.0  0.24760  0.46905  0.43483  1.0000
  C   C30       1.0  0.75239  0.53095  0.56517  1.0000
  C   C31       1.0  0.14940  0.56128  0.44038  1.0000
  C   C32       1.0  0.85060  0.43872  0.55962  1.0000
  C   C33       1.0  0.01570  0.55283  0.48156  1.0000
  C   C34       1.0  0.98430  0.44718  0.51844  1.0000
  C   C35       1.0  0.08526  0.35161  0.50771  1.0000
  C   C36       1.0  0.91474  0.64839  0.49229  1.0000
  C   C37       1.0  0.30308  0.76474  0.28690  1.0000
  C   C38       1.0  0.69692  0.23526  0.71310  1.0000
  C   C39       1.0  0.35353  0.65516  0.16542  1.0000
  C   C40       1.0  0.64648  0.34484  0.83458  1.0000
  C   C41       1.0  0.50784  0.64934  0.18463  1.0000
  C   C42       1.0  0.49216  0.35066  0.81537  1.0000
  C   C43       1.0  0.55648  0.54785  0.06963  1.0000
  C   C44       1.0  0.44353  0.45215  0.93037  1.0000
  C   C45       1.0  0.28609  0.46057  0.91344  1.0000
  C   C46       1.0  0.71391  0.53943  0.08656  1.0000
  C   C47       1.0  0.24194  0.55820  0.02844  1.0000
  C   C48       1.0  0.75807  0.44180  0.97156  1.0000
  N   N1        1.0  0.65025  0.00181  0.29971  1.0000
  N   N2        1.0  0.34975  0.99819  0.70029  1.0000
  N   N3        1.0  0.34820  0.95787  0.15719  1.0000
  N   N4        1.0  0.65180  0.04213  0.84281  1.0000
  O   O1        1.0  0.44544  0.27544  0.43409  1.0000
  O   O2        1.0  0.55455  0.72456  0.56591  1.0000
  O   O3        1.0  0.26304  0.13995  0.44162  1.0000
  O   O4        1.0  0.73695  0.86004  0.55837  1.0000
  O   O5        1.0  0.16587  0.75099  0.28252  1.0000
  O   O6        1.0  0.83414  0.24901  0.71750  1.0000
  O   O7        1.0  0.41133  0.87313  0.39289  1.0000
  O   O8        1.0  0.58868  0.12687  0.60711  1.0000
