data_image0
_chemical_formula_structural       Ca4H24C12N16O16
_chemical_formula_sum              "Ca4 H24 C12 N16 O16"
_cell_length_a       8.70586
_cell_length_b       7.96516
_cell_length_c       11.0122
_cell_angle_alpha    89.9997
_cell_angle_beta     90.0004
_cell_angle_gamma    90.0007

_space_group_name_H-M_alt    "P 1"
_space_group_IT_number       1

loop_
  _space_group_symop_operation_xyz
  'x, y, z'

loop_
  _atom_site_type_symbol
  _atom_site_label
  _atom_site_symmetry_multiplicity
  _atom_site_fract_x
  _atom_site_fract_y
  _atom_site_fract_z
  _atom_site_occupancy
  Ca  Ca1       1.0  0.96109  0.75000  0.70567  1.0000
  Ca  Ca2       1.0  0.53890  0.25000  0.20567  1.0000
  Ca  Ca3       1.0  0.46109  0.75000  0.79433  1.0000
  Ca  Ca4       1.0  0.03891  0.25000  0.29433  1.0000
  H   H1        1.0  0.92060  0.38368  0.76129  1.0000
  H   H2        1.0  0.57940  0.61631  0.26129  1.0000
  H   H3        1.0  0.42061  0.11631  0.73871  1.0000
  H   H4        1.0  0.07939  0.88369  0.23871  1.0000
  H   H5        1.0  0.07940  0.61630  0.23871  1.0000
  H   H6        1.0  0.42061  0.38370  0.73871  1.0000
  H   H7        1.0  0.57939  0.88370  0.26129  1.0000
  H   H8        1.0  0.92061  0.11630  0.76129  1.0000
  H   H9        1.0  0.96378  0.38846  0.62129  1.0000
  H   H10       1.0  0.53622  0.61153  0.12129  1.0000
  H   H11       1.0  0.46380  0.11154  0.87871  1.0000
  H   H12       1.0  0.03619  0.88846  0.37871  1.0000
  H   H13       1.0  0.03623  0.61153  0.37872  1.0000
  H   H14       1.0  0.46377  0.38847  0.87871  1.0000
  H   H15       1.0  0.53621  0.88847  0.12129  1.0000
  H   H16       1.0  0.96379  0.11153  0.62129  1.0000
  H   H17       1.0  0.31956  0.64086  0.38519  1.0000
  H   H18       1.0  0.18044  0.35915  0.88519  1.0000
  H   H19       1.0  0.81956  0.85915  0.11481  1.0000
  H   H20       1.0  0.68044  0.14085  0.61481  1.0000
  H   H21       1.0  0.68044  0.35914  0.61481  1.0000
  H   H22       1.0  0.81955  0.64086  0.11481  1.0000
  H   H23       1.0  0.18045  0.14086  0.88519  1.0000
  H   H24       1.0  0.31955  0.85916  0.38519  1.0000
  C   C1        1.0  0.22242  0.74999  0.54270  1.0000
  C   C2        1.0  0.27758  0.25001  0.04270  1.0000
  C   C3        1.0  0.72243  0.75000  0.95730  1.0000
  C   C4        1.0  0.77758  0.24999  0.45731  1.0000
  C   C5        1.0  0.34342  0.75001  0.44393  1.0000
  C   C6        1.0  0.15658  0.25001  0.94393  1.0000
  C   C7        1.0  0.84342  0.75000  0.05606  1.0000
  C   C8        1.0  0.65658  0.25000  0.55606  1.0000
  C   C9        1.0  0.50951  0.75001  0.47641  1.0000
  C   C10       1.0  0.99049  0.25000  0.97641  1.0000
  C   C11       1.0  0.00952  0.75000  0.02359  1.0000
  C   C12       1.0  0.49048  0.24999  0.52359  1.0000
  N   N1        1.0  0.57645  0.75000  0.58601  1.0000
  N   N2        1.0  0.92356  0.25001  0.08601  1.0000
  N   N3        1.0  0.07645  0.74999  0.91399  1.0000
  N   N4        1.0  0.42355  0.25000  0.41399  1.0000
  N   N5        1.0  0.73017  0.75001  0.56259  1.0000
  N   N6        1.0  0.76984  0.24999  0.06258  1.0000
  N   N7        1.0  0.23017  0.74999  0.93742  1.0000
  N   N8        1.0  0.26983  0.25000  0.43741  1.0000
  N   N9        1.0  0.75441  0.75002  0.44515  1.0000
  N   N10       1.0  0.74559  0.24998  0.94515  1.0000
  N   N11       1.0  0.25442  0.75000  0.05486  1.0000
  N   N12       1.0  0.24558  0.25000  0.55485  1.0000
  N   N13       1.0  0.61753  0.75002  0.38824  1.0000
  N   N14       1.0  0.88246  0.24998  0.88823  1.0000
  N   N15       1.0  0.11754  0.75000  0.11177  1.0000
  N   N16       1.0  0.38246  0.25000  0.61177  1.0000
  O   O1        1.0  0.08251  0.74998  0.50601  1.0000
  O   O2        1.0  0.41750  0.25002  0.00600  1.0000
  O   O3        1.0  0.58250  0.75000  0.99399  1.0000
  O   O4        1.0  0.91750  0.24999  0.49399  1.0000
  O   O5        1.0  0.25422  0.75000  0.65501  1.0000
  O   O6        1.0  0.24577  0.25000  0.15498  1.0000
  O   O7        1.0  0.75423  0.75000  0.84500  1.0000
  O   O8        1.0  0.74578  0.25000  0.34500  1.0000
  O   O9        1.0  0.95483  0.45932  0.69461  1.0000
  O   O10       1.0  0.54518  0.54069  0.19462  1.0000
  O   O11       1.0  0.45483  0.04068  0.80539  1.0000
  O   O12       1.0  0.04516  0.95931  0.30538  1.0000
  O   O13       1.0  0.04518  0.54068  0.30539  1.0000
  O   O14       1.0  0.45483  0.45932  0.80539  1.0000
  O   O15       1.0  0.54516  0.95932  0.19461  1.0000
  O   O16       1.0  0.95484  0.04067  0.69461  1.0000
