data_image0
_chemical_formula_structural       Mg4H24C12N16O16
_chemical_formula_sum              "Mg4 H24 C12 N16 O16"
_cell_length_a       8.356
_cell_length_b       8.10128
_cell_length_c       9.55216
_cell_angle_alpha    89.9999
_cell_angle_beta     90
_cell_angle_gamma    89.9999

_space_group_name_H-M_alt    "P 1"
_space_group_IT_number       1

loop_
  _space_group_symop_operation_xyz
  'x, y, z'

loop_
  _atom_site_type_symbol
  _atom_site_label
  _atom_site_symmetry_multiplicity
  _atom_site_fract_x
  _atom_site_fract_y
  _atom_site_fract_z
  _atom_site_occupancy
  Mg  Mg1       1.0  0.75687  0.31893  0.06467  1.0000
  Mg  Mg2       1.0  0.24313  0.81893  0.93533  1.0000
  Mg  Mg3       1.0  0.24314  0.31892  0.56466  1.0000
  Mg  Mg4       1.0  0.75686  0.81893  0.43533  1.0000
  H   H1        1.0  0.10078  0.14488  0.14111  1.0000
  H   H2        1.0  0.89923  0.64489  0.85890  1.0000
  H   H3        1.0  0.89922  0.14487  0.64111  1.0000
  H   H4        1.0  0.10078  0.64488  0.35889  1.0000
  H   H5        1.0  0.13199  0.05648  0.30943  1.0000
  H   H6        1.0  0.86801  0.55649  0.69058  1.0000
  H   H7        1.0  0.86801  0.05648  0.80943  1.0000
  H   H8        1.0  0.13198  0.55648  0.19057  1.0000
  H   H9        1.0  0.66780  0.63305  0.00065  1.0000
  H   H10       1.0  0.33220  0.13304  0.99935  1.0000
  H   H11       1.0  0.33220  0.63304  0.50064  1.0000
  H   H12       1.0  0.66780  0.13305  0.49936  1.0000
  H   H13       1.0  0.75396  0.64418  0.14958  1.0000
  H   H14       1.0  0.24603  0.14419  0.85043  1.0000
  H   H15       1.0  0.24603  0.64419  0.64958  1.0000
  H   H16       1.0  0.75396  0.14419  0.35043  1.0000
  H   H17       1.0  0.66613  0.99084  0.09204  1.0000
  H   H18       1.0  0.33386  0.49084  0.90796  1.0000
  H   H19       1.0  0.33387  0.99083  0.59204  1.0000
  H   H20       1.0  0.66613  0.49084  0.40796  1.0000
  H   H21       1.0  0.84948  0.98884  0.05704  1.0000
  H   H22       1.0  0.15051  0.48884  0.94297  1.0000
  H   H23       1.0  0.15052  0.98885  0.55703  1.0000
  H   H24       1.0  0.84948  0.48885  0.44297  1.0000
  C   C1        1.0  0.29900  0.24006  0.25308  1.0000
  C   C2        1.0  0.70100  0.74007  0.74692  1.0000
  C   C3        1.0  0.70100  0.24007  0.75308  1.0000
  C   C4        1.0  0.29899  0.74006  0.24692  1.0000
  C   C5        1.0  0.13372  0.17262  0.24935  1.0000
  C   C6        1.0  0.86628  0.67262  0.75064  1.0000
  C   C7        1.0  0.86628  0.17262  0.74936  1.0000
  C   C8        1.0  0.13371  0.67262  0.25065  1.0000
  C   C9        1.0  0.00898  0.28377  0.31682  1.0000
  C   C10       1.0  0.99104  0.78377  0.68319  1.0000
  C   C11       1.0  0.99104  0.28376  0.81682  1.0000
  C   C12       1.0  0.00897  0.78377  0.18317  1.0000
  N   N1        1.0  0.53567  0.30353  0.19024  1.0000
  N   N2        1.0  0.46433  0.80353  0.80976  1.0000
  N   N3        1.0  0.46433  0.30353  0.69024  1.0000
  N   N4        1.0  0.53567  0.80352  0.30976  1.0000
  N   N5        1.0  0.40089  0.23124  0.14526  1.0000
  N   N6        1.0  0.59912  0.73124  0.85474  1.0000
  N   N7        1.0  0.59912  0.23124  0.64526  1.0000
  N   N8        1.0  0.40088  0.73123  0.35474  1.0000
  N   N9        1.0  0.51684  0.35568  0.32006  1.0000
  N   N10       1.0  0.48316  0.85568  0.67994  1.0000
  N   N11       1.0  0.48317  0.35568  0.82006  1.0000
  N   N12       1.0  0.51683  0.85568  0.17994  1.0000
  N   N13       1.0  0.36873  0.31612  0.36264  1.0000
  N   N14       1.0  0.63128  0.81612  0.63736  1.0000
  N   N15       1.0  0.63128  0.31613  0.86264  1.0000
  N   N16       1.0  0.36872  0.81612  0.13736  1.0000
  O   O1        1.0  0.03413  0.33947  0.43951  1.0000
  O   O2        1.0  0.96587  0.83947  0.56047  1.0000
  O   O3        1.0  0.96587  0.33947  0.93952  1.0000
  O   O4        1.0  0.03413  0.83947  0.06049  1.0000
  O   O5        1.0  0.88085  0.31316  0.24978  1.0000
  O   O6        1.0  0.11915  0.81316  0.75021  1.0000
  O   O7        1.0  0.11916  0.31314  0.74979  1.0000
  O   O8        1.0  0.88083  0.81315  0.25022  1.0000
  O   O9        1.0  0.73247  0.56941  0.07165  1.0000
  O   O10       1.0  0.26754  0.06941  0.92835  1.0000
  O   O11       1.0  0.26754  0.56941  0.57164  1.0000
  O   O12       1.0  0.73246  0.06941  0.42835  1.0000
  O   O13       1.0  0.75347  0.05926  0.05046  1.0000
  O   O14       1.0  0.24652  0.55925  0.94954  1.0000
  O   O15       1.0  0.24653  0.05925  0.55045  1.0000
  O   O16       1.0  0.75347  0.55925  0.44955  1.0000
