data_image0
_chemical_formula_structural       Cu4H44C36S4N4O16
_chemical_formula_sum              "Cu4 H44 C36 S4 N4 O16"
_cell_length_a       8.63222
_cell_length_b       10.6782
_cell_length_c       11.8779
_cell_angle_alpha    106.661
_cell_angle_beta     89.9984
_cell_angle_gamma    90.0019

_space_group_name_H-M_alt    "P 1"
_space_group_IT_number       1

loop_
  _space_group_symop_operation_xyz
  'x, y, z'

loop_
  _atom_site_type_symbol
  _atom_site_label
  _atom_site_symmetry_multiplicity
  _atom_site_fract_x
  _atom_site_fract_y
  _atom_site_fract_z
  _atom_site_occupancy
  Cu  Cu1       1.0  0.52497  0.36417  0.40623  1.0000
  Cu  Cu2       1.0  0.02497  0.13583  0.09377  1.0000
  Cu  Cu3       1.0  0.47503  0.63583  0.59377  1.0000
  Cu  Cu4       1.0  0.97504  0.86417  0.90624  1.0000
  H   H1        1.0  0.51019  0.54909  0.79719  1.0000
  H   H2        1.0  0.01017  0.95091  0.70281  1.0000
  H   H3        1.0  0.48981  0.45091  0.20281  1.0000
  H   H4        1.0  0.98983  0.04909  0.29721  1.0000
  H   H5        1.0  0.59098  0.43585  0.94408  1.0000
  H   H6        1.0  0.09096  0.06416  0.55591  1.0000
  H   H7        1.0  0.40903  0.56415  0.05592  1.0000
  H   H8        1.0  0.90904  0.93584  0.44410  1.0000
  H   H9        1.0  0.74772  0.23340  0.88386  1.0000
  H   H10       1.0  0.24772  0.26660  0.61612  1.0000
  H   H11       1.0  0.25228  0.76659  0.11612  1.0000
  H   H12       1.0  0.75227  0.73340  0.38389  1.0000
  H   H13       1.0  0.83846  0.15113  0.67632  1.0000
  H   H14       1.0  0.33848  0.34886  0.82365  1.0000
  H   H15       1.0  0.16153  0.84886  0.32367  1.0000
  H   H16       1.0  0.66152  0.65115  0.17636  1.0000
  H   H17       1.0  0.85052  0.33341  0.47183  1.0000
  H   H18       1.0  0.35052  0.16660  0.02816  1.0000
  H   H19       1.0  0.14949  0.66659  0.52817  1.0000
  H   H20       1.0  0.64949  0.83341  0.97185  1.0000
  H   H21       1.0  0.86745  0.17359  0.48832  1.0000
  H   H22       1.0  0.36747  0.32642  0.01167  1.0000
  H   H23       1.0  0.13255  0.82641  0.51168  1.0000
  H   H24       1.0  0.63253  0.67358  0.98834  1.0000
  H   H25       1.0  0.71452  0.18862  0.32764  1.0000
  H   H26       1.0  0.21452  0.31139  0.17234  1.0000
  H   H27       1.0  0.28548  0.81138  0.67235  1.0000
  H   H28       1.0  0.78548  0.68861  0.82767  1.0000
  H   H29       1.0  0.49557  0.13468  0.49909  1.0000
  H   H30       1.0  0.99559  0.36531  0.00088  1.0000
  H   H31       1.0  0.50443  0.86532  0.50091  1.0000
  H   H32       1.0  0.00442  0.63468  0.99911  1.0000
  H   H33       1.0  0.65191  0.02779  0.43844  1.0000
  H   H34       1.0  0.15193  0.47221  0.06152  1.0000
  H   H35       1.0  0.34809  0.97221  0.56155  1.0000
  H   H36       1.0  0.84807  0.52779  0.93848  1.0000
  H   H37       1.0  0.42871  0.94408  0.31672  1.0000
  H   H38       1.0  0.92873  0.55592  0.18325  1.0000
  H   H39       1.0  0.57128  0.05592  0.68327  1.0000
  H   H40       1.0  0.07125  0.44407  0.81674  1.0000
  H   H41       1.0  0.54918  0.01725  0.23217  1.0000
  H   H42       1.0  0.04920  0.48277  0.26781  1.0000
  H   H43       1.0  0.45080  0.98276  0.76783  1.0000
  H   H44       1.0  0.95079  0.51725  0.73219  1.0000
  C   C1        1.0  0.63142  0.41463  0.65307  1.0000
  C   C2        1.0  0.13142  0.08538  0.84692  1.0000
  C   C3        1.0  0.36859  0.58538  0.34693  1.0000
  C   C4        1.0  0.86859  0.91462  0.15309  1.0000
  C   C5        1.0  0.58417  0.46307  0.77105  1.0000
  C   C6        1.0  0.08416  0.03693  0.72894  1.0000
  C   C7        1.0  0.41584  0.53693  0.22895  1.0000
  C   C8        1.0  0.91584  0.96307  0.27107  1.0000
  C   C9        1.0  0.62840  0.39860  0.85281  1.0000
  C   C10       1.0  0.12839  0.10141  0.64718  1.0000
  C   C11       1.0  0.37161  0.60140  0.14718  1.0000
  C   C12       1.0  0.87161  0.89859  0.35283  1.0000
  C   C13       1.0  0.71800  0.28497  0.81988  1.0000
  C   C14       1.0  0.21800  0.21504  0.68011  1.0000
  C   C15       1.0  0.28200  0.71503  0.18011  1.0000
  C   C16       1.0  0.78199  0.78496  0.31990  1.0000
  C   C17       1.0  0.76698  0.23865  0.70331  1.0000
  C   C18       1.0  0.26699  0.26135  0.79667  1.0000
  C   C19       1.0  0.23302  0.76134  0.29668  1.0000
  C   C20       1.0  0.73301  0.73866  0.20334  1.0000
  C   C21       1.0  0.72850  0.30294  0.62004  1.0000
  C   C22       1.0  0.22851  0.19705  0.87994  1.0000
  C   C23       1.0  0.27150  0.69706  0.37995  1.0000
  C   C24       1.0  0.77149  0.80295  0.12007  1.0000
  C   C25       1.0  0.78744  0.25597  0.49673  1.0000
  C   C26       1.0  0.28745  0.24404  0.00325  1.0000
  C   C27       1.0  0.21256  0.74403  0.50326  1.0000
  C   C28       1.0  0.71255  0.75596  0.99676  1.0000
  C   C29       1.0  0.57187  0.10098  0.42225  1.0000
  C   C30       1.0  0.07189  0.39902  0.07773  1.0000
  C   C31       1.0  0.42813  0.89902  0.57775  1.0000
  C   C32       1.0  0.92812  0.60097  0.92227  1.0000
  C   C33       1.0  0.47863  0.03717  0.31240  1.0000
  C   C34       1.0  0.97865  0.46284  0.18758  1.0000
  C   C35       1.0  0.52136  0.96283  0.68760  1.0000
  C   C36       1.0  0.02135  0.53716  0.81241  1.0000
  S   S1        1.0  0.31692  0.13451  0.29383  1.0000
  S   S2        1.0  0.81693  0.36551  0.20615  1.0000
  S   S3        1.0  0.68307  0.86551  0.70619  1.0000
  S   S4        1.0  0.18308  0.63448  0.79384  1.0000
  N   N1        1.0  0.66081  0.21399  0.40864  1.0000
  N   N2        1.0  0.16081  0.28602  0.09134  1.0000
  N   N3        1.0  0.33919  0.78601  0.59135  1.0000
  N   N4        1.0  0.83919  0.71398  0.90867  1.0000
  O   O1        1.0  0.58499  0.46981  0.56978  1.0000
  O   O2        1.0  0.08499  0.03019  0.93021  1.0000
  O   O3        1.0  0.41502  0.53019  0.43021  1.0000
  O   O4        1.0  0.91502  0.96980  0.06980  1.0000
  O   O5        1.0  0.38655  0.25890  0.27764  1.0000
  O   O6        1.0  0.88653  0.24111  0.22233  1.0000
  O   O7        1.0  0.61344  0.74111  0.72236  1.0000
  O   O8        1.0  0.11348  0.75889  0.77767  1.0000
  O   O9        1.0  0.22306  0.15934  0.39975  1.0000
  O   O10       1.0  0.72306  0.34069  0.10023  1.0000
  O   O11       1.0  0.77694  0.84067  0.60025  1.0000
  O   O12       1.0  0.27695  0.65929  0.89976  1.0000
  O   O13       1.0  0.24075  0.06162  0.18439  1.0000
  O   O14       1.0  0.74077  0.43839  0.31559  1.0000
  O   O15       1.0  0.75924  0.93838  0.81561  1.0000
  O   O16       1.0  0.25923  0.56161  0.68440  1.0000
