data_image0
_chemical_formula_structural       Mn2H28C32N20O2
_chemical_formula_sum              "Mn2 H28 C32 N20 O2"
_cell_length_a       7.56643
_cell_length_b       10.985
_cell_length_c       11.5072
_cell_angle_alpha    116.61
_cell_angle_beta     94.416
_cell_angle_gamma    92.0394

_space_group_name_H-M_alt    "P 1"
_space_group_IT_number       1

loop_
  _space_group_symop_operation_xyz
  'x, y, z'

loop_
  _atom_site_type_symbol
  _atom_site_label
  _atom_site_symmetry_multiplicity
  _atom_site_fract_x
  _atom_site_fract_y
  _atom_site_fract_z
  _atom_site_occupancy
  Mn  Mn1       1.0  0.76773  0.51103  0.71966  1.0000
  Mn  Mn2       1.0  0.23228  0.48898  0.28034  1.0000
  H   H1        1.0  0.91291  0.71062  0.01099  1.0000
  H   H2        1.0  0.08710  0.28938  0.98901  1.0000
  H   H3        1.0  0.86248  0.17643  0.24168  1.0000
  H   H4        1.0  0.13752  0.82358  0.75833  1.0000
  H   H5        1.0  0.71875  0.34657  0.18731  1.0000
  H   H6        1.0  0.28124  0.65343  0.81270  1.0000
  H   H7        1.0  0.56699  0.27824  0.96503  1.0000
  H   H8        1.0  0.43300  0.72176  0.03497  1.0000
  H   H9        1.0  0.54628  0.03338  0.79603  1.0000
  H   H10       1.0  0.45372  0.96661  0.20396  1.0000
  H   H11       1.0  0.62409  0.79071  0.73584  1.0000
  H   H12       1.0  0.37592  0.20930  0.26417  1.0000
  H   H13       1.0  0.63578  0.27771  0.42269  1.0000
  H   H14       1.0  0.36421  0.72229  0.57731  1.0000
  H   H15       1.0  0.61800  0.80905  0.27794  1.0000
  H   H16       1.0  0.38199  0.19095  0.72205  1.0000
  H   H17       1.0  0.72509  0.66359  0.37911  1.0000
  H   H18       1.0  0.27490  0.33641  0.62089  1.0000
  H   H19       1.0  0.88760  0.76573  0.59988  1.0000
  H   H20       1.0  0.11238  0.23426  0.40012  1.0000
  H   H21       1.0  0.94168  0.01954  0.72953  1.0000
  H   H22       1.0  0.05832  0.98046  0.27047  1.0000
  H   H23       1.0  0.88235  0.25365  0.74546  1.0000
  H   H24       1.0  0.11765  0.74635  0.25453  1.0000
  H   H25       1.0  0.66328  0.49554  0.93705  1.0000
  H   H26       1.0  0.33673  0.50445  0.06295  1.0000
  H   H27       1.0  0.48090  0.45421  0.84696  1.0000
  H   H28       1.0  0.51911  0.54578  0.15304  1.0000
  C   C1        1.0  0.85136  0.78710  0.98896  1.0000
  C   C2        1.0  0.14864  0.21290  0.01103  1.0000
  C   C3        1.0  0.78732  0.00843  0.05047  1.0000
  C   C4        1.0  0.21268  0.99158  0.94952  1.0000
  C   C5        1.0  0.79460  0.14662  0.14491  1.0000
  C   C6        1.0  0.20541  0.85339  0.85510  1.0000
  C   C7        1.0  0.71567  0.24070  0.11319  1.0000
  C   C8        1.0  0.28432  0.75931  0.88681  1.0000
  C   C9        1.0  0.62828  0.20146  0.98680  1.0000
  C   C10       1.0  0.37172  0.79854  0.01320  1.0000
  C   C11       1.0  0.61808  0.06713  0.89277  1.0000
  C   C12       1.0  0.38192  0.93287  0.10722  1.0000
  C   C13       1.0  0.69761  0.96882  0.92341  1.0000
  C   C14       1.0  0.30239  0.03118  0.07659  1.0000
  C   C15       1.0  0.69226  0.82897  0.83417  1.0000
  C   C16       1.0  0.30775  0.17104  0.16583  1.0000
  C   C17       1.0  0.68070  0.21251  0.46626  1.0000
  C   C18       1.0  0.31931  0.78750  0.53374  1.0000
  C   C19       1.0  0.71175  0.99828  0.44825  1.0000
  C   C20       1.0  0.28826  0.00172  0.55175  1.0000
  C   C21       1.0  0.68552  0.85456  0.37669  1.0000
  C   C22       1.0  0.31446  0.14544  0.62330  1.0000
  C   C23       1.0  0.74750  0.77443  0.43306  1.0000
  C   C24       1.0  0.25250  0.22556  0.56693  1.0000
  C   C25       1.0  0.83955  0.83334  0.56015  1.0000
  C   C26       1.0  0.16044  0.16665  0.43983  1.0000
  C   C27       1.0  0.86796  0.97316  0.63217  1.0000
  C   C28       1.0  0.13204  0.02684  0.36782  1.0000
  C   C29       1.0  0.80222  0.05740  0.57749  1.0000
  C   C30       1.0  0.19779  0.94260  0.42250  1.0000
  C   C31       1.0  0.82016  0.20113  0.64493  1.0000
  C   C32       1.0  0.17985  0.79887  0.35507  1.0000
  N   N1        1.0  0.76778  0.73862  0.86490  1.0000
  N   N2        1.0  0.23223  0.26137  0.13510  1.0000
  N   N3        1.0  0.86417  0.91402  0.08089  1.0000
  N   N4        1.0  0.13583  0.08598  0.91911  1.0000
  N   N5        1.0  0.76176  0.27892  0.59126  1.0000
  N   N6        1.0  0.23825  0.72108  0.40874  1.0000
  N   N7        1.0  0.65177  0.07976  0.39450  1.0000
  N   N8        1.0  0.34822  0.92023  0.60550  1.0000
  N   N9        1.0  0.93186  0.55727  0.59761  1.0000
  N   N10       1.0  0.06814  0.44273  0.40239  1.0000
  N   N11       1.0  0.99999  0.50000  0.50000  1.0000
  N   N12       1.0  0.98390  0.49780  0.84496  1.0000
  N   N13       1.0  0.01611  0.50220  0.15504  1.0000
  N   N14       1.0  0.12644  0.46899  0.86789  1.0000
  N   N15       1.0  0.87356  0.53102  0.13212  1.0000
  N   N16       1.0  0.26839  0.43981  0.89354  1.0000
  N   N17       1.0  0.73162  0.56020  0.10647  1.0000
  N   N18       1.0  0.52363  0.52346  0.61145  1.0000
  N   N19       1.0  0.47637  0.47654  0.38855  1.0000
  N   N20       1.0  0.50000  0.50000  0.50002  1.0000
  O   O1        1.0  0.61195  0.45727  0.84399  1.0000
  O   O2        1.0  0.38806  0.54274  0.15601  1.0000
