data_image0
_chemical_formula_structural       Mn2H24C32N20
_chemical_formula_sum              "Mn2 H24 C32 N20"
_cell_length_a       6.81249
_cell_length_b       9.80649
_cell_length_c       12.486
_cell_angle_alpha    98.7275
_cell_angle_beta     89.9852
_cell_angle_gamma    110.329

_space_group_name_H-M_alt    "P 1"
_space_group_IT_number       1

loop_
  _space_group_symop_operation_xyz
  'x, y, z'

loop_
  _atom_site_type_symbol
  _atom_site_label
  _atom_site_symmetry_multiplicity
  _atom_site_fract_x
  _atom_site_fract_y
  _atom_site_fract_z
  _atom_site_occupancy
  Mn  Mn1       1.0  0.93579  0.00001  0.75004  1.0000
  Mn  Mn2       1.0  0.06421  0.99999  0.24996  1.0000
  H   H1        1.0  0.62413  0.73427  0.83606  1.0000
  H   H2        1.0  0.88991  0.26580  0.66413  1.0000
  H   H3        1.0  0.37587  0.26573  0.16394  1.0000
  H   H4        1.0  0.11008  0.73420  0.33587  1.0000
  H   H5        1.0  0.37308  0.24076  0.68055  1.0000
  H   H6        1.0  0.13284  0.75925  0.81959  1.0000
  H   H7        1.0  0.62692  0.75925  0.31945  1.0000
  H   H8        1.0  0.86716  0.24075  0.18041  1.0000
  H   H9        1.0  0.43882  0.10167  0.50856  1.0000
  H   H10       1.0  0.33764  0.89836  0.99154  1.0000
  H   H11       1.0  0.56118  0.89833  0.49144  1.0000
  H   H12       1.0  0.66236  0.10164  0.00846  1.0000
  H   H13       1.0  0.68111  0.23259  0.37847  1.0000
  H   H14       1.0  0.44868  0.76739  0.12167  1.0000
  H   H15       1.0  0.31889  0.76741  0.62153  1.0000
  H   H16       1.0  0.55131  0.23261  0.87833  1.0000
  H   H17       1.0  0.85770  0.50204  0.41600  1.0000
  H   H18       1.0  0.35558  0.49794  0.08420  1.0000
  H   H19       1.0  0.14231  0.49796  0.58400  1.0000
  H   H20       1.0  0.64442  0.50206  0.91580  1.0000
  H   H21       1.0  0.93205  0.74330  0.54932  1.0000
  H   H22       1.0  0.18834  0.25660  0.95088  1.0000
  H   H23       1.0  0.06796  0.25671  0.45068  1.0000
  H   H24       1.0  0.81166  0.74339  0.04912  1.0000
  C   C1        1.0  0.64936  0.67133  0.76085  1.0000
  C   C2        1.0  0.97811  0.32871  0.73933  1.0000
  C   C3        1.0  0.35064  0.32867  0.23915  1.0000
  C   C4        1.0  0.02188  0.67129  0.26067  1.0000
  C   C5        1.0  0.58204  0.45171  0.64753  1.0000
  C   C6        1.0  0.13066  0.54830  0.85264  1.0000
  C   C7        1.0  0.41796  0.54830  0.35247  1.0000
  C   C8        1.0  0.86934  0.45170  0.14735  1.0000
  C   C9        1.0  0.48007  0.29721  0.62338  1.0000
  C   C10       1.0  0.18333  0.70281  0.87679  1.0000
  C   C11       1.0  0.51993  0.70279  0.37662  1.0000
  C   C12       1.0  0.81667  0.29718  0.12321  1.0000
  C   C13       1.0  0.51810  0.22062  0.52809  1.0000
  C   C14       1.0  0.29792  0.77941  0.97206  1.0000
  C   C15       1.0  0.48190  0.77939  0.47191  1.0000
  C   C16       1.0  0.70208  0.22059  0.02794  1.0000
  C   C17       1.0  0.65538  0.29491  0.45353  1.0000
  C   C18       1.0  0.36068  0.70510  0.04663  1.0000
  C   C19       1.0  0.34462  0.70510  0.54647  1.0000
  C   C20       1.0  0.63931  0.29489  0.95337  1.0000
  C   C21       1.0  0.75417  0.44568  0.47444  1.0000
  C   C22       1.0  0.30859  0.55429  0.02574  1.0000
  C   C23       1.0  0.24583  0.55432  0.52556  1.0000
  C   C24       1.0  0.69141  0.44570  0.97426  1.0000
  C   C25       1.0  0.72094  0.52637  0.57232  1.0000
  C   C26       1.0  0.19475  0.47360  0.92786  1.0000
  C   C27       1.0  0.27906  0.47363  0.42768  1.0000
  C   C28       1.0  0.80525  0.52639  0.07214  1.0000
  C   C29       1.0  0.82150  0.67996  0.60244  1.0000
  C   C30       1.0  0.14145  0.31999  0.89774  1.0000
  C   C31       1.0  0.17850  0.32005  0.39756  1.0000
  C   C32       1.0  0.85854  0.68001  0.10226  1.0000
  N   N1        1.0  0.78852  0.75241  0.69539  1.0000
  N   N2        1.0  0.03602  0.24757  0.80479  1.0000
  N   N3        1.0  0.21148  0.24759  0.30461  1.0000
  N   N4        1.0  0.96398  0.75242  0.19521  1.0000
  N   N5        1.0  0.54776  0.52832  0.74215  1.0000
  N   N6        1.0  0.01969  0.47174  0.75802  1.0000
  N   N7        1.0  0.45224  0.47168  0.25785  1.0000
  N   N8        1.0  0.98031  0.52826  0.24198  1.0000
  N   N9        1.0  0.89987  0.95790  0.91613  1.0000
  N   N10       1.0  0.94208  0.04209  0.58392  1.0000
  N   N11       1.0  0.10013  0.04210  0.08387  1.0000
  N   N12       1.0  0.05792  0.95790  0.41607  1.0000
  N   N13       1.0  1.00000  1.00000  1.00000  1.0000
  N   N14       1.0  0.00000  1.00000  0.50000  1.0000
  N   N15       1.0  0.59843  0.99995  0.75001  1.0000
  N   N16       1.0  0.40157  0.00005  0.24999  1.0000
  N   N17       1.0  0.42564  0.99998  0.75001  1.0000
  N   N18       1.0  0.57436  0.00002  0.24999  1.0000
  N   N19       1.0  0.25141  0.00001  0.75002  1.0000
  N   N20       1.0  0.74860  0.99999  0.24998  1.0000
