data_image0
_chemical_formula_structural       Co2H18C26N2O10
_chemical_formula_sum              "Co2 H18 C26 N2 O10"
_cell_length_a       7.13354
_cell_length_b       10.1101
_cell_length_c       9.97994
_cell_angle_alpha    112.877
_cell_angle_beta     96.8628
_cell_angle_gamma    107.488

_space_group_name_H-M_alt    "P 1"
_space_group_IT_number       1

loop_
  _space_group_symop_operation_xyz
  'x, y, z'

loop_
  _atom_site_type_symbol
  _atom_site_label
  _atom_site_symmetry_multiplicity
  _atom_site_fract_x
  _atom_site_fract_y
  _atom_site_fract_z
  _atom_site_occupancy
  Co  Co1       1.0  0.07718  0.87698  0.37642  1.0000
  Co  Co2       1.0  0.92283  0.12303  0.62358  1.0000
  H   H1        1.0  0.94796  0.59611  0.09102  1.0000
  H   H2        1.0  0.05205  0.40389  0.90899  1.0000
  H   H3        1.0  0.73879  0.95345  0.24830  1.0000
  H   H4        1.0  0.26121  0.04654  0.75170  1.0000
  H   H5        1.0  0.11782  0.42168  0.32904  1.0000
  H   H6        1.0  0.88220  0.57831  0.67093  1.0000
  H   H7        1.0  0.38480  0.34720  0.68891  1.0000
  H   H8        1.0  0.61519  0.65282  0.31110  1.0000
  H   H9        1.0  0.45039  0.80972  0.76203  1.0000
  H   H10       1.0  0.54960  0.19028  0.23796  1.0000
  H   H11       1.0  0.48267  0.84364  0.00357  1.0000
  H   H12       1.0  0.51732  0.15634  0.99645  1.0000
  H   H13       1.0  0.70838  0.47393  0.83573  1.0000
  H   H14       1.0  0.29163  0.52606  0.16429  1.0000
  H   H15       1.0  0.44002  0.99658  0.32767  1.0000
  H   H16       1.0  0.55994  0.00342  0.67231  1.0000
  H   H17       1.0  0.24689  0.99909  0.23333  1.0000
  H   H18       1.0  0.75312  0.00091  0.76669  1.0000
  C   C1        1.0  0.84299  0.64729  0.06496  1.0000
  C   C2        1.0  0.15702  0.35272  0.93504  1.0000
  C   C3        1.0  0.72679  0.84758  0.15361  1.0000
  C   C4        1.0  0.27321  0.15242  0.84640  1.0000
  C   C5        1.0  0.15902  0.19657  0.40069  1.0000
  C   C6        1.0  0.84097  0.80344  0.59932  1.0000
  C   C7        1.0  0.23868  0.73317  0.48217  1.0000
  C   C8        1.0  0.76132  0.26681  0.51781  1.0000
  C   C9        1.0  0.20553  0.46752  0.44517  1.0000
  C   C10       1.0  0.79450  0.53249  0.55483  1.0000
  C   C11       1.0  0.35634  0.42696  0.64863  1.0000
  C   C12       1.0  0.64367  0.57304  0.35137  1.0000
  C   C13       1.0  0.43687  0.58650  0.74414  1.0000
  C   C14       1.0  0.56315  0.41351  0.25586  1.0000
  C   C15       1.0  0.28051  0.62724  0.54054  1.0000
  C   C16       1.0  0.71950  0.37278  0.45946  1.0000
  C   C17       1.0  0.57503  0.65018  0.89524  1.0000
  C   C18       1.0  0.42498  0.34981  0.10477  1.0000
  C   C19       1.0  0.23916  0.36717  0.50048  1.0000
  C   C20       1.0  0.76084  0.63282  0.49950  1.0000
  C   C21       1.0  0.39194  0.68534  0.68981  1.0000
  C   C22       1.0  0.60808  0.31465  0.31019  1.0000
  C   C23       1.0  0.58597  0.78615  0.01552  1.0000
  C   C24       1.0  0.41401  0.21383  0.98447  1.0000
  C   C25       1.0  0.70664  0.57926  0.92369  1.0000
  C   C26       1.0  0.29336  0.42074  0.07631  1.0000
  N   N1        1.0  0.85560  0.78046  0.17863  1.0000
  N   N2        1.0  0.14440  0.21955  0.82139  1.0000
  O   O1        1.0  0.10685  0.10754  0.46781  1.0000
  O   O2        1.0  0.89313  0.89247  0.53219  1.0000
  O   O3        1.0  0.12005  0.67506  0.34967  1.0000
  O   O4        1.0  0.87995  0.32493  0.65032  1.0000
  O   O5        1.0  0.15335  0.14601  0.26384  1.0000
  O   O6        1.0  0.84663  0.85399  0.73617  1.0000
  O   O7        1.0  0.29900  0.92946  0.26111  1.0000
  O   O8        1.0  0.70101  0.07057  0.73891  1.0000
  O   O9        1.0  0.31152  0.88051  0.56407  1.0000
  O   O10       1.0  0.68845  0.11948  0.43592  1.0000
