data_image0
_chemical_formula_structural       Cd2H14C8Br4N2O2
_chemical_formula_sum              "Cd2 H14 C8 Br4 N2 O2"
_cell_length_a       4.05794
_cell_length_b       10.3461
_cell_length_c       10.831
_cell_angle_alpha    63.8818
_cell_angle_beta     79.168
_cell_angle_gamma    78.6447

_space_group_name_H-M_alt    "P 1"
_space_group_IT_number       1

loop_
  _space_group_symop_operation_xyz
  'x, y, z'

loop_
  _atom_site_type_symbol
  _atom_site_label
  _atom_site_symmetry_multiplicity
  _atom_site_fract_x
  _atom_site_fract_y
  _atom_site_fract_z
  _atom_site_occupancy
  Cd  Cd1       1.0  0.84971  0.93609  0.36500  1.0000
  Cd  Cd2       1.0  0.15030  0.06391  0.63501  1.0000
  H   H1        1.0  0.07634  0.43027  0.41736  1.0000
  H   H2        1.0  0.92366  0.56973  0.58264  1.0000
  H   H3        1.0  0.97435  0.41722  0.19531  1.0000
  H   H4        1.0  0.59090  0.58366  0.80491  1.0000
  H   H5        1.0  0.02564  0.58279  0.80468  1.0000
  H   H6        1.0  0.40912  0.41634  0.19508  1.0000
  H   H7        1.0  0.95562  0.65082  0.00589  1.0000
  H   H8        1.0  0.61219  0.34968  0.99348  1.0000
  H   H9        1.0  0.04437  0.34918  0.99411  1.0000
  H   H10       1.0  0.38781  0.65033  0.00652  1.0000
  H   H11       1.0  0.25048  0.81584  0.11134  1.0000
  H   H12       1.0  0.17955  0.18423  0.88838  1.0000
  H   H13       1.0  0.74950  0.18416  0.88867  1.0000
  H   H14       1.0  0.82045  0.81577  0.11162  1.0000
  C   C1        1.0  0.02793  0.65088  0.29306  1.0000
  C   C2        1.0  0.97203  0.34911  0.70696  1.0000
  C   C3        1.0  0.16034  0.48182  0.19456  1.0000
  C   C4        1.0  0.83967  0.51818  0.80544  1.0000
  C   C5        1.0  0.14578  0.63471  0.07275  1.0000
  C   C6        1.0  0.85422  0.36529  0.92724  1.0000
  C   C7        1.0  0.05796  0.74326  0.13935  1.0000
  C   C8        1.0  0.94203  0.25673  0.86065  1.0000
  Br  Br1       1.0  0.39054  0.04322  0.17714  1.0000
  Br  Br2       1.0  0.60945  0.95678  0.82286  1.0000
  Br  Br3       1.0  0.69707  0.17723  0.42952  1.0000
  Br  Br4       1.0  0.30296  0.82277  0.57049  1.0000
  N   N1        1.0  0.08559  0.51066  0.31786  1.0000
  N   N2        1.0  0.91441  0.48935  0.68213  1.0000
  O   O1        1.0  0.95906  0.69632  0.38724  1.0000
  O   O2        1.0  0.04094  0.30367  0.61276  1.0000
