data_image0
_chemical_formula_structural       Tb4H16C20S2N8O28
_chemical_formula_sum              "Tb4 H16 C20 S2 N8 O28"
_cell_length_a       6.65048
_cell_length_b       11.0701
_cell_length_c       13.0915
_cell_angle_alpha    106.698
_cell_angle_beta     89.9783
_cell_angle_gamma    107.46

_space_group_name_H-M_alt    "P 1"
_space_group_IT_number       1

loop_
  _space_group_symop_operation_xyz
  'x, y, z'

loop_
  _atom_site_type_symbol
  _atom_site_label
  _atom_site_symmetry_multiplicity
  _atom_site_fract_x
  _atom_site_fract_y
  _atom_site_fract_z
  _atom_site_occupancy
  Tb  Tb1       1.0  0.78121  0.70506  0.71509  1.0000
  Tb  Tb2       1.0  0.07638  0.29504  0.78495  1.0000
  Tb  Tb3       1.0  0.21878  0.29494  0.28491  1.0000
  Tb  Tb4       1.0  0.92362  0.70496  0.21505  1.0000
  H   H1        1.0  0.37018  0.88657  0.86900  1.0000
  H   H2        1.0  0.48393  0.11334  0.63099  1.0000
  H   H3        1.0  0.62981  0.11343  0.13100  1.0000
  H   H4        1.0  0.51607  0.88666  0.36901  1.0000
  H   H5        1.0  0.25163  0.84672  0.04678  1.0000
  H   H6        1.0  0.40529  0.15310  0.45319  1.0000
  H   H7        1.0  0.74837  0.15328  0.95322  1.0000
  H   H8        1.0  0.59471  0.84690  0.54681  1.0000
  H   H9        1.0  0.48316  0.43313  0.64425  1.0000
  H   H10       1.0  0.05039  0.56704  0.85582  1.0000
  H   H11       1.0  0.51684  0.56687  0.35575  1.0000
  H   H12       1.0  0.94961  0.43295  0.14418  1.0000
  H   H13       1.0  0.61491  0.43758  0.74174  1.0000
  H   H14       1.0  0.17730  0.56234  0.75817  1.0000
  H   H15       1.0  0.38508  0.56242  0.25826  1.0000
  H   H16       1.0  0.82270  0.43765  0.24183  1.0000
  C   C1        1.0  0.63386  0.73721  0.96713  1.0000
  C   C2        1.0  0.89671  0.26292  0.53289  1.0000
  C   C3        1.0  0.36615  0.26280  0.03286  1.0000
  C   C4        1.0  0.10329  0.73708  0.46711  1.0000
  C   C5        1.0  0.79920  0.67182  0.95693  1.0000
  C   C6        1.0  0.12738  0.32834  0.54303  1.0000
  C   C7        1.0  0.20081  0.32819  0.04307  1.0000
  C   C8        1.0  0.87262  0.67165  0.45696  1.0000
  C   C9        1.0  0.44025  0.83805  0.91378  1.0000
  C   C10       1.0  0.60246  0.16191  0.58621  1.0000
  C   C11       1.0  0.55975  0.16195  0.08622  1.0000
  C   C12       1.0  0.39754  0.83809  0.41379  1.0000
  C   C13       1.0  0.42610  0.69621  0.13203  1.0000
  C   C14       1.0  0.73007  0.30385  0.36799  1.0000
  C   C15       1.0  0.57390  0.30379  0.86796  1.0000
  C   C16       1.0  0.26993  0.69615  0.63201  1.0000
  C   C17       1.0  0.48720  0.75174  0.04209  1.0000
  C   C18       1.0  0.73565  0.24826  0.45789  1.0000
  C   C19       1.0  0.51280  0.24827  0.95791  1.0000
  C   C20       1.0  0.26435  0.75174  0.54211  1.0000
  S   S1        1.0  0.97979  0.00003  0.75005  1.0000
  S   S2        1.0  0.02021  0.99997  0.24995  1.0000
  N   N1        1.0  0.60040  0.78965  0.88723  1.0000
  N   N2        1.0  0.81089  0.21046  0.61280  1.0000
  N   N3        1.0  0.39960  0.21035  0.11277  1.0000
  N   N4        1.0  0.18911  0.78954  0.38720  1.0000
  N   N5        1.0  0.36866  0.81658  0.00592  1.0000
  N   N6        1.0  0.55237  0.18329  0.49403  1.0000
  N   N7        1.0  0.63134  0.18342  0.99408  1.0000
  N   N8        1.0  0.44763  0.81671  0.50597  1.0000
  O   O1        1.0  0.88155  0.65629  0.86706  1.0000
  O   O2        1.0  0.22522  0.34400  0.63290  1.0000
  O   O3        1.0  0.11846  0.34372  0.13293  1.0000
  O   O4        1.0  0.77478  0.65600  0.36710  1.0000
  O   O5        1.0  0.06131  0.91702  0.80007  1.0000
  O   O6        1.0  0.14400  0.08285  0.69974  1.0000
  O   O7        1.0  0.93869  0.08298  0.19993  1.0000
  O   O8        1.0  0.85600  0.91715  0.30026  1.0000
  O   O9        1.0  0.80212  0.90364  0.66914  1.0000
  O   O10       1.0  0.89924  0.09667  0.83127  1.0000
  O   O11       1.0  0.19788  0.09636  0.33087  1.0000
  O   O12       1.0  0.10075  0.90333  0.16873  1.0000
  O   O13       1.0  0.85678  0.63444  0.03088  1.0000
  O   O14       1.0  0.22227  0.36561  0.46902  1.0000
  O   O15       1.0  0.14323  0.36557  0.96912  1.0000
  O   O16       1.0  0.77773  0.63439  0.53098  1.0000
  O   O17       1.0  0.23982  0.68337  0.15850  1.0000
  O   O18       1.0  0.55645  0.31637  0.34144  1.0000
  O   O19       1.0  0.76018  0.31663  0.84150  1.0000
  O   O20       1.0  0.44355  0.68363  0.65856  1.0000
  O   O21       1.0  0.55724  0.65992  0.17737  1.0000
  O   O22       1.0  0.89763  0.34056  0.32284  1.0000
  O   O23       1.0  0.44276  0.34008  0.82262  1.0000
  O   O24       1.0  0.10237  0.65944  0.67716  1.0000
  O   O25       1.0  0.62876  0.47750  0.68244  1.0000
  O   O26       1.0  0.15163  0.52262  0.81760  1.0000
  O   O27       1.0  0.37124  0.52250  0.31756  1.0000
  O   O28       1.0  0.84837  0.47737  0.18240  1.0000
