data_image0
_chemical_formula_structural       Er4H16C20S2N8O28
_chemical_formula_sum              "Er4 H16 C20 S2 N8 O28"
_cell_length_a       6.59133
_cell_length_b       10.9704
_cell_length_c       12.9943
_cell_angle_alpha    105.73
_cell_angle_beta     90.0043
_cell_angle_gamma    107.48

_space_group_name_H-M_alt    "P 1"
_space_group_IT_number       1

loop_
  _space_group_symop_operation_xyz
  'x, y, z'

loop_
  _atom_site_type_symbol
  _atom_site_label
  _atom_site_symmetry_multiplicity
  _atom_site_fract_x
  _atom_site_fract_y
  _atom_site_fract_z
  _atom_site_occupancy
  Er  Er1       1.0  0.77965  0.70593  0.71392  1.0000
  Er  Er2       1.0  0.07384  0.29416  0.78611  1.0000
  Er  Er3       1.0  0.22035  0.29407  0.28609  1.0000
  Er  Er4       1.0  0.92617  0.70584  0.21388  1.0000
  H   H1        1.0  0.36818  0.88707  0.86301  1.0000
  H   H2        1.0  0.48107  0.11282  0.63697  1.0000
  H   H3        1.0  0.63182  0.11293  0.13699  1.0000
  H   H4        1.0  0.51893  0.88718  0.36303  1.0000
  H   H5        1.0  0.25001  0.84893  0.04327  1.0000
  H   H6        1.0  0.40103  0.15091  0.45670  1.0000
  H   H7        1.0  0.74999  0.15108  0.95673  1.0000
  H   H8        1.0  0.59896  0.84909  0.54330  1.0000
  H   H9        1.0  0.48379  0.43519  0.64596  1.0000
  H   H10       1.0  0.04873  0.56488  0.85403  1.0000
  H   H11       1.0  0.51621  0.56481  0.35404  1.0000
  H   H12       1.0  0.95129  0.43513  0.14597  1.0000
  H   H13       1.0  0.62731  0.44013  0.74080  1.0000
  H   H14       1.0  0.18736  0.55984  0.75921  1.0000
  H   H15       1.0  0.37268  0.55987  0.25921  1.0000
  H   H16       1.0  0.81265  0.44017  0.24079  1.0000
  C   C1        1.0  0.63587  0.73894  0.96538  1.0000
  C   C2        1.0  0.89684  0.26100  0.53466  1.0000
  C   C3        1.0  0.36412  0.26105  0.03462  1.0000
  C   C4        1.0  0.10315  0.73900  0.46534  1.0000
  C   C5        1.0  0.80250  0.67319  0.95590  1.0000
  C   C6        1.0  0.12919  0.32671  0.54412  1.0000
  C   C7        1.0  0.19749  0.32680  0.04410  1.0000
  C   C8        1.0  0.87080  0.67329  0.45588  1.0000
  C   C9        1.0  0.43948  0.83897  0.90917  1.0000
  C   C10       1.0  0.60044  0.16096  0.59083  1.0000
  C   C11       1.0  0.56052  0.16103  0.09083  1.0000
  C   C12       1.0  0.39955  0.83905  0.40917  1.0000
  C   C13       1.0  0.42925  0.69808  0.13211  1.0000
  C   C14       1.0  0.73116  0.30177  0.36786  1.0000
  C   C15       1.0  0.57075  0.30192  0.86790  1.0000
  C   C16       1.0  0.26884  0.69823  0.63214  1.0000
  C   C17       1.0  0.48862  0.75435  0.04082  1.0000
  C   C18       1.0  0.73422  0.24554  0.45917  1.0000
  C   C19       1.0  0.51138  0.24565  0.95918  1.0000
  C   C20       1.0  0.26577  0.75447  0.54083  1.0000
  S   S1        1.0  0.97609  0.00007  0.75003  1.0000
  S   S2        1.0  0.02392  0.99993  0.24997  1.0000
  N   N1        1.0  0.60083  0.79004  0.88331  1.0000
  N   N2        1.0  0.81072  0.20993  0.61673  1.0000
  N   N3        1.0  0.39917  0.20996  0.11669  1.0000
  N   N4        1.0  0.18927  0.79007  0.38327  1.0000
  N   N5        1.0  0.36808  0.81850  0.00274  1.0000
  N   N6        1.0  0.54952  0.18140  0.49725  1.0000
  N   N7        1.0  0.63192  0.18150  0.99726  1.0000
  N   N8        1.0  0.45047  0.81860  0.50276  1.0000
  O   O1        1.0  0.87958  0.65379  0.86409  1.0000
  O   O2        1.0  0.22568  0.34627  0.63595  1.0000
  O   O3        1.0  0.12041  0.34621  0.13591  1.0000
  O   O4        1.0  0.77432  0.65373  0.36404  1.0000
  O   O5        1.0  0.05716  0.91519  0.80034  1.0000
  O   O6        1.0  0.14211  0.08491  0.69973  1.0000
  O   O7        1.0  0.94284  0.08481  0.19966  1.0000
  O   O8        1.0  0.85790  0.91508  0.30027  1.0000
  O   O9        1.0  0.79816  0.90410  0.66900  1.0000
  O   O10       1.0  0.89420  0.09609  0.83104  1.0000
  O   O11       1.0  0.20185  0.09591  0.33100  1.0000
  O   O12       1.0  0.10582  0.90391  0.16896  1.0000
  O   O13       1.0  0.86629  0.63931  0.03177  1.0000
  O   O14       1.0  0.22686  0.36046  0.46821  1.0000
  O   O15       1.0  0.13369  0.36068  0.96823  1.0000
  O   O16       1.0  0.77313  0.63953  0.53179  1.0000
  O   O17       1.0  0.24100  0.68225  0.15939  1.0000
  O   O18       1.0  0.55877  0.31761  0.34052  1.0000
  O   O19       1.0  0.75900  0.31775  0.84061  1.0000
  O   O20       1.0  0.44122  0.68239  0.65948  1.0000
  O   O21       1.0  0.56445  0.66310  0.17760  1.0000
  O   O22       1.0  0.90137  0.33673  0.32242  1.0000
  O   O23       1.0  0.43556  0.33690  0.82241  1.0000
  O   O24       1.0  0.09862  0.66326  0.67757  1.0000
  O   O25       1.0  0.63288  0.48035  0.68118  1.0000
  O   O26       1.0  0.15266  0.51969  0.81886  1.0000
  O   O27       1.0  0.36711  0.51965  0.31883  1.0000
  O   O28       1.0  0.84736  0.48031  0.18114  1.0000
