data_image0
_chemical_formula_structural       Dy4H16C20S2N8O28
_chemical_formula_sum              "Dy4 H16 C20 S2 N8 O28"
_cell_length_a       6.63018
_cell_length_b       11.0327
_cell_length_c       13.0604
_cell_angle_alpha    106.414
_cell_angle_beta     89.9737
_cell_angle_gamma    107.48

_space_group_name_H-M_alt    "P 1"
_space_group_IT_number       1

loop_
  _space_group_symop_operation_xyz
  'x, y, z'

loop_
  _atom_site_type_symbol
  _atom_site_label
  _atom_site_symmetry_multiplicity
  _atom_site_fract_x
  _atom_site_fract_y
  _atom_site_fract_z
  _atom_site_occupancy
  Dy  Dy1       1.0  0.77926  0.70510  0.71455  1.0000
  Dy  Dy2       1.0  0.07457  0.29497  0.78546  1.0000
  Dy  Dy3       1.0  0.22074  0.29490  0.28545  1.0000
  Dy  Dy4       1.0  0.92543  0.70503  0.21454  1.0000
  H   H1        1.0  0.36821  0.88634  0.86737  1.0000
  H   H2        1.0  0.48211  0.11355  0.63260  1.0000
  H   H3        1.0  0.63179  0.11366  0.13263  1.0000
  H   H4        1.0  0.51788  0.88644  0.36739  1.0000
  H   H5        1.0  0.25088  0.84731  0.04626  1.0000
  H   H6        1.0  0.40404  0.15250  0.45369  1.0000
  H   H7        1.0  0.74913  0.15269  0.95374  1.0000
  H   H8        1.0  0.59596  0.84750  0.54631  1.0000
  H   H9        1.0  0.48264  0.43310  0.64518  1.0000
  H   H10       1.0  0.04975  0.56706  0.85483  1.0000
  H   H11       1.0  0.51736  0.56690  0.35483  1.0000
  H   H12       1.0  0.95025  0.43295  0.14517  1.0000
  H   H13       1.0  0.62175  0.43832  0.74087  1.0000
  H   H14       1.0  0.18394  0.56171  0.75919  1.0000
  H   H15       1.0  0.37825  0.56168  0.25913  1.0000
  H   H16       1.0  0.81606  0.43830  0.24081  1.0000
  C   C1        1.0  0.63456  0.73793  0.96669  1.0000
  C   C2        1.0  0.89692  0.26224  0.53334  1.0000
  C   C3        1.0  0.36544  0.26207  0.03331  1.0000
  C   C4        1.0  0.10308  0.73776  0.46666  1.0000
  C   C5        1.0  0.80075  0.67264  0.95657  1.0000
  C   C6        1.0  0.12832  0.32763  0.54345  1.0000
  C   C7        1.0  0.19924  0.32736  0.04342  1.0000
  C   C8        1.0  0.87168  0.67237  0.45656  1.0000
  C   C9        1.0  0.43910  0.83810  0.91255  1.0000
  C   C10       1.0  0.60130  0.16187  0.58745  1.0000
  C   C11       1.0  0.56090  0.16190  0.08745  1.0000
  C   C12       1.0  0.39870  0.83813  0.41255  1.0000
  C   C13       1.0  0.42797  0.69652  0.13221  1.0000
  C   C14       1.0  0.73189  0.30328  0.36769  1.0000
  C   C15       1.0  0.57203  0.30348  0.86779  1.0000
  C   C16       1.0  0.26811  0.69672  0.63231  1.0000
  C   C17       1.0  0.48772  0.75249  0.04190  1.0000
  C   C18       1.0  0.73565  0.24743  0.45806  1.0000
  C   C19       1.0  0.51228  0.24751  0.95810  1.0000
  C   C20       1.0  0.26435  0.75257  0.54194  1.0000
  S   S1        1.0  0.97686  0.00000  0.74994  1.0000
  S   S2        1.0  0.02313  1.00000  0.25006  1.0000
  N   N1        1.0  0.59983  0.78971  0.88607  1.0000
  N   N2        1.0  0.81035  0.21043  0.61397  1.0000
  N   N3        1.0  0.40018  0.21029  0.11394  1.0000
  N   N4        1.0  0.18965  0.78957  0.38603  1.0000
  N   N5        1.0  0.36801  0.81692  0.00526  1.0000
  N   N6        1.0  0.55150  0.18293  0.49469  1.0000
  N   N7        1.0  0.63199  0.18308  0.99474  1.0000
  N   N8        1.0  0.44850  0.81706  0.50531  1.0000
  O   O1        1.0  0.88036  0.65530  0.86576  1.0000
  O   O2        1.0  0.22510  0.34494  0.63425  1.0000
  O   O3        1.0  0.11963  0.34470  0.13424  1.0000
  O   O4        1.0  0.77489  0.65506  0.36575  1.0000
  O   O5        1.0  0.05811  0.91666  0.80039  1.0000
  O   O6        1.0  0.14189  0.08340  0.69969  1.0000
  O   O7        1.0  0.94189  0.08334  0.19961  1.0000
  O   O8        1.0  0.85811  0.91660  0.30032  1.0000
  O   O9        1.0  0.79927  0.90351  0.66893  1.0000
  O   O10       1.0  0.89522  0.09647  0.83075  1.0000
  O   O11       1.0  0.20074  0.09649  0.33106  1.0000
  O   O12       1.0  0.10478  0.90353  0.16925  1.0000
  O   O13       1.0  0.86154  0.63698  0.03124  1.0000
  O   O14       1.0  0.22490  0.36334  0.46881  1.0000
  O   O15       1.0  0.13846  0.36302  0.96876  1.0000
  O   O16       1.0  0.77511  0.63666  0.53118  1.0000
  O   O17       1.0  0.24090  0.68183  0.15911  1.0000
  O   O18       1.0  0.55934  0.31770  0.34072  1.0000
  O   O19       1.0  0.75910  0.31817  0.84089  1.0000
  O   O20       1.0  0.44066  0.68230  0.65929  1.0000
  O   O21       1.0  0.56129  0.66123  0.17746  1.0000
  O   O22       1.0  0.90055  0.33874  0.32250  1.0000
  O   O23       1.0  0.43871  0.33876  0.82254  1.0000
  O   O24       1.0  0.09946  0.66126  0.67750  1.0000
  O   O25       1.0  0.63024  0.47800  0.68146  1.0000
  O   O26       1.0  0.15264  0.52217  0.81866  1.0000
  O   O27       1.0  0.36976  0.52200  0.31854  1.0000
  O   O28       1.0  0.84736  0.47783  0.18134  1.0000
