data_image0
_chemical_formula_structural       Gd2H36C28Cl2O12
_chemical_formula_sum              "Gd2 H36 C28 Cl2 O12"
_cell_length_a       8.58628
_cell_length_b       9.88252
_cell_length_c       10.2923
_cell_angle_alpha    103.859
_cell_angle_beta     109.137
_cell_angle_gamma    96.6854

_space_group_name_H-M_alt    "P 1"
_space_group_IT_number       1

loop_
  _space_group_symop_operation_xyz
  'x, y, z'

loop_
  _atom_site_type_symbol
  _atom_site_label
  _atom_site_symmetry_multiplicity
  _atom_site_fract_x
  _atom_site_fract_y
  _atom_site_fract_z
  _atom_site_occupancy
  Gd  Gd1       1.0  0.56995  0.12157  0.23066  1.0000
  Gd  Gd2       1.0  0.43005  0.87843  0.76934  1.0000
  H   H1        1.0  0.31805  0.82325  0.33200  1.0000
  H   H2        1.0  0.68195  0.17675  0.66800  1.0000
  H   H3        1.0  0.44571  0.78655  0.22608  1.0000
  H   H4        1.0  0.55429  0.21345  0.77391  1.0000
  H   H5        1.0  0.15745  0.96414  0.00516  1.0000
  H   H6        1.0  0.84254  0.03586  0.99484  1.0000
  H   H7        1.0  0.11362  0.04570  0.16085  1.0000
  H   H8        1.0  0.88638  0.95430  0.83915  1.0000
  H   H9        1.0  0.19495  0.13589  0.40981  1.0000
  H   H10       1.0  0.80505  0.86411  0.59019  1.0000
  H   H11       1.0  0.95718  0.37003  0.28184  1.0000
  H   H12       1.0  0.04282  0.62997  0.71816  1.0000
  H   H13       1.0  0.87708  0.43401  0.41866  1.0000
  H   H14       1.0  0.12292  0.56599  0.58133  1.0000
  H   H15       1.0  0.96765  0.66055  0.38545  1.0000
  H   H16       1.0  0.03235  0.33945  0.61454  1.0000
  H   H17       1.0  0.93023  0.58029  0.20129  1.0000
  H   H18       1.0  0.06977  0.41971  0.79871  1.0000
  H   H19       1.0  0.67751  0.67713  0.18371  1.0000
  H   H20       1.0  0.32249  0.32287  0.81629  1.0000
  H   H21       1.0  0.66137  0.62588  0.33412  1.0000
  H   H22       1.0  0.33863  0.37412  0.66588  1.0000
  H   H23       1.0  0.19862  0.68262  0.00531  1.0000
  H   H24       1.0  0.80138  0.31738  0.99469  1.0000
  H   H25       1.0  0.13104  0.61802  0.12986  1.0000
  H   H26       1.0  0.86896  0.38198  0.87014  1.0000
  H   H27       1.0  0.98993  0.81999  0.17198  1.0000
  H   H28       1.0  0.01007  0.18001  0.82802  1.0000
  H   H29       1.0  0.93748  0.77363  0.98300  1.0000
  H   H30       1.0  0.06252  0.22637  0.01700  1.0000
  H   H31       1.0  0.47365  0.41923  0.13549  1.0000
  H   H32       1.0  0.52635  0.58077  0.86451  1.0000
  H   H33       1.0  0.60763  0.42804  0.03570  1.0000
  H   H34       1.0  0.39236  0.57196  0.96430  1.0000
  H   H35       1.0  0.21924  0.48343  0.30143  1.0000
  H   H36       1.0  0.78076  0.51657  0.69857  1.0000
  C   C1        1.0  0.93789  0.07348  0.39552  1.0000
  C   C2        1.0  0.06211  0.92652  0.60448  1.0000
  C   C3        1.0  0.82177  0.99070  0.44891  1.0000
  C   C4        1.0  0.17823  0.00930  0.55109  1.0000
  C   C5        1.0  0.59459  0.38991  0.49182  1.0000
  C   C6        1.0  0.40541  0.61009  0.50818  1.0000
  C   C7        1.0  0.42543  0.37970  0.37344  1.0000
  C   C8        1.0  0.57457  0.62030  0.62656  1.0000
  C   C9        1.0  0.32551  0.81339  0.22561  1.0000
  C   C10       1.0  0.67449  0.18661  0.77440  1.0000
  C   C11       1.0  0.15136  0.95271  0.10699  1.0000
  C   C12       1.0  0.84864  0.04729  0.89301  1.0000
  C   C13       1.0  0.11124  0.07802  0.44760  1.0000
  C   C14       1.0  0.88876  0.92198  0.55240  1.0000
  C   C15       1.0  0.86743  0.43072  0.30893  1.0000
  C   C16       1.0  0.13257  0.56928  0.69106  1.0000
  C   C17       1.0  0.88217  0.57808  0.28756  1.0000
  C   C18       1.0  0.11783  0.42192  0.71244  1.0000
  C   C19       1.0  0.69932  0.59634  0.24071  1.0000
  C   C20       1.0  0.30067  0.40366  0.75928  1.0000
  C   C21       1.0  0.17130  0.71444  0.10403  1.0000
  C   C22       1.0  0.82870  0.28556  0.89597  1.0000
  C   C23       1.0  0.04292  0.81047  0.08730  1.0000
  C   C24       1.0  0.95708  0.18953  0.91270  1.0000
  C   C25       1.0  0.60481  0.44733  0.14463  1.0000
  C   C26       1.0  0.39519  0.55267  0.85537  1.0000
  C   C27       1.0  0.33888  0.49060  0.38605  1.0000
  C   C28       1.0  0.66112  0.50940  0.61395  1.0000
  Cl  Cl1       1.0  0.60795  0.87747  0.04773  1.0000
  Cl  Cl2       1.0  0.39205  0.12253  0.95226  1.0000
  O   O1        1.0  0.86441  0.13520  0.30399  1.0000
  O   O2        1.0  0.13559  0.86480  0.69601  1.0000
  O   O3        1.0  0.66538  0.98951  0.39248  1.0000
  O   O4        1.0  0.33462  0.01050  0.60752  1.0000
  O   O5        1.0  0.69691  0.35101  0.21174  1.0000
  O   O6        1.0  0.30309  0.64899  0.78826  1.0000
  O   O7        1.0  0.32336  0.95253  0.19915  1.0000
  O   O8        1.0  0.67664  0.04747  0.80085  1.0000
  O   O9        1.0  0.37488  0.26669  0.26677  1.0000
  O   O10       1.0  0.62513  0.73332  0.73323  1.0000
  O   O11       1.0  0.66599  0.28549  0.46880  1.0000
  O   O12       1.0  0.33402  0.71451  0.53120  1.0000
