data_image0
_chemical_formula_structural       Zn4H64C40N8O20
_chemical_formula_sum              "Zn4 H64 C40 N8 O20"
_cell_length_a       7.63968
_cell_length_b       11.4319
_cell_length_c       13.9533
_cell_angle_alpha    90
_cell_angle_beta     90.0001
_cell_angle_gamma    90

_space_group_name_H-M_alt    "P 1"
_space_group_IT_number       1

loop_
  _space_group_symop_operation_xyz
  'x, y, z'

loop_
  _atom_site_type_symbol
  _atom_site_label
  _atom_site_symmetry_multiplicity
  _atom_site_fract_x
  _atom_site_fract_y
  _atom_site_fract_z
  _atom_site_occupancy
  Zn  Zn1       1.0  0.92744  0.54070  0.57459  1.0000
  Zn  Zn2       1.0  0.57256  0.45931  0.07459  1.0000
  Zn  Zn3       1.0  0.42744  0.95931  0.42541  1.0000
  Zn  Zn4       1.0  0.07256  0.04069  0.92541  1.0000
  H   H1        1.0  0.19019  0.71596  0.95066  1.0000
  H   H2        1.0  0.30981  0.28405  0.45066  1.0000
  H   H3        1.0  0.69018  0.78404  0.04934  1.0000
  H   H4        1.0  0.80982  0.21595  0.54934  1.0000
  H   H5        1.0  0.06375  0.66841  0.04704  1.0000
  H   H6        1.0  0.43625  0.33159  0.54704  1.0000
  H   H7        1.0  0.56375  0.83159  0.95296  1.0000
  H   H8        1.0  0.93625  0.16840  0.45296  1.0000
  H   H9        1.0  0.10857  0.50907  0.87260  1.0000
  H   H10       1.0  0.39143  0.49093  0.37260  1.0000
  H   H11       1.0  0.60857  0.99093  0.12740  1.0000
  H   H12       1.0  0.89143  0.00907  0.62740  1.0000
  H   H13       1.0  0.85123  0.80927  0.73186  1.0000
  H   H14       1.0  0.64877  0.19073  0.23186  1.0000
  H   H15       1.0  0.35123  0.69073  0.26814  1.0000
  H   H16       1.0  0.14877  0.30927  0.76814  1.0000
  H   H17       1.0  0.58170  0.61442  0.69907  1.0000
  H   H18       1.0  0.91830  0.38558  0.19907  1.0000
  H   H19       1.0  0.08170  0.88558  0.30093  1.0000
  H   H20       1.0  0.41830  0.11442  0.80093  1.0000
  H   H21       1.0  0.59647  0.69935  0.80411  1.0000
  H   H22       1.0  0.90353  0.30065  0.30411  1.0000
  H   H23       1.0  0.09647  0.80065  0.19589  1.0000
  H   H24       1.0  0.40353  0.19935  0.69589  1.0000
  H   H25       1.0  0.50258  0.79343  0.60523  1.0000
  H   H26       1.0  0.99742  0.20657  0.10523  1.0000
  H   H27       1.0  0.00258  0.70657  0.39477  1.0000
  H   H28       1.0  0.49742  0.29343  0.89477  1.0000
  H   H29       1.0  0.27843  0.73161  0.78020  1.0000
  H   H30       1.0  0.22157  0.26839  0.28020  1.0000
  H   H31       1.0  0.77843  0.76839  0.21980  1.0000
  H   H32       1.0  0.72157  0.23161  0.71980  1.0000
  H   H33       1.0  0.27693  0.65920  0.66718  1.0000
  H   H34       1.0  0.22308  0.34080  0.16717  1.0000
  H   H35       1.0  0.77693  0.84080  0.33282  1.0000
  H   H36       1.0  0.72307  0.15920  0.83282  1.0000
  H   H37       1.0  0.20009  0.80578  0.67694  1.0000
  H   H38       1.0  0.29991  0.19422  0.17694  1.0000
  H   H39       1.0  0.70009  0.69422  0.32306  1.0000
  H   H40       1.0  0.79991  0.30578  0.82306  1.0000
  H   H41       1.0  0.64022  0.94580  0.71571  1.0000
  H   H42       1.0  0.85978  0.05420  0.21571  1.0000
  H   H43       1.0  0.14022  0.55420  0.28429  1.0000
  H   H44       1.0  0.35978  0.44580  0.78429  1.0000
  H   H45       1.0  0.47113  0.91524  0.80004  1.0000
  H   H46       1.0  0.02887  0.08476  0.30004  1.0000
  H   H47       1.0  0.97113  0.58477  0.19996  1.0000
  H   H48       1.0  0.52887  0.41524  0.69996  1.0000
  H   H49       1.0  0.41935  0.97383  0.68561  1.0000
  H   H50       1.0  0.08065  0.02617  0.18561  1.0000
  H   H51       1.0  0.91935  0.52617  0.31439  1.0000
  H   H52       1.0  0.58065  0.47383  0.81439  1.0000
  H   H53       1.0  0.90609  0.73125  0.88079  1.0000
  H   H54       1.0  0.59391  0.26875  0.38079  1.0000
  H   H55       1.0  0.40608  0.76875  0.11921  1.0000
  H   H56       1.0  0.09391  0.23124  0.61921  1.0000
  H   H57       1.0  0.93312  0.77584  0.57901  1.0000
  H   H58       1.0  0.56688  0.22416  0.07901  1.0000
  H   H59       1.0  0.43312  0.72416  0.42099  1.0000
  H   H60       1.0  0.06688  0.27584  0.92099  1.0000
  H   H61       1.0  0.73718  0.71624  0.56186  1.0000
  H   H62       1.0  0.76282  0.28376  0.06186  1.0000
  H   H63       1.0  0.23718  0.78376  0.43814  1.0000
  H   H64       1.0  0.26281  0.21624  0.93814  1.0000
  C   C1        1.0  0.30109  0.57383  0.02480  1.0000
  C   C2        1.0  0.19891  0.42617  0.52480  1.0000
  C   C3        1.0  0.80109  0.92617  0.97520  1.0000
  C   C4        1.0  0.69891  0.07383  0.47520  1.0000
  C   C5        1.0  0.14163  0.63624  0.98619  1.0000
  C   C6        1.0  0.35837  0.36376  0.48619  1.0000
  C   C7        1.0  0.64163  0.86376  0.01381  1.0000
  C   C8        1.0  0.85837  0.13624  0.51381  1.0000
  C   C9        1.0  0.02670  0.56676  0.91641  1.0000
  C   C10       1.0  0.47330  0.43324  0.41641  1.0000
  C   C11       1.0  0.52670  0.93324  0.08359  1.0000
  C   C12       1.0  0.97330  0.06675  0.58359  1.0000
  C   C13       1.0  0.89384  0.48946  0.97092  1.0000
  C   C14       1.0  0.60616  0.51054  0.47092  1.0000
  C   C15       1.0  0.39384  0.01054  0.02908  1.0000
  C   C16       1.0  0.10616  0.98946  0.52908  1.0000
  C   C17       1.0  0.90885  0.62814  0.76138  1.0000
  C   C18       1.0  0.59115  0.37186  0.26138  1.0000
  C   C19       1.0  0.40885  0.87186  0.23862  1.0000
  C   C20       1.0  0.09115  0.12814  0.73862  1.0000
  C   C21       1.0  0.80986  0.72286  0.70539  1.0000
  C   C22       1.0  0.69014  0.27714  0.20539  1.0000
  C   C23       1.0  0.30986  0.77714  0.29461  1.0000
  C   C24       1.0  0.19014  0.22286  0.79461  1.0000
  C   C25       1.0  0.61441  0.70219  0.72579  1.0000
  C   C26       1.0  0.88560  0.29781  0.22579  1.0000
  C   C27       1.0  0.11440  0.79781  0.27421  1.0000
  C   C28       1.0  0.38559  0.20219  0.77421  1.0000
  C   C29       1.0  0.48378  0.78951  0.68345  1.0000
  C   C30       1.0  0.01622  0.21049  0.18345  1.0000
  C   C31       1.0  0.98378  0.71050  0.31655  1.0000
  C   C32       1.0  0.51622  0.28951  0.81655  1.0000
  C   C33       1.0  0.29883  0.74372  0.70273  1.0000
  C   C34       1.0  0.20117  0.25628  0.20273  1.0000
  C   C35       1.0  0.79883  0.75628  0.29727  1.0000
  C   C36       1.0  0.70117  0.24372  0.79727  1.0000
  C   C37       1.0  0.50598  0.91272  0.72343  1.0000
  C   C38       1.0  0.99402  0.08728  0.22343  1.0000
  C   C39       1.0  0.00598  0.58728  0.27657  1.0000
  C   C40       1.0  0.49402  0.41272  0.77657  1.0000
  N   N1        1.0  0.93814  0.64912  0.85338  1.0000
  N   N2        1.0  0.56186  0.35088  0.35338  1.0000
  N   N3        1.0  0.43814  0.85088  0.14662  1.0000
  N   N4        1.0  0.06185  0.14912  0.64662  1.0000
  N   N5        1.0  0.84914  0.71069  0.60240  1.0000
  N   N6        1.0  0.65086  0.28931  0.10240  1.0000
  N   N7        1.0  0.34914  0.78931  0.39760  1.0000
  N   N8        1.0  0.15085  0.21069  0.89760  1.0000
  O   O1        1.0  0.40010  0.62942  0.08208  1.0000
  O   O2        1.0  0.09990  0.37058  0.58208  1.0000
  O   O3        1.0  0.90010  0.87058  0.91792  1.0000
  O   O4        1.0  0.59989  0.12942  0.41792  1.0000
  O   O5        1.0  0.33943  0.46934  0.99895  1.0000
  O   O6        1.0  0.16057  0.53066  0.49895  1.0000
  O   O7        1.0  0.83943  0.03066  0.00105  1.0000
  O   O8        1.0  0.66057  0.96934  0.50105  1.0000
  O   O9        1.0  0.91849  0.38128  0.97542  1.0000
  O   O10       1.0  0.58151  0.61872  0.47542  1.0000
  O   O11       1.0  0.41849  0.11872  0.02458  1.0000
  O   O12       1.0  0.08151  0.88128  0.52458  1.0000
  O   O13       1.0  0.76517  0.54568  0.00939  1.0000
  O   O14       1.0  0.73483  0.45432  0.50939  1.0000
  O   O15       1.0  0.26517  0.95431  0.99061  1.0000
  O   O16       1.0  0.23483  0.04568  0.49061  1.0000
  O   O17       1.0  0.95131  0.53274  0.72143  1.0000
  O   O18       1.0  0.54869  0.46726  0.22143  1.0000
  O   O19       1.0  0.45131  0.96725  0.27857  1.0000
  O   O20       1.0  0.04870  0.03274  0.77857  1.0000
