data_image0
_chemical_formula_structural       Zn2H22C24N6O10
_chemical_formula_sum              "Zn2 H22 C24 N6 O10"
_cell_length_a       8.1719
_cell_length_b       8.66721
_cell_length_c       9.93013
_cell_angle_alpha    104.511
_cell_angle_beta     101.395
_cell_angle_gamma    99.9929

_space_group_name_H-M_alt    "P 1"
_space_group_IT_number       1

loop_
  _space_group_symop_operation_xyz
  'x, y, z'

loop_
  _atom_site_type_symbol
  _atom_site_label
  _atom_site_symmetry_multiplicity
  _atom_site_fract_x
  _atom_site_fract_y
  _atom_site_fract_z
  _atom_site_occupancy
  Zn  Zn1       1.0  0.66331  0.98234  0.65077  1.0000
  Zn  Zn2       1.0  0.33669  0.01766  0.34922  1.0000
  H   H1        1.0  0.87396  0.94054  0.41840  1.0000
  H   H2        1.0  0.12603  0.05947  0.58159  1.0000
  H   H3        1.0  0.87697  0.73999  0.19881  1.0000
  H   H4        1.0  0.12302  0.26001  0.80118  1.0000
  H   H5        1.0  0.45279  0.41345  0.26529  1.0000
  H   H6        1.0  0.54722  0.58655  0.73471  1.0000
  H   H7        1.0  0.47185  0.63121  0.48548  1.0000
  H   H8        1.0  0.52815  0.36880  0.51451  1.0000
  H   H9        1.0  0.84947  0.34629  0.79780  1.0000
  H   H10       1.0  0.15052  0.65370  0.20218  1.0000
  H   H11       1.0  0.85550  0.57291  0.00758  1.0000
  H   H12       1.0  0.14449  0.42709  0.99240  1.0000
  H   H13       1.0  0.46143  0.23738  0.09913  1.0000
  H   H14       1.0  0.53860  0.76261  0.90090  1.0000
  H   H15       1.0  0.46985  0.02944  0.88098  1.0000
  H   H16       1.0  0.53016  0.97054  0.11902  1.0000
  H   H17       1.0  0.98725  0.32525  0.48369  1.0000
  H   H18       1.0  0.01274  0.67476  0.51632  1.0000
  H   H19       1.0  0.82142  0.42557  0.43781  1.0000
  H   H20       1.0  0.17858  0.57444  0.56219  1.0000
  H   H21       1.0  0.85669  0.26738  0.30199  1.0000
  H   H22       1.0  0.14330  0.73262  0.69802  1.0000
  C   C1        1.0  0.78276  0.82217  0.38193  1.0000
  C   C2        1.0  0.21723  0.17783  0.61806  1.0000
  C   C3        1.0  0.78335  0.70649  0.25682  1.0000
  C   C4        1.0  0.21664  0.29350  0.74317  1.0000
  C   C5        1.0  0.66505  0.55395  0.20944  1.0000
  C   C6        1.0  0.33495  0.44604  0.79055  1.0000
  C   C7        1.0  0.55008  0.52757  0.29422  1.0000
  C   C8        1.0  0.44992  0.47243  0.70578  1.0000
  C   C9        1.0  0.55902  0.64967  0.41809  1.0000
  C   C10       1.0  0.44097  0.35033  0.58190  1.0000
  C   C11       1.0  0.76806  0.32760  0.86959  1.0000
  C   C12       1.0  0.23194  0.67239  0.13041  1.0000
  C   C13       1.0  0.77080  0.45368  0.98881  1.0000
  C   C14       1.0  0.22919  0.54632  0.01119  1.0000
  C   C15       1.0  0.66299  0.42554  0.07844  1.0000
  C   C16       1.0  0.33702  0.57446  0.92157  1.0000
  C   C17       1.0  0.55257  0.26912  0.03822  1.0000
  C   C18       1.0  0.44745  0.73088  0.96180  1.0000
  C   C19       1.0  0.55661  0.15049  0.91628  1.0000
  C   C20       1.0  0.44341  0.84950  0.08373  1.0000
  C   C21       1.0  0.72979  0.18677  0.45155  1.0000
  C   C22       1.0  0.27021  0.81324  0.54846  1.0000
  C   C23       1.0  0.85838  0.30747  0.41611  1.0000
  C   C24       1.0  0.14162  0.69254  0.58390  1.0000
  N   N1        1.0  0.67256  0.79591  0.46262  1.0000
  N   N2        1.0  0.32743  0.20410  0.53738  1.0000
  N   N3        1.0  0.66373  0.17728  0.83326  1.0000
  N   N4        1.0  0.33627  0.82270  0.16673  1.0000
  N   N5        1.0  0.90152  0.86884  0.81312  1.0000
  N   N6        1.0  0.09848  0.13117  0.18688  1.0000
  O   O1        1.0  0.96938  0.97662  0.76213  1.0000
  O   O2        1.0  0.03062  0.02338  0.23787  1.0000
  O   O3        1.0  0.73426  0.83115  0.78407  1.0000
  O   O4        1.0  0.26574  0.16885  0.21593  1.0000
  O   O5        1.0  0.98623  0.79860  0.88610  1.0000
  O   O6        1.0  0.01376  0.20142  0.11392  1.0000
  O   O7        1.0  0.77320  0.15930  0.57225  1.0000
  O   O8        1.0  0.22679  0.84071  0.42775  1.0000
  O   O9        1.0  0.58576  0.12380  0.35969  1.0000
  O   O10       1.0  0.41424  0.87622  0.64032  1.0000
