data_image0
_chemical_formula_structural       Cu2H28C32O12
_chemical_formula_sum              "Cu2 H28 C32 O12"
_cell_length_a       4.86163
_cell_length_b       9.5115
_cell_length_c       15.4953
_cell_angle_alpha    102.885
_cell_angle_beta     90
_cell_angle_gamma    90

_space_group_name_H-M_alt    "P 1"
_space_group_IT_number       1

loop_
  _space_group_symop_operation_xyz
  'x, y, z'

loop_
  _atom_site_type_symbol
  _atom_site_label
  _atom_site_symmetry_multiplicity
  _atom_site_fract_x
  _atom_site_fract_y
  _atom_site_fract_z
  _atom_site_occupancy
  Cu  Cu1       1.0  0.00000  0.50000  0.50000  1.0000
  Cu  Cu2       1.0  0.50000  1.00000  0.50000  1.0000
  H   H1        1.0  0.74626  0.83896  0.62830  1.0000
  H   H2        1.0  0.24625  0.66104  0.37170  1.0000
  H   H3        1.0  0.25375  0.16104  0.37170  1.0000
  H   H4        1.0  0.75374  0.33896  0.62830  1.0000
  H   H5        1.0  0.63262  0.93601  0.77437  1.0000
  H   H6        1.0  0.13262  0.56399  0.22563  1.0000
  H   H7        1.0  0.36738  0.06399  0.22563  1.0000
  H   H8        1.0  0.86738  0.43601  0.77437  1.0000
  H   H9        1.0  0.70710  0.96105  0.93564  1.0000
  H   H10       1.0  0.20710  0.53895  0.06435  1.0000
  H   H11       1.0  0.29290  0.03895  0.06436  1.0000
  H   H12       1.0  0.79290  0.46105  0.93564  1.0000
  H   H13       1.0  0.05094  0.80376  0.98865  1.0000
  H   H14       1.0  0.55095  0.69625  0.01135  1.0000
  H   H15       1.0  0.94906  0.19624  0.01135  1.0000
  H   H16       1.0  0.44905  0.30375  0.98865  1.0000
  H   H17       1.0  0.31446  0.62141  0.87889  1.0000
  H   H18       1.0  0.81446  0.87859  0.12111  1.0000
  H   H19       1.0  0.68554  0.37859  0.12111  1.0000
  H   H20       1.0  0.18554  0.12141  0.87889  1.0000
  H   H21       1.0  0.23826  0.59654  0.71878  1.0000
  H   H22       1.0  0.73826  0.90346  0.28122  1.0000
  H   H23       1.0  0.76175  0.40346  0.28122  1.0000
  H   H24       1.0  0.26174  0.09654  0.71878  1.0000
  H   H25       1.0  0.57561  0.63044  0.57364  1.0000
  H   H26       1.0  0.07560  0.86956  0.42636  1.0000
  H   H27       1.0  0.42439  0.36956  0.42636  1.0000
  H   H28       1.0  0.92439  0.13044  0.57364  1.0000
  C   C1        1.0  0.15868  0.77071  0.59409  1.0000
  C   C2        1.0  0.65869  0.72929  0.40591  1.0000
  C   C3        1.0  0.84132  0.22929  0.40591  1.0000
  C   C4        1.0  0.34131  0.27072  0.59409  1.0000
  C   C5        1.0  0.88498  0.75315  0.63844  1.0000
  C   C6        1.0  0.38498  0.74685  0.36156  1.0000
  C   C7        1.0  0.11502  0.24685  0.36156  1.0000
  C   C8        1.0  0.61501  0.25315  0.63844  1.0000
  C   C9        1.0  0.92981  0.76513  0.73634  1.0000
  C   C10       1.0  0.42981  0.73487  0.26366  1.0000
  C   C11       1.0  0.07020  0.23487  0.26366  1.0000
  C   C12       1.0  0.57019  0.26512  0.73634  1.0000
  C   C13       1.0  0.78158  0.86730  0.79768  1.0000
  C   C14       1.0  0.28158  0.63270  0.20231  1.0000
  C   C15       1.0  0.21842  0.13270  0.20231  1.0000
  C   C16       1.0  0.71842  0.36730  0.79769  1.0000
  C   C17       1.0  0.82454  0.88130  0.88835  1.0000
  C   C18       1.0  0.32453  0.61871  0.11165  1.0000
  C   C19       1.0  0.17547  0.11870  0.11165  1.0000
  C   C20       1.0  0.67547  0.38129  0.88835  1.0000
  C   C21       1.0  0.01590  0.79309  0.91797  1.0000
  C   C22       1.0  0.51590  0.70692  0.08203  1.0000
  C   C23       1.0  0.98410  0.20692  0.08203  1.0000
  C   C24       1.0  0.48410  0.29308  0.91797  1.0000
  C   C25       1.0  0.16425  0.69087  0.85668  1.0000
  C   C26       1.0  0.66425  0.80913  0.14332  1.0000
  C   C27       1.0  0.83575  0.30913  0.14332  1.0000
  C   C28       1.0  0.33575  0.19086  0.85668  1.0000
  C   C29       1.0  0.12268  0.67706  0.76616  1.0000
  C   C30       1.0  0.62268  0.82294  0.23384  1.0000
  C   C31       1.0  0.87732  0.32294  0.23384  1.0000
  C   C32       1.0  0.37732  0.17706  0.76616  1.0000
  O   O1        1.0  0.26099  0.65641  0.54031  1.0000
  O   O2        1.0  0.76098  0.84360  0.45969  1.0000
  O   O3        1.0  0.73902  0.34360  0.45969  1.0000
  O   O4        1.0  0.23901  0.15640  0.54031  1.0000
  O   O5        1.0  0.76363  0.61398  0.59690  1.0000
  O   O6        1.0  0.26363  0.88602  0.40310  1.0000
  O   O7        1.0  0.23637  0.38602  0.40310  1.0000
  O   O8        1.0  0.73637  0.11398  0.59690  1.0000
  O   O9        1.0  0.28051  0.88813  0.61238  1.0000
  O   O10       1.0  0.78050  0.61188  0.38762  1.0000
  O   O11       1.0  0.71949  0.11187  0.38762  1.0000
  O   O12       1.0  0.21950  0.38812  0.61238  1.0000
