data_image0
_chemical_formula_structural       Cu2H28C32O12
_chemical_formula_sum              "Cu2 H28 C32 O12"
_cell_length_a       5.73143
_cell_length_b       9.19418
_cell_length_c       15.2919
_cell_angle_alpha    104.688
_cell_angle_beta     100.843
_cell_angle_gamma    89.989

_space_group_name_H-M_alt    "P 1"
_space_group_IT_number       1

loop_
  _space_group_symop_operation_xyz
  'x, y, z'

loop_
  _atom_site_type_symbol
  _atom_site_label
  _atom_site_symmetry_multiplicity
  _atom_site_fract_x
  _atom_site_fract_y
  _atom_site_fract_z
  _atom_site_occupancy
  Cu  Cu1       1.0  0.63113  0.17658  0.48333  1.0000
  Cu  Cu2       1.0  0.14706  0.82292  0.51665  1.0000
  H   H1        1.0  0.24469  0.20112  0.24621  1.0000
  H   H2        1.0  0.99742  0.79903  0.75355  1.0000
  H   H3        1.0  0.75123  0.56462  0.27184  1.0000
  H   H4        1.0  0.47841  0.43551  0.72855  1.0000
  H   H5        1.0  0.45903  0.93947  0.79706  1.0000
  H   H6        1.0  0.66102  0.06036  0.20219  1.0000
  H   H7        1.0  0.39083  0.30907  0.00332  1.0000
  H   H8        1.0  0.38715  0.69199  0.99681  1.0000
  H   H9        1.0  0.59298  0.99867  0.66500  1.0000
  H   H10       1.0  0.92592  0.00087  0.33460  1.0000
  H   H11       1.0  0.07081  0.35374  0.85095  1.0000
  H   H12       1.0  0.21898  0.64587  0.14930  1.0000
  H   H13       1.0  0.68295  0.51435  0.10198  1.0000
  H   H14       1.0  0.57997  0.48627  0.89846  1.0000
  H   H15       1.0  0.62921  0.08804  0.95749  1.0000
  H   H16       1.0  0.67247  0.91207  0.04187  1.0000
  H   H17       1.0  0.17356  0.15269  0.07697  1.0000
  H   H18       1.0  0.09613  0.84821  0.92284  1.0000
  H   H19       1.0  0.93281  0.29569  0.98421  1.0000
  H   H20       1.0  0.94912  0.70423  0.01569  1.0000
  H   H21       1.0  0.60671  0.53552  0.40678  1.0000
  H   H22       1.0  0.19861  0.46442  0.59338  1.0000
  H   H23       1.0  0.07405  0.29623  0.69257  1.0000
  H   H24       1.0  0.38029  0.70353  0.30758  1.0000
  H   H25       1.0  0.90161  0.36965  0.40075  1.0000
  H   H26       1.0  0.49972  0.63007  0.59938  1.0000
  H   H27       1.0  0.76293  0.39688  0.62444  1.0000
  H   H28       1.0  0.13825  0.60295  0.37577  1.0000
  C   C1        1.0  0.55634  0.41483  0.37478  1.0000
  C   C2        1.0  0.18044  0.58513  0.62533  1.0000
  C   C3        1.0  0.33803  0.38115  0.41191  1.0000
  C   C4        1.0  0.92483  0.61887  0.58817  1.0000
  C   C5        1.0  0.50237  0.38686  0.27070  1.0000
  C   C6        1.0  0.23063  0.61326  0.72939  1.0000
  C   C7        1.0  0.98444  0.07912  0.60047  1.0000
  C   C8        1.0  0.38314  0.92071  0.39977  1.0000
  C   C9        1.0  0.91656  0.21751  0.66852  1.0000
  C   C10       1.0  0.24694  0.78234  0.33162  1.0000
  C   C11       1.0  0.34074  0.27064  0.21508  1.0000
  C   C12       1.0  0.12479  0.72970  0.78484  1.0000
  C   C13       1.0  0.62448  0.47410  0.22911  1.0000
  C   C14       1.0  0.39433  0.52613  0.77114  1.0000
  C   C15       1.0  0.84175  0.17942  0.74977  1.0000
  C   C16       1.0  0.09059  0.82021  0.25023  1.0000
  C   C17       1.0  0.59414  0.02953  0.80939  1.0000
  C   C18       1.0  0.78363  0.97013  0.19009  1.0000
  C   C19       1.0  0.42270  0.33064  0.07818  1.0000
  C   C20       1.0  0.34373  0.67011  0.92193  1.0000
  C   C21       1.0  0.66995  0.06281  0.73495  1.0000
  C   C22       1.0  0.93331  0.93675  0.26472  1.0000
  C   C23       1.0  0.93703  0.26284  0.83962  1.0000
  C   C24       1.0  0.09646  0.73677  0.16044  1.0000
  C   C25       1.0  0.58580  0.44557  0.13317  1.0000
  C   C26       1.0  0.45161  0.55493  0.86709  1.0000
  C   C27       1.0  0.68957  0.11301  0.89912  1.0000
  C   C28       1.0  0.79037  0.88686  0.10042  1.0000
  C   C29       1.0  0.30082  0.24295  0.11935  1.0000
  C   C30       1.0  0.18077  0.75774  0.88058  1.0000
  C   C31       1.0  0.86019  0.22983  0.91424  1.0000
  C   C32       1.0  0.94584  0.76993  0.08561  1.0000
  O   O1        1.0  0.74408  0.32563  0.40432  1.0000
  O   O2        1.0  0.33860  0.67414  0.59577  1.0000
  O   O3        1.0  0.34771  0.29177  0.46343  1.0000
  O   O4        1.0  0.88297  0.70829  0.53665  1.0000
  O   O5        1.0  0.14811  0.44590  0.38936  1.0000
  O   O6        1.0  0.75754  0.55409  0.61067  1.0000
  O   O7        1.0  0.89576  0.05760  0.51459  1.0000
  O   O8        1.0  0.38069  0.94206  0.48562  1.0000
  O   O9        1.0  0.12606  0.98968  0.63033  1.0000
  O   O10       1.0  0.49487  0.01009  0.36990  1.0000
  O   O11       1.0  0.72501  0.28546  0.61910  1.0000
  O   O12       1.0  0.10488  0.71429  0.38097  1.0000
