data_image0
_chemical_formula_structural       Zn2H42C58N10O8
_chemical_formula_sum              "Zn2 H42 C58 N10 O8"
_cell_length_a       7.62504
_cell_length_b       9.91328
_cell_length_c       16.2223
_cell_angle_alpha    85.1388
_cell_angle_beta     80.1796
_cell_angle_gamma    81.2704

_space_group_name_H-M_alt    "P 1"
_space_group_IT_number       1

loop_
  _space_group_symop_operation_xyz
  'x, y, z'

loop_
  _atom_site_type_symbol
  _atom_site_label
  _atom_site_symmetry_multiplicity
  _atom_site_fract_x
  _atom_site_fract_y
  _atom_site_fract_z
  _atom_site_occupancy
  Zn  Zn1       1.0  0.63945  0.44361  0.24575  1.0000
  Zn  Zn2       1.0  0.36055  0.55639  0.75425  1.0000
  H   H1        1.0  0.95862  0.64396  0.46664  1.0000
  H   H2        1.0  0.04138  0.35604  0.53336  1.0000
  H   H3        1.0  0.25085  0.63991  0.51710  1.0000
  H   H4        1.0  0.74915  0.36010  0.48289  1.0000
  H   H5        1.0  0.53917  0.56269  0.41837  1.0000
  H   H6        1.0  0.46083  0.43731  0.58163  1.0000
  H   H7        1.0  0.60338  0.16586  0.15939  1.0000
  H   H8        1.0  0.39662  0.83414  0.84061  1.0000
  H   H9        1.0  0.93982  0.23737  0.32663  1.0000
  H   H10       1.0  0.06018  0.76263  0.67337  1.0000
  H   H11       1.0  0.79386  0.91416  0.20937  1.0000
  H   H12       1.0  0.20614  0.08584  0.79063  1.0000
  H   H13       1.0  0.15924  0.94658  0.28916  1.0000
  H   H14       1.0  0.84076  0.05342  0.71084  1.0000
  H   H15       1.0  0.98447  0.84635  0.31643  1.0000
  H   H16       1.0  0.01554  0.15365  0.68358  1.0000
  H   H17       1.0  0.28360  0.08947  0.31298  1.0000
  H   H18       1.0  0.71640  0.91053  0.68702  1.0000
  H   H19       1.0  0.50874  0.20230  0.35875  1.0000
  H   H20       1.0  0.49128  0.79770  0.64125  1.0000
  H   H21       1.0  0.50696  0.22430  0.51165  1.0000
  H   H22       1.0  0.49305  0.77570  0.48836  1.0000
  H   H23       1.0  0.26841  0.14574  0.61627  1.0000
  H   H24       1.0  0.73160  0.85425  0.38373  1.0000
  H   H25       1.0  0.76651  0.31491  0.93110  1.0000
  H   H26       1.0  0.23349  0.68509  0.06889  1.0000
  H   H27       1.0  0.76101  0.82635  0.88325  1.0000
  H   H28       1.0  0.23897  0.17366  0.11675  1.0000
  H   H29       1.0  0.56367  0.00707  0.81921  1.0000
  H   H30       1.0  0.43632  0.99294  0.18079  1.0000
  H   H31       1.0  0.56814  0.25209  0.84229  1.0000
  H   H32       1.0  0.43186  0.74791  0.15771  1.0000
  H   H33       1.0  0.97976  0.70191  0.90441  1.0000
  H   H34       1.0  0.02024  0.29810  0.09559  1.0000
  H   H35       1.0  0.13145  0.65259  0.97474  1.0000
  H   H36       1.0  0.86854  0.34741  0.02526  1.0000
  H   H37       1.0  0.94545  0.63778  0.14564  1.0000
  H   H38       1.0  0.05455  0.36221  0.85435  1.0000
  H   H39       1.0  0.50765  0.49177  0.07423  1.0000
  H   H40       1.0  0.49235  0.50823  0.92577  1.0000
  H   H41       1.0  0.70054  0.61710  0.93226  1.0000
  H   H42       1.0  0.29945  0.38290  0.06774  1.0000
  C   C1        1.0  0.90399  0.56871  0.31728  1.0000
  C   C2        1.0  0.09601  0.43129  0.68271  1.0000
  C   C3        1.0  0.25925  0.42790  0.22391  1.0000
  C   C4        1.0  0.74075  0.57210  0.77609  1.0000
  C   C5        1.0  0.24633  0.50059  0.30390  1.0000
  C   C6        1.0  0.75367  0.49941  0.69610  1.0000
  C   C7        1.0  0.08100  0.55309  0.35055  1.0000
  C   C8        1.0  0.91900  0.44690  0.64945  1.0000
  C   C9        1.0  0.08436  0.60420  0.42813  1.0000
  C   C10       1.0  0.91563  0.39580  0.57186  1.0000
  C   C11       1.0  0.24766  0.60525  0.45545  1.0000
  C   C12       1.0  0.75234  0.39475  0.54455  1.0000
  C   C13       1.0  0.40624  0.55984  0.40285  1.0000
  C   C14       1.0  0.59376  0.44016  0.59716  1.0000
  C   C15       1.0  0.70198  0.14186  0.20106  1.0000
  C   C16       1.0  0.29802  0.85813  0.79894  1.0000
  C   C17       1.0  0.87398  0.18413  0.28782  1.0000
  C   C18       1.0  0.12602  0.81587  0.71218  1.0000
  C   C19       1.0  0.79373  0.01844  0.22488  1.0000
  C   C20       1.0  0.20628  0.98155  0.77513  1.0000
  C   C21       1.0  0.02203  0.94709  0.32307  1.0000
  C   C22       1.0  0.97797  0.05291  0.67693  1.0000
  C   C23       1.0  0.01010  0.97617  0.41370  1.0000
  C   C24       1.0  0.98989  0.02383  0.58630  1.0000
  C   C25       1.0  0.14039  0.04444  0.43873  1.0000
  C   C26       1.0  0.85961  0.95557  0.56127  1.0000
  C   C27       1.0  0.27895  0.09778  0.37986  1.0000
  C   C28       1.0  0.72105  0.90222  0.62015  1.0000
  C   C29       1.0  0.40574  0.16235  0.40529  1.0000
  C   C30       1.0  0.59428  0.83764  0.59471  1.0000
  C   C31       1.0  0.40264  0.17684  0.49170  1.0000
  C   C32       1.0  0.59737  0.82316  0.50830  1.0000
  C   C33       1.0  0.26960  0.13075  0.55048  1.0000
  C   C34       1.0  0.73040  0.86924  0.44952  1.0000
  C   C35       1.0  0.13205  0.06593  0.52664  1.0000
  C   C36       1.0  0.86795  0.93407  0.47336  1.0000
  C   C37       1.0  0.76772  0.20713  0.92229  1.0000
  C   C38       1.0  0.23227  0.79287  0.07771  1.0000
  C   C39       1.0  0.88443  0.10560  0.96265  1.0000
  C   C40       1.0  0.11557  0.89440  0.03735  1.0000
  C   C41       1.0  0.88323  0.96338  0.94840  1.0000
  C   C42       1.0  0.11676  0.03662  0.05160  1.0000
  C   C43       1.0  0.76413  0.93208  0.89568  1.0000
  C   C44       1.0  0.23586  0.06792  0.10432  1.0000
  C   C45       1.0  0.65359  0.03340  0.85898  1.0000
  C   C46       1.0  0.34641  0.96661  0.14102  1.0000
  C   C47       1.0  0.65586  0.17259  0.87204  1.0000
  C   C48       1.0  0.34414  0.82742  0.12796  1.0000
  C   C49       1.0  0.99945  0.86028  0.98552  1.0000
  C   C50       1.0  0.00055  0.13972  0.01448  1.0000
  C   C51       1.0  0.00133  0.71297  0.96841  1.0000
  C   C52       1.0  0.99867  0.28703  0.03159  1.0000
  C   C53       1.0  0.85137  0.61531  0.10756  1.0000
  C   C54       1.0  0.14863  0.38469  0.89244  1.0000
  C   C55       1.0  0.62545  0.54221  0.06706  1.0000
  C   C56       1.0  0.37454  0.45779  0.93294  1.0000
  C   C57       1.0  0.71837  0.60273  0.99754  1.0000
  C   C58       1.0  0.28163  0.39727  0.00245  1.0000
  N   N1        1.0  0.40433  0.50841  0.32913  1.0000
  N   N2        1.0  0.59567  0.49159  0.67087  1.0000
  N   N3        1.0  0.75265  0.24411  0.24115  1.0000
  N   N4        1.0  0.24735  0.75589  0.75885  1.0000
  N   N5        1.0  0.90118  0.04742  0.27982  1.0000
  N   N6        1.0  0.09882  0.95258  0.72019  1.0000
  N   N7        1.0  0.70907  0.55056  0.13550  1.0000
  N   N8        1.0  0.29093  0.44944  0.86450  1.0000
  N   N9        1.0  0.86112  0.64737  0.02414  1.0000
  N   N10       1.0  0.13888  0.35262  0.97586  1.0000
  O   O1        1.0  0.86112  0.68251  0.28062  1.0000
  O   O2        1.0  0.13890  0.31749  0.71938  1.0000
  O   O3        1.0  0.80862  0.47081  0.33323  1.0000
  O   O4        1.0  0.19137  0.52919  0.66678  1.0000
  O   O5        1.0  0.11632  0.41993  0.19735  1.0000
  O   O6        1.0  0.88368  0.58006  0.80265  1.0000
  O   O7        1.0  0.41783  0.37807  0.19072  1.0000
  O   O8        1.0  0.58217  0.62193  0.80928  1.0000
