data_image0
_chemical_formula_structural       Tb2H12C8O12F2
_chemical_formula_sum              "Tb2 H12 C8 O12 F2"
_cell_length_a       6.73932
_cell_length_b       6.7393
_cell_length_c       8.87073
_cell_angle_alpha    108.863
_cell_angle_beta     108.863
_cell_angle_gamma    93.8705

_space_group_name_H-M_alt    "P 1"
_space_group_IT_number       1

loop_
  _space_group_symop_operation_xyz
  'x, y, z'

loop_
  _atom_site_type_symbol
  _atom_site_label
  _atom_site_symmetry_multiplicity
  _atom_site_fract_x
  _atom_site_fract_y
  _atom_site_fract_z
  _atom_site_occupancy
  Tb  Tb1       1.0  0.90193  0.90194  0.26345  1.0000
  Tb  Tb2       1.0  0.09806  0.09806  0.73655  1.0000
  H   H1        1.0  0.44848  0.76746  0.44589  1.0000
  H   H2        1.0  0.23254  0.55153  0.55411  1.0000
  H   H3        1.0  0.55152  0.23253  0.55410  1.0000
  H   H4        1.0  0.76747  0.44848  0.44589  1.0000
  H   H5        1.0  0.33944  0.55666  0.24049  1.0000
  H   H6        1.0  0.44334  0.66055  0.75952  1.0000
  H   H7        1.0  0.66056  0.44333  0.75952  1.0000
  H   H8        1.0  0.55667  0.33944  0.24048  1.0000
  H   H9        1.0  0.75218  0.90733  0.91195  1.0000
  H   H10       1.0  0.09268  0.24783  0.08803  1.0000
  H   H11       1.0  0.24784  0.09265  0.08805  1.0000
  H   H12       1.0  0.90733  0.75216  0.91196  1.0000
  C   C1        1.0  0.40574  0.86516  0.23075  1.0000
  C   C2        1.0  0.13484  0.59426  0.76926  1.0000
  C   C3        1.0  0.59426  0.13483  0.76925  1.0000
  C   C4        1.0  0.86517  0.40574  0.23075  1.0000
  C   C5        1.0  0.45840  0.70539  0.31822  1.0000
  C   C6        1.0  0.29462  0.54160  0.68178  1.0000
  C   C7        1.0  0.54159  0.29461  0.68178  1.0000
  C   C8        1.0  0.70538  0.45841  0.31822  1.0000
  O   O1        1.0  0.53629  0.92455  0.17123  1.0000
  O   O2        1.0  0.07547  0.46371  0.82877  1.0000
  O   O3        1.0  0.46370  0.07544  0.82876  1.0000
  O   O4        1.0  0.92455  0.53630  0.17124  1.0000
  O   O5        1.0  0.23136  0.93232  0.21944  1.0000
  O   O6        1.0  0.06769  0.76862  0.78056  1.0000
  O   O7        1.0  0.76864  0.06768  0.78057  1.0000
  O   O8        1.0  0.93231  0.23138  0.21943  1.0000
  O   O9        1.0  0.66867  0.66868  0.32922  1.0000
  O   O10       1.0  0.33133  0.33132  0.67078  1.0000
  O   O11       1.0  0.79592  0.79591  0.95969  1.0000
  O   O12       1.0  0.20406  0.20411  0.04031  1.0000
  F   F1        1.0  0.12985  0.87015  0.50000  1.0000
  F   F2        1.0  0.87014  0.12986  0.50000  1.0000
