data_image0
_chemical_formula_structural       Dy2H12C8O12F2
_chemical_formula_sum              "Dy2 H12 C8 O12 F2"
_cell_length_a       6.71238
_cell_length_b       6.71236
_cell_length_c       8.83859
_cell_angle_alpha    108.694
_cell_angle_beta     108.693
_cell_angle_gamma    93.9592

_space_group_name_H-M_alt    "P 1"
_space_group_IT_number       1

loop_
  _space_group_symop_operation_xyz
  'x, y, z'

loop_
  _atom_site_type_symbol
  _atom_site_label
  _atom_site_symmetry_multiplicity
  _atom_site_fract_x
  _atom_site_fract_y
  _atom_site_fract_z
  _atom_site_occupancy
  Dy  Dy1       1.0  0.90257  0.90258  0.26439  1.0000
  Dy  Dy2       1.0  0.09742  0.09742  0.73561  1.0000
  H   H1        1.0  0.44735  0.76730  0.44725  1.0000
  H   H2        1.0  0.23270  0.55265  0.55275  1.0000
  H   H3        1.0  0.55264  0.23269  0.55274  1.0000
  H   H4        1.0  0.76730  0.44735  0.44725  1.0000
  H   H5        1.0  0.33945  0.55699  0.24165  1.0000
  H   H6        1.0  0.44302  0.66055  0.75835  1.0000
  H   H7        1.0  0.66055  0.44301  0.75835  1.0000
  H   H8        1.0  0.55698  0.33945  0.24166  1.0000
  H   H9        1.0  0.75098  0.90667  0.91345  1.0000
  H   H10       1.0  0.09333  0.24901  0.08656  1.0000
  H   H11       1.0  0.24903  0.09333  0.08654  1.0000
  H   H12       1.0  0.90667  0.75098  0.91345  1.0000
  C   C1        1.0  0.40614  0.86652  0.23195  1.0000
  C   C2        1.0  0.13349  0.59386  0.76806  1.0000
  C   C3        1.0  0.59385  0.13348  0.76805  1.0000
  C   C4        1.0  0.86651  0.40615  0.23194  1.0000
  C   C5        1.0  0.45845  0.70601  0.31960  1.0000
  C   C6        1.0  0.29400  0.54155  0.68040  1.0000
  C   C7        1.0  0.54155  0.29399  0.68040  1.0000
  C   C8        1.0  0.70600  0.45845  0.31960  1.0000
  O   O1        1.0  0.53804  0.92714  0.17307  1.0000
  O   O2        1.0  0.07288  0.46195  0.82695  1.0000
  O   O3        1.0  0.46194  0.07286  0.82693  1.0000
  O   O4        1.0  0.92712  0.53805  0.17306  1.0000
  O   O5        1.0  0.23082  0.93336  0.21974  1.0000
  O   O6        1.0  0.06665  0.76918  0.78026  1.0000
  O   O7        1.0  0.76917  0.06664  0.78026  1.0000
  O   O8        1.0  0.93336  0.23083  0.21974  1.0000
  O   O9        1.0  0.66959  0.66959  0.33088  1.0000
  O   O10       1.0  0.33041  0.33041  0.66912  1.0000
  O   O11       1.0  0.79508  0.79508  0.96168  1.0000
  O   O12       1.0  0.20492  0.20492  0.03832  1.0000
  F   F1        1.0  0.12955  0.87045  0.50000  1.0000
  F   F2        1.0  0.87044  0.12956  0.50000  1.0000
