data_image0
_chemical_formula_structural       Dy4H36C16O32
_chemical_formula_sum              "Dy4 H36 C16 O32"
_cell_length_a       6.73818
_cell_length_b       10.6392
_cell_length_c       11.1425
_cell_angle_alpha    84.2822
_cell_angle_beta     88.3451
_cell_angle_gamma    90.008

_space_group_name_H-M_alt    "P 1"
_space_group_IT_number       1

loop_
  _space_group_symop_operation_xyz
  'x, y, z'

loop_
  _atom_site_type_symbol
  _atom_site_label
  _atom_site_symmetry_multiplicity
  _atom_site_fract_x
  _atom_site_fract_y
  _atom_site_fract_z
  _atom_site_occupancy
  Dy  Dy1       1.0  0.48254  0.84487  0.59422  1.0000
  Dy  Dy2       1.0  0.51746  0.15513  0.40578  1.0000
  Dy  Dy3       1.0  0.00254  0.84958  0.10154  1.0000
  Dy  Dy4       1.0  0.99746  0.15042  0.89846  1.0000
  H   H1        1.0  0.01361  0.71946  0.45099  1.0000
  H   H2        1.0  0.98639  0.28054  0.54901  1.0000
  H   H3        1.0  0.98742  0.61279  0.58513  1.0000
  H   H4        1.0  0.01258  0.38721  0.41487  1.0000
  H   H5        1.0  0.71129  0.51918  0.44276  1.0000
  H   H6        1.0  0.28871  0.48082  0.55724  1.0000
  H   H7        1.0  0.76028  0.65511  0.33978  1.0000
  H   H8        1.0  0.23971  0.34489  0.66022  1.0000
  H   H9        1.0  0.33511  0.84065  0.85312  1.0000
  H   H10       1.0  0.66490  0.15935  0.14688  1.0000
  H   H11       1.0  0.40352  0.98118  0.81909  1.0000
  H   H12       1.0  0.59648  0.01882  0.18092  1.0000
  H   H13       1.0  0.52671  0.57186  0.70076  1.0000
  H   H14       1.0  0.47329  0.42814  0.29925  1.0000
  H   H15       1.0  0.43870  0.10003  0.65963  1.0000
  H   H16       1.0  0.56130  0.89997  0.34037  1.0000
  H   H17       1.0  0.33575  0.62825  0.76375  1.0000
  H   H18       1.0  0.66424  0.37175  0.23625  1.0000
  H   H19       1.0  0.73465  0.65601  0.84999  1.0000
  H   H20       1.0  0.26535  0.34399  0.15001  1.0000
  H   H21       1.0  0.80293  0.52328  0.95069  1.0000
  H   H22       1.0  0.19707  0.47673  0.04931  1.0000
  H   H23       1.0  0.52283  0.59982  0.10971  1.0000
  H   H24       1.0  0.47718  0.40018  0.89029  1.0000
  H   H25       1.0  0.47696  0.70096  0.97530  1.0000
  H   H26       1.0  0.52304  0.29904  0.02470  1.0000
  H   H27       1.0  0.85823  0.93610  0.33817  1.0000
  H   H28       1.0  0.14178  0.06390  0.66183  1.0000
  H   H29       1.0  0.97812  0.56387  0.20059  1.0000
  H   H30       1.0  0.02188  0.43613  0.79941  1.0000
  H   H31       1.0  0.26878  0.06064  0.09045  1.0000
  H   H32       1.0  0.73122  0.93936  0.90955  1.0000
  H   H33       1.0  0.16360  0.62357  0.26010  1.0000
  H   H34       1.0  0.83640  0.37642  0.73990  1.0000
  H   H35       1.0  0.07289  0.99149  0.31206  1.0000
  H   H36       1.0  0.92711  0.00851  0.68794  1.0000
  C   C1        1.0  0.96646  0.80919  0.61180  1.0000
  C   C2        1.0  0.03355  0.19081  0.38820  1.0000
  C   C3        1.0  0.93038  0.70050  0.53730  1.0000
  C   C4        1.0  0.06963  0.29950  0.46270  1.0000
  C   C5        1.0  0.67438  0.61970  0.42184  1.0000
  C   C6        1.0  0.32562  0.38030  0.57815  1.0000
  C   C7        1.0  0.45416  0.63515  0.39905  1.0000
  C   C8        1.0  0.54583  0.36485  0.60095  1.0000
  C   C9        1.0  0.04266  0.65137  0.89330  1.0000
  C   C10       1.0  0.95734  0.34863  0.10670  1.0000
  C   C11       1.0  0.82625  0.62555  0.92820  1.0000
  C   C12       1.0  0.17375  0.37445  0.07180  1.0000
  C   C13       1.0  0.56419  0.69002  0.05738  1.0000
  C   C14       1.0  0.43581  0.30999  0.94262  1.0000
  C   C15       1.0  0.51597  0.79631  0.13448  1.0000
  C   C16       1.0  0.48403  0.20370  0.86552  1.0000
  O   O1        1.0  0.81597  0.87103  0.64713  1.0000
  O   O2        1.0  0.18404  0.12897  0.35287  1.0000
  O   O3        1.0  0.14259  0.83475  0.63520  1.0000
  O   O4        1.0  0.85741  0.16525  0.36480  1.0000
  O   O5        1.0  0.72240  0.69059  0.51923  1.0000
  O   O6        1.0  0.27760  0.30941  0.48077  1.0000
  O   O7        1.0  0.35875  0.71487  0.45475  1.0000
  O   O8        1.0  0.64125  0.28513  0.54525  1.0000
  O   O9        1.0  0.37916  0.56796  0.32352  1.0000
  O   O10       1.0  0.62084  0.43204  0.67648  1.0000
  O   O11       1.0  0.41870  0.05510  0.58873  1.0000
  O   O12       1.0  0.58130  0.94490  0.41127  1.0000
  O   O13       1.0  0.46804  0.65275  0.72412  1.0000
  O   O14       1.0  0.53196  0.34725  0.27588  1.0000
  O   O15       1.0  0.44401  0.89250  0.81263  1.0000
  O   O16       1.0  0.55600  0.10750  0.18737  1.0000
  O   O17       1.0  0.66298  0.85234  0.17758  1.0000
  O   O18       1.0  0.33702  0.14766  0.82242  1.0000
  O   O19       1.0  0.33824  0.82315  0.15485  1.0000
  O   O20       1.0  0.66177  0.17685  0.84516  1.0000
  O   O21       1.0  0.77204  0.69327  0.02790  1.0000
  O   O22       1.0  0.22796  0.30673  0.97210  1.0000
  O   O23       1.0  0.13201  0.74080  0.93764  1.0000
  O   O24       1.0  0.86800  0.25920  0.06236  1.0000
  O   O25       1.0  0.12046  0.58111  0.81945  1.0000
  O   O26       1.0  0.87954  0.41889  0.18055  1.0000
  O   O27       1.0  0.15234  0.03546  0.04892  1.0000
  O   O28       1.0  0.84766  0.96453  0.95108  1.0000
  O   O29       1.0  0.03924  0.64571  0.21588  1.0000
  O   O30       1.0  0.96077  0.35429  0.78411  1.0000
  O   O31       1.0  0.98705  0.91818  0.29876  1.0000
  O   O32       1.0  0.01295  0.08182  0.70124  1.0000
