data_image0
_chemical_formula_structural       Dy4H40C16O32F4
_chemical_formula_sum              "Dy4 H40 C16 O32 F4"
_cell_length_a       7.03021
_cell_length_b       7.34974
_cell_length_c       17.2347
_cell_angle_alpha    100.926
_cell_angle_beta     90.0003
_cell_angle_gamma    90

_space_group_name_H-M_alt    "P 1"
_space_group_IT_number       1

loop_
  _space_group_symop_operation_xyz
  'x, y, z'

loop_
  _atom_site_type_symbol
  _atom_site_label
  _atom_site_symmetry_multiplicity
  _atom_site_fract_x
  _atom_site_fract_y
  _atom_site_fract_z
  _atom_site_occupancy
  Dy  Dy1       1.0  0.95115  0.13517  0.80014  1.0000
  Dy  Dy2       1.0  0.45115  0.36484  0.69986  1.0000
  Dy  Dy3       1.0  0.04885  0.86483  0.19986  1.0000
  Dy  Dy4       1.0  0.54885  0.63516  0.30014  1.0000
  H   H1        1.0  0.45088  0.26361  0.91261  1.0000
  H   H2        1.0  0.95087  0.23639  0.58739  1.0000
  H   H3        1.0  0.54913  0.73639  0.08739  1.0000
  H   H4        1.0  0.04914  0.76361  0.41260  1.0000
  H   H5        1.0  0.56608  0.17440  0.99074  1.0000
  H   H6        1.0  0.06607  0.32561  0.50926  1.0000
  H   H7        1.0  0.43393  0.82561  0.00927  1.0000
  H   H8        1.0  0.93394  0.67439  0.49073  1.0000
  H   H9        1.0  0.75604  0.49363  0.00767  1.0000
  H   H10       1.0  0.25603  0.00637  0.49233  1.0000
  H   H11       1.0  0.24396  0.50636  0.99233  1.0000
  H   H12       1.0  0.74397  0.99363  0.50767  1.0000
  H   H13       1.0  0.61978  0.53110  0.92412  1.0000
  H   H14       1.0  0.11977  0.96890  0.57588  1.0000
  H   H15       1.0  0.38022  0.46889  0.07588  1.0000
  H   H16       1.0  0.88023  0.03110  0.42412  1.0000
  H   H17       1.0  0.09180  0.16907  0.97356  1.0000
  H   H18       1.0  0.59180  0.33093  0.52644  1.0000
  H   H19       1.0  0.90820  0.83094  0.02644  1.0000
  H   H20       1.0  0.40820  0.66906  0.47356  1.0000
  H   H21       1.0  0.22079  0.02014  0.91475  1.0000
  H   H22       1.0  0.72079  0.47987  0.58525  1.0000
  H   H23       1.0  0.77921  0.97987  0.08525  1.0000
  H   H24       1.0  0.27921  0.52013  0.41475  1.0000
  H   H25       1.0  0.11935  0.73386  0.74932  1.0000
  H   H26       1.0  0.61935  0.76615  0.75068  1.0000
  H   H27       1.0  0.88065  0.26614  0.25068  1.0000
  H   H28       1.0  0.38065  0.23386  0.24932  1.0000
  H   H29       1.0  0.04678  0.78314  0.83989  1.0000
  H   H30       1.0  0.54677  0.71686  0.66011  1.0000
  H   H31       1.0  0.95322  0.21686  0.16011  1.0000
  H   H32       1.0  0.45323  0.28314  0.33989  1.0000
  H   H33       1.0  0.74608  0.99797  0.65768  1.0000
  H   H34       1.0  0.24609  0.50203  0.84231  1.0000
  H   H35       1.0  0.25392  0.00203  0.34232  1.0000
  H   H36       1.0  0.75391  0.49797  0.15769  1.0000
  H   H37       1.0  0.90300  0.83828  0.65323  1.0000
  H   H38       1.0  0.40301  0.66172  0.84677  1.0000
  H   H39       1.0  0.09700  0.16172  0.34677  1.0000
  H   H40       1.0  0.59699  0.33828  0.15323  1.0000
  C   C1        1.0  0.56462  0.99171  0.87769  1.0000
  C   C2        1.0  0.06462  0.50829  0.62231  1.0000
  C   C3        1.0  0.43538  0.00829  0.12231  1.0000
  C   C4        1.0  0.93538  0.49171  0.37769  1.0000
  C   C5        1.0  0.57416  0.18447  0.92789  1.0000
  C   C6        1.0  0.07415  0.31554  0.57211  1.0000
  C   C7        1.0  0.42584  0.81553  0.07212  1.0000
  C   C8        1.0  0.92585  0.68446  0.42788  1.0000
  C   C9        1.0  0.74954  0.46689  0.94263  1.0000
  C   C10       1.0  0.24953  0.03311  0.55737  1.0000
  C   C11       1.0  0.25046  0.53311  0.05737  1.0000
  C   C12       1.0  0.75047  0.96689  0.44263  1.0000
  C   C13       1.0  0.92036  0.55239  0.90950  1.0000
  C   C14       1.0  0.42035  0.94761  0.59050  1.0000
  C   C15       1.0  0.07965  0.44761  0.09051  1.0000
  C   C16       1.0  0.57965  0.05239  0.40950  1.0000
  O   O1        1.0  0.68932  0.94689  0.82365  1.0000
  O   O2        1.0  0.18931  0.55311  0.67635  1.0000
  O   O3        1.0  0.31067  0.05310  0.17635  1.0000
  O   O4        1.0  0.81069  0.44689  0.32365  1.0000
  O   O5        1.0  0.74742  0.27218  0.91192  1.0000
  O   O6        1.0  0.24741  0.22782  0.58808  1.0000
  O   O7        1.0  0.25258  0.72782  0.08808  1.0000
  O   O8        1.0  0.75259  0.77217  0.41192  1.0000
  O   O9        1.0  0.43117  0.88792  0.89232  1.0000
  O   O10       1.0  0.93116  0.61209  0.60768  1.0000
  O   O11       1.0  0.56883  0.11208  0.10769  1.0000
  O   O12       1.0  0.06884  0.38791  0.39231  1.0000
  O   O13       1.0  0.01983  0.44649  0.85747  1.0000
  O   O14       1.0  0.51983  0.05351  0.64253  1.0000
  O   O15       1.0  0.98017  0.55351  0.14254  1.0000
  O   O16       1.0  0.48018  0.94649  0.35747  1.0000
  O   O17       1.0  0.95577  0.72184  0.93332  1.0000
  O   O18       1.0  0.45576  0.77816  0.56667  1.0000
  O   O19       1.0  0.04423  0.27817  0.06668  1.0000
  O   O20       1.0  0.54424  0.22183  0.43332  1.0000
  O   O21       1.0  0.07655  0.83539  0.79252  1.0000
  O   O22       1.0  0.57655  0.66462  0.70748  1.0000
  O   O23       1.0  0.92344  0.16462  0.20748  1.0000
  O   O24       1.0  0.42345  0.33538  0.29252  1.0000
  O   O25       1.0  0.11640  0.11181  0.91712  1.0000
  O   O26       1.0  0.61639  0.38820  0.58288  1.0000
  O   O27       1.0  0.88360  0.88820  0.08288  1.0000
  O   O28       1.0  0.38360  0.61180  0.41712  1.0000
  O   O29       1.0  0.88257  0.97512  0.66948  1.0000
  O   O30       1.0  0.38258  0.52487  0.83052  1.0000
  O   O31       1.0  0.11743  0.02487  0.33052  1.0000
  O   O32       1.0  0.61742  0.47513  0.16948  1.0000
  F   F1        1.0  0.22544  0.20180  0.74956  1.0000
  F   F2        1.0  0.72543  0.29820  0.75044  1.0000
  F   F3        1.0  0.77456  0.79820  0.25044  1.0000
  F   F4        1.0  0.27456  0.70180  0.24957  1.0000
