data_image0
_chemical_formula_structural       Tb4H36C16O32
_chemical_formula_sum              "Tb4 H36 C16 O32"
_cell_length_a       6.79954
_cell_length_b       10.7636
_cell_length_c       11.1304
_cell_angle_alpha    96.7107
_cell_angle_beta     90
_cell_angle_gamma    89.9999

_space_group_name_H-M_alt    "P 1"
_space_group_IT_number       1

loop_
  _space_group_symop_operation_xyz
  'x, y, z'

loop_
  _atom_site_type_symbol
  _atom_site_label
  _atom_site_symmetry_multiplicity
  _atom_site_fract_x
  _atom_site_fract_y
  _atom_site_fract_z
  _atom_site_occupancy
  Tb  Tb1       1.0  0.97678  0.15350  0.09665  1.0000
  Tb  Tb2       1.0  0.47678  0.84650  0.40335  1.0000
  Tb  Tb3       1.0  0.02323  0.84650  0.90335  1.0000
  Tb  Tb4       1.0  0.52322  0.15350  0.59665  1.0000
  H   H1        1.0  0.47383  0.38531  0.10558  1.0000
  H   H2        1.0  0.97383  0.61469  0.39441  1.0000
  H   H3        1.0  0.52618  0.61469  0.89441  1.0000
  H   H4        1.0  0.02618  0.38531  0.60559  1.0000
  H   H5        1.0  0.50600  0.28810  0.96549  1.0000
  H   H6        1.0  0.00600  0.71190  0.53450  1.0000
  H   H7        1.0  0.49400  0.71190  0.03450  1.0000
  H   H8        1.0  0.99400  0.28810  0.46550  1.0000
  H   H9        1.0  0.26111  0.34069  0.84787  1.0000
  H   H10       1.0  0.76111  0.65931  0.65213  1.0000
  H   H11       1.0  0.73889  0.65932  0.15214  1.0000
  H   H12       1.0  0.23888  0.34067  0.34786  1.0000
  H   H13       1.0  0.20762  0.47584  0.95059  1.0000
  H   H14       1.0  0.70762  0.52416  0.54940  1.0000
  H   H15       1.0  0.79238  0.52417  0.04941  1.0000
  H   H16       1.0  0.29238  0.47583  0.45059  1.0000
  H   H17       1.0  0.13201  0.09233  0.85042  1.0000
  H   H18       1.0  0.63199  0.90766  0.64958  1.0000
  H   H19       1.0  0.86800  0.90767  0.14958  1.0000
  H   H20       1.0  0.36801  0.09233  0.35042  1.0000
  H   H21       1.0  0.82400  0.37855  0.26347  1.0000
  H   H22       1.0  0.32401  0.62145  0.23653  1.0000
  H   H23       1.0  0.17599  0.62145  0.73653  1.0000
  H   H24       1.0  0.67599  0.37855  0.76347  1.0000
  H   H25       1.0  0.01277  0.43102  0.20205  1.0000
  H   H26       1.0  0.51278  0.56898  0.29795  1.0000
  H   H27       1.0  0.98722  0.56898  0.79795  1.0000
  H   H28       1.0  0.48722  0.43102  0.70205  1.0000
  H   H29       1.0  0.81879  0.16282  0.34754  1.0000
  H   H30       1.0  0.31879  0.83718  0.15246  1.0000
  H   H31       1.0  0.18121  0.83718  0.65246  1.0000
  H   H32       1.0  0.68121  0.16282  0.84754  1.0000
  H   H33       1.0  0.89811  0.02546  0.32049  1.0000
  H   H34       1.0  0.39811  0.97454  0.17951  1.0000
  H   H35       1.0  0.10189  0.97454  0.67951  1.0000
  H   H36       1.0  0.60189  0.02546  0.82049  1.0000
  C   C1        1.0  0.95612  0.36014  0.89613  1.0000
  C   C2        1.0  0.45613  0.63985  0.60387  1.0000
  C   C3        1.0  0.04387  0.63986  0.10388  1.0000
  C   C4        1.0  0.54387  0.36014  0.39612  1.0000
  C   C5        1.0  0.46094  0.18882  0.11862  1.0000
  C   C6        1.0  0.96093  0.81119  0.38138  1.0000
  C   C7        1.0  0.53906  0.81118  0.88138  1.0000
  C   C8        1.0  0.03907  0.18881  0.61862  1.0000
  C   C9        1.0  0.42205  0.29984  0.05017  1.0000
  C   C10       1.0  0.92205  0.70016  0.44983  1.0000
  C   C11       1.0  0.57795  0.70016  0.94983  1.0000
  C   C12       1.0  0.07795  0.29983  0.55017  1.0000
  C   C13       1.0  0.17233  0.37593  0.92773  1.0000
  C   C14       1.0  0.67233  0.62408  0.57226  1.0000
  C   C15       1.0  0.82767  0.62408  0.07227  1.0000
  C   C16       1.0  0.32767  0.37591  0.42773  1.0000
  O   O1        1.0  0.95128  0.35207  0.22225  1.0000
  O   O2        1.0  0.45128  0.64793  0.27775  1.0000
  O   O3        1.0  0.04872  0.64793  0.77775  1.0000
  O   O4        1.0  0.54872  0.35207  0.72225  1.0000
  O   O5        1.0  0.21626  0.30725  0.02624  1.0000
  O   O6        1.0  0.71626  0.69275  0.47376  1.0000
  O   O7        1.0  0.78375  0.69276  0.97377  1.0000
  O   O8        1.0  0.28375  0.30723  0.52623  1.0000
  O   O9        1.0  0.31278  0.13320  0.16013  1.0000
  O   O10       1.0  0.81278  0.86681  0.33988  1.0000
  O   O11       1.0  0.68723  0.86681  0.83988  1.0000
  O   O12       1.0  0.18723  0.13319  0.66012  1.0000
  O   O13       1.0  0.92929  0.11351  0.31002  1.0000
  O   O14       1.0  0.42929  0.88649  0.18998  1.0000
  O   O15       1.0  0.07071  0.88649  0.68999  1.0000
  O   O16       1.0  0.57071  0.11351  0.81001  1.0000
  O   O17       1.0  0.85592  0.28048  0.94555  1.0000
  O   O18       1.0  0.35592  0.71952  0.55445  1.0000
  O   O19       1.0  0.14408  0.71953  0.05446  1.0000
  O   O20       1.0  0.64408  0.28047  0.44555  1.0000
  O   O21       1.0  0.88925  0.42761  0.81910  1.0000
  O   O22       1.0  0.38925  0.57239  0.68090  1.0000
  O   O23       1.0  0.11074  0.57239  0.18091  1.0000
  O   O24       1.0  0.61074  0.42761  0.31910  1.0000
  O   O25       1.0  0.63654  0.15762  0.13272  1.0000
  O   O26       1.0  0.13652  0.84239  0.36729  1.0000
  O   O27       1.0  0.36347  0.84238  0.86728  1.0000
  O   O28       1.0  0.86347  0.15761  0.63272  1.0000
  O   O29       1.0  0.06846  0.05380  0.91497  1.0000
  O   O30       1.0  0.56845  0.94620  0.58503  1.0000
  O   O31       1.0  0.93154  0.94620  0.08503  1.0000
  O   O32       1.0  0.43155  0.05380  0.41497  1.0000
