data_image0
_chemical_formula_structural       Ni6H6C24O18
_chemical_formula_sum              "Ni6 H6 C24 O18"
_cell_length_a       6.74338
_cell_length_b       15.034
_cell_length_c       15.0345
_cell_angle_alpha    117.805
_cell_angle_beta     98.6145
_cell_angle_gamma    98.5936

_space_group_name_H-M_alt    "P 1"
_space_group_IT_number       1

loop_
  _space_group_symop_operation_xyz
  'x, y, z'

loop_
  _atom_site_type_symbol
  _atom_site_label
  _atom_site_symmetry_multiplicity
  _atom_site_fract_x
  _atom_site_fract_y
  _atom_site_fract_z
  _atom_site_occupancy
  Ni  Ni1       1.0  0.97276  0.59154  0.26757  1.0000
  Ni  Ni2       1.0  0.38109  0.67603  0.40838  1.0000
  Ni  Ni3       1.0  0.70508  0.73235  0.32397  1.0000
  Ni  Ni4       1.0  0.02724  0.40846  0.73243  1.0000
  Ni  Ni5       1.0  0.61891  0.32397  0.59162  1.0000
  Ni  Ni6       1.0  0.29492  0.26765  0.67603  1.0000
  H   H1        1.0  0.14499  0.01997  0.46460  1.0000
  H   H2        1.0  0.12516  0.44451  0.98013  1.0000
  H   H3        1.0  0.68041  0.53541  0.55526  1.0000
  H   H4        1.0  0.85501  0.98003  0.53540  1.0000
  H   H5        1.0  0.87484  0.55549  0.01987  1.0000
  H   H6        1.0  0.31959  0.46459  0.44474  1.0000
  C   C1        1.0  0.13940  0.82596  0.39991  1.0000
  C   C2        1.0  0.31359  0.57388  0.17405  1.0000
  C   C3        1.0  0.73958  0.60008  0.42600  1.0000
  C   C4        1.0  0.86060  0.17404  0.60010  1.0000
  C   C5        1.0  0.68640  0.42612  0.82595  1.0000
  C   C6        1.0  0.26042  0.39992  0.57400  1.0000
  C   C7        1.0  0.32934  0.91199  0.45142  1.0000
  C   C8        1.0  0.41753  0.53940  0.08805  1.0000
  C   C9        1.0  0.87801  0.54857  0.46050  1.0000
  C   C10       1.0  0.67066  0.08801  0.54858  1.0000
  C   C11       1.0  0.58247  0.46060  0.91194  1.0000
  C   C12       1.0  0.12200  0.45143  0.53950  1.0000
  C   C13       1.0  0.53473  0.89881  0.47150  1.0000
  C   C14       1.0  0.63604  0.57275  0.10119  1.0000
  C   C15       1.0  0.06327  0.52846  0.42727  1.0000
  C   C16       1.0  0.46528  0.10119  0.52850  1.0000
  C   C17       1.0  0.36396  0.42725  0.89881  1.0000
  C   C18       1.0  0.93673  0.47154  0.57273  1.0000
  C   C19       1.0  0.30166  0.01141  0.48054  1.0000
  C   C20       1.0  0.29036  0.46904  0.98864  1.0000
  C   C21       1.0  0.82120  0.51949  0.53084  1.0000
  C   C22       1.0  0.69834  0.98860  0.51946  1.0000
  C   C23       1.0  0.70964  0.53095  0.01136  1.0000
  C   C24       1.0  0.17880  0.48051  0.46916  1.0000
  O   O1        1.0  0.96403  0.84235  0.37812  1.0000
  O   O2        1.0  0.12187  0.53561  0.15763  1.0000
  O   O3        1.0  0.58609  0.62192  0.46420  1.0000
  O   O4        1.0  0.03597  0.15766  0.62188  1.0000
  O   O5        1.0  0.87813  0.46439  0.84237  1.0000
  O   O6        1.0  0.41391  0.37808  0.53581  1.0000
  O   O7        1.0  0.15398  0.73350  0.37863  1.0000
  O   O8        1.0  0.42047  0.64521  0.26648  1.0000
  O   O9        1.0  0.77537  0.62128  0.35476  1.0000
  O   O10       1.0  0.84602  0.26650  0.62137  1.0000
  O   O11       1.0  0.57953  0.35479  0.73352  1.0000
  O   O12       1.0  0.22463  0.37872  0.64524  1.0000
  O   O13       1.0  0.58408  0.80874  0.45027  1.0000
  O   O14       1.0  0.77556  0.64155  0.19127  1.0000
  O   O15       1.0  0.13397  0.54970  0.35847  1.0000
  O   O16       1.0  0.41592  0.19126  0.54973  1.0000
  O   O17       1.0  0.22443  0.35845  0.80873  1.0000
  O   O18       1.0  0.86602  0.45029  0.64153  1.0000
