data_image0
_chemical_formula_structural       Mo4H18C20N6O16
_chemical_formula_sum              "Mo4 H18 C20 N6 O16"
_cell_length_a       7.36084
_cell_length_b       8.51314
_cell_length_c       11.2823
_cell_angle_alpha    98.6889
_cell_angle_beta     92.7371
_cell_angle_gamma    98.4256

_space_group_name_H-M_alt    "P 1"
_space_group_IT_number       1

loop_
  _space_group_symop_operation_xyz
  'x, y, z'

loop_
  _atom_site_type_symbol
  _atom_site_label
  _atom_site_symmetry_multiplicity
  _atom_site_fract_x
  _atom_site_fract_y
  _atom_site_fract_z
  _atom_site_occupancy
  Mo  Mo1       1.0  0.39715  0.07094  0.63071  1.0000
  Mo  Mo2       1.0  0.60285  0.92906  0.36929  1.0000
  Mo  Mo3       1.0  0.09518  0.88019  0.38555  1.0000
  Mo  Mo4       1.0  0.90483  0.11981  0.61446  1.0000
  H   H1        1.0  0.48473  0.46550  0.38584  1.0000
  H   H2        1.0  0.51528  0.53449  0.61415  1.0000
  H   H3        1.0  0.25134  0.49285  0.38991  1.0000
  H   H4        1.0  0.74869  0.50716  0.61009  1.0000
  H   H5        1.0  0.16826  0.72214  0.10671  1.0000
  H   H6        1.0  0.83173  0.27785  0.89329  1.0000
  H   H7        1.0  0.41424  0.15804  0.17664  1.0000
  H   H8        1.0  0.58575  0.84195  0.82335  1.0000
  H   H9        1.0  0.35515  0.22788  0.94620  1.0000
  H   H10       1.0  0.64482  0.77211  0.05379  1.0000
  H   H11       1.0  0.08865  0.90796  0.99546  1.0000
  H   H12       1.0  0.91134  0.09203  0.00455  1.0000
  H   H13       1.0  0.06748  0.84344  0.76678  1.0000
  H   H14       1.0  0.93252  0.15657  0.23323  1.0000
  H   H15       1.0  0.15331  0.58096  0.67291  1.0000
  H   H16       1.0  0.84669  0.41905  0.32709  1.0000
  H   H17       1.0  0.25631  0.39475  0.80413  1.0000
  H   H18       1.0  0.74369  0.60526  0.19587  1.0000
  C   C1        1.0  0.29824  0.25543  0.41167  1.0000
  C   C2        1.0  0.70176  0.74457  0.58833  1.0000
  C   C3        1.0  0.34329  0.40786  0.35612  1.0000
  C   C4        1.0  0.65672  0.59214  0.64387  1.0000
  C   C5        1.0  0.36236  0.25850  0.14553  1.0000
  C   C6        1.0  0.63762  0.74149  0.85447  1.0000
  C   C7        1.0  0.33248  0.29628  0.03195  1.0000
  C   C8        1.0  0.66751  0.70371  0.96805  1.0000
  C   C9        1.0  0.27249  0.44837  0.05281  1.0000
  C   C10       1.0  0.72750  0.55164  0.94719  1.0000
  C   C11       1.0  0.22227  0.54924  0.96797  1.0000
  C   C12       1.0  0.77772  0.45077  0.03202  1.0000
  C   C13       1.0  0.12278  0.79776  0.94580  1.0000
  C   C14       1.0  0.87722  0.20224  0.05421  1.0000
  C   C15       1.0  0.11443  0.76148  0.82215  1.0000
  C   C16       1.0  0.88558  0.23852  0.17785  1.0000
  C   C17       1.0  0.16144  0.61385  0.77041  1.0000
  C   C18       1.0  0.83857  0.38615  0.22959  1.0000
  C   C19       1.0  0.21661  0.50862  0.84276  1.0000
  C   C20       1.0  0.78340  0.49138  0.15724  1.0000
  N   N1        1.0  0.31953  0.38273  0.22560  1.0000
  N   N2        1.0  0.68047  0.61726  0.77440  1.0000
  N   N3        1.0  0.26478  0.49922  0.17152  1.0000
  N   N4        1.0  0.73522  0.50077  0.82848  1.0000
  N   N5        1.0  0.17511  0.69306  0.01421  1.0000
  N   N6        1.0  0.82488  0.30694  0.98579  1.0000
  O   O1        1.0  0.35848  0.91043  0.43056  1.0000
  O   O2        1.0  0.64152  0.08957  0.56944  1.0000
  O   O3        1.0  0.40432  0.89440  0.68551  1.0000
  O   O4        1.0  0.59568  0.10560  0.31449  1.0000
  O   O5        1.0  0.41848  0.21221  0.75725  1.0000
  O   O6        1.0  0.58154  0.78780  0.24275  1.0000
  O   O7        1.0  0.03663  0.70028  0.43498  1.0000
  O   O8        1.0  0.96338  0.29971  0.56502  1.0000
  O   O9        1.0  0.08053  0.83034  0.23144  1.0000
  O   O10       1.0  0.91948  0.16966  0.76856  1.0000
  O   O11       1.0  0.13022  0.02865  0.58505  1.0000
  O   O12       1.0  0.86978  0.97136  0.41496  1.0000
  O   O13       1.0  0.37736  0.26140  0.51536  1.0000
  O   O14       1.0  0.62264  0.73860  0.48465  1.0000
  O   O15       1.0  0.18615  0.13946  0.35388  1.0000
  O   O16       1.0  0.81385  0.86054  0.64612  1.0000
