data_image0
_chemical_formula_structural       Hg2H36C40I4N8O4
_chemical_formula_sum              "Hg2 H36 C40 I4 N8 O4"
_cell_length_a       9.44667
_cell_length_b       11.6313
_cell_length_c       11.6314
_cell_angle_alpha    110.034
_cell_angle_beta     93.129
_cell_angle_gamma    93.129

_space_group_name_H-M_alt    "P 1"
_space_group_IT_number       1

loop_
  _space_group_symop_operation_xyz
  'x, y, z'

loop_
  _atom_site_type_symbol
  _atom_site_label
  _atom_site_symmetry_multiplicity
  _atom_site_fract_x
  _atom_site_fract_y
  _atom_site_fract_z
  _atom_site_occupancy
  Hg  Hg1       1.0  0.56603  0.25717  0.96582  1.0000
  Hg  Hg2       1.0  0.06603  0.96582  0.25716  1.0000
  H   H1        1.0  0.74455  0.77998  0.76443  1.0000
  H   H2        1.0  0.24455  0.76442  0.77996  1.0000
  H   H3        1.0  0.95245  0.36050  0.36682  1.0000
  H   H4        1.0  0.45245  0.36681  0.36050  1.0000
  H   H5        1.0  0.85056  0.28664  0.83163  1.0000
  H   H6        1.0  0.35055  0.83163  0.28663  1.0000
  H   H7        1.0  0.03660  0.16856  0.70709  1.0000
  H   H8        1.0  0.53658  0.70709  0.16856  1.0000
  H   H9        1.0  0.04090  0.94453  0.67092  1.0000
  H   H10       1.0  0.54088  0.67092  0.94452  1.0000
  H   H11       1.0  0.67338  0.97420  0.88214  1.0000
  H   H12       1.0  0.17337  0.88215  0.97420  1.0000
  H   H13       1.0  0.88834  0.55446  0.61682  1.0000
  H   H14       1.0  0.38835  0.61682  0.55447  1.0000
  H   H15       1.0  0.80011  0.60038  0.75285  1.0000
  H   H16       1.0  0.30012  0.75285  0.60038  1.0000
  H   H17       1.0  0.96556  0.66761  0.95779  1.0000
  H   H18       1.0  0.46557  0.95780  0.66760  1.0000
  H   H19       1.0  0.14349  0.58943  0.06946  1.0000
  H   H20       1.0  0.64350  0.06947  0.58942  1.0000
  H   H21       1.0  0.29333  0.42291  0.95224  1.0000
  H   H22       1.0  0.79333  0.95223  0.42291  1.0000
  H   H23       1.0  0.26028  0.33898  0.72550  1.0000
  H   H24       1.0  0.76029  0.72550  0.33898  1.0000
  H   H25       1.0  0.15913  0.33566  0.54107  1.0000
  H   H26       1.0  0.65914  0.54107  0.33567  1.0000
  H   H27       1.0  0.09564  0.47269  0.53076  1.0000
  H   H28       1.0  0.59565  0.53076  0.47270  1.0000
  H   H29       1.0  0.69979  0.16257  0.46762  1.0000
  H   H30       1.0  0.19979  0.46762  0.16256  1.0000
  H   H31       1.0  0.49497  0.04103  0.32371  1.0000
  H   H32       1.0  0.99496  0.32372  0.04105  1.0000
  H   H33       1.0  0.45043  0.07079  0.11967  1.0000
  H   H34       1.0  0.95043  0.11967  0.07080  1.0000
  H   H35       1.0  0.79138  0.33186  0.20001  1.0000
  H   H36       1.0  0.29138  0.20000  0.33186  1.0000
  C   C1        1.0  0.85603  0.18886  0.81490  1.0000
  C   C2        1.0  0.35602  0.81491  0.18885  1.0000
  C   C3        1.0  0.95966  0.12273  0.74642  1.0000
  C   C4        1.0  0.45965  0.74642  0.12273  1.0000
  C   C5        1.0  0.96202  0.99782  0.72591  1.0000
  C   C6        1.0  0.46201  0.72591  0.99782  1.0000
  C   C7        1.0  0.85808  0.94166  0.77501  1.0000
  C   C8        1.0  0.35807  0.77501  0.94166  1.0000
  C   C9        1.0  0.75698  0.01463  0.84330  1.0000
  C   C10       1.0  0.25697  0.84330  0.01463  1.0000
  C   C11       1.0  0.94952  0.73779  0.72996  1.0000
  C   C12       1.0  0.44950  0.72996  0.73779  1.0000
  C   C13       1.0  0.90415  0.60557  0.71613  1.0000
  C   C14       1.0  0.40416  0.71613  0.60558  1.0000
  C   C15       1.0  0.01360  0.55116  0.77793  1.0000
  C   C16       1.0  0.51360  0.77793  0.55116  1.0000
  C   C17       1.0  0.03114  0.59590  0.90629  1.0000
  C   C18       1.0  0.53114  0.90629  0.59590  1.0000
  C   C19       1.0  0.13089  0.55098  0.96945  1.0000
  C   C20       1.0  0.63090  0.96945  0.55098  1.0000
  C   C21       1.0  0.21476  0.45924  0.90445  1.0000
  C   C22       1.0  0.71477  0.90444  0.45924  1.0000
  C   C23       1.0  0.19711  0.41292  0.77652  1.0000
  C   C24       1.0  0.69712  0.77651  0.41292  1.0000
  C   C25       1.0  0.09805  0.45829  0.71218  1.0000
  C   C26       1.0  0.59805  0.71218  0.45829  1.0000
  C   C27       1.0  0.07938  0.40283  0.57426  1.0000
  C   C28       1.0  0.57938  0.57425  0.40284  1.0000
  C   C29       1.0  0.93422  0.33212  0.53021  1.0000
  C   C30       1.0  0.43423  0.53021  0.33212  1.0000
  C   C31       1.0  0.76565  0.25306  0.34321  1.0000
  C   C32       1.0  0.26565  0.34321  0.25306  1.0000
  C   C33       1.0  0.67715  0.17259  0.37926  1.0000
  C   C34       1.0  0.17715  0.37926  0.17259  1.0000
  C   C35       1.0  0.56325  0.10581  0.29860  1.0000
  C   C36       1.0  0.06325  0.29860  0.10582  1.0000
  C   C37       1.0  0.53789  0.12164  0.18597  1.0000
  C   C38       1.0  0.03789  0.18597  0.12164  1.0000
  C   C39       1.0  0.72972  0.26639  0.23005  1.0000
  C   C40       1.0  0.22972  0.23005  0.26638  1.0000
  I   I1        1.0  0.70917  0.48151  0.04162  1.0000
  I   I2        1.0  0.20917  0.04162  0.48151  1.0000
  I   I3        1.0  0.32450  0.11383  0.87740  1.0000
  I   I4        1.0  0.82450  0.87740  0.11381  1.0000
  N   N1        1.0  0.75681  0.13481  0.86234  1.0000
  N   N2        1.0  0.25681  0.86235  0.13480  1.0000
  N   N3        1.0  0.84474  0.81590  0.75639  1.0000
  N   N4        1.0  0.34474  0.75639  0.81589  1.0000
  N   N5        1.0  0.88806  0.32000  0.41162  1.0000
  N   N6        1.0  0.38807  0.41161  0.32000  1.0000
  N   N7        1.0  0.61941  0.20264  0.15446  1.0000
  N   N8        1.0  0.11940  0.15446  0.20264  1.0000
  O   O1        1.0  0.07381  0.77009  0.71657  1.0000
  O   O2        1.0  0.57382  0.71657  0.77010  1.0000
  O   O3        1.0  0.86476  0.28895  0.59430  1.0000
  O   O4        1.0  0.36477  0.59430  0.28896  1.0000
