data_image0
_chemical_formula_structural       Hg2H36C40I4N8O4
_chemical_formula_sum              "Hg2 H36 C40 I4 N8 O4"
_cell_length_a       9.49927
_cell_length_b       11.5026
_cell_length_c       11.5025
_cell_angle_alpha    103.951
_cell_angle_beta     95.3774
_cell_angle_gamma    95.3781

_space_group_name_H-M_alt    "P 1"
_space_group_IT_number       1

loop_
  _space_group_symop_operation_xyz
  'x, y, z'

loop_
  _atom_site_type_symbol
  _atom_site_label
  _atom_site_symmetry_multiplicity
  _atom_site_fract_x
  _atom_site_fract_y
  _atom_site_fract_z
  _atom_site_occupancy
  Hg  Hg1       1.0  0.15151  0.81294  0.13324  1.0000
  Hg  Hg2       1.0  0.65151  0.13324  0.81295  1.0000
  H   H1        1.0  0.97961  0.26791  0.29518  1.0000
  H   H2        1.0  0.47961  0.29518  0.26791  1.0000
  H   H3        1.0  0.72206  0.68028  0.73290  1.0000
  H   H4        1.0  0.22205  0.73289  0.68027  1.0000
  H   H5        1.0  0.85474  0.76223  0.25043  1.0000
  H   H6        1.0  0.35474  0.25043  0.76223  1.0000
  H   H7        1.0  0.66231  0.87039  0.35080  1.0000
  H   H8        1.0  0.16232  0.35081  0.87039  1.0000
  H   H9        1.0  0.67287  0.09330  0.37893  1.0000
  H   H10       1.0  0.17287  0.37893  0.09330  1.0000
  H   H11       1.0  0.05281  0.08126  0.20062  1.0000
  H   H12       1.0  0.55280  0.20062  0.08125  1.0000
  H   H13       1.0  0.88119  0.47709  0.41163  1.0000
  H   H14       1.0  0.38119  0.41163  0.47708  1.0000
  H   H15       1.0  0.90503  0.43698  0.25882  1.0000
  H   H16       1.0  0.40503  0.25882  0.43698  1.0000
  H   H17       1.0  0.72507  0.44795  0.10092  1.0000
  H   H18       1.0  0.22507  0.10092  0.44796  1.0000
  H   H19       1.0  0.52218  0.54714  0.03784  1.0000
  H   H20       1.0  0.02217  0.03784  0.54716  1.0000
  H   H21       1.0  0.38621  0.66425  0.19368  1.0000
  H   H22       1.0  0.88621  0.19369  0.66426  1.0000
  H   H23       1.0  0.45454  0.67551  0.40993  1.0000
  H   H24       1.0  0.95453  0.40994  0.67550  1.0000
  H   H25       1.0  0.57196  0.59450  0.56002  1.0000
  H   H26       1.0  0.07195  0.56001  0.59449  1.0000
  H   H27       1.0  0.69461  0.48988  0.52554  1.0000
  H   H28       1.0  0.19460  0.52554  0.48987  1.0000
  H   H29       1.0  0.91626  0.92011  0.63674  1.0000
  H   H30       1.0  0.41624  0.63673  0.92010  1.0000
  H   H31       1.0  0.11660  0.06291  0.77065  1.0000
  H   H32       1.0  0.61659  0.77064  0.06290  1.0000
  H   H33       1.0  0.20860  0.01994  0.96682  1.0000
  H   H34       1.0  0.70859  0.96681  0.01993  1.0000
  H   H35       1.0  0.92048  0.71158  0.90259  1.0000
  H   H36       1.0  0.42046  0.90259  0.71158  1.0000
  C   C1        1.0  0.85327  0.85922  0.26309  1.0000
  C   C2        1.0  0.35327  0.26309  0.85922  1.0000
  C   C3        1.0  0.74758  0.91958  0.31850  1.0000
  C   C4        1.0  0.24759  0.31850  0.91958  1.0000
  C   C5        1.0  0.75185  0.04362  0.33313  1.0000
  C   C6        1.0  0.25185  0.33313  0.04362  1.0000
  C   C7        1.0  0.86236  0.10499  0.29087  1.0000
  C   C8        1.0  0.36237  0.29086  0.10499  1.0000
  C   C9        1.0  0.96413  0.03750  0.23468  1.0000
  C   C10       1.0  0.46412  0.23468  0.03750  1.0000
  C   C11       1.0  0.77472  0.30331  0.31654  1.0000
  C   C12       1.0  0.27472  0.31654  0.30330  1.0000
  C   C13       1.0  0.82460  0.43453  0.32126  1.0000
  C   C14       1.0  0.32459  0.32125  0.43452  1.0000
  C   C15       1.0  0.70397  0.50220  0.29037  1.0000
  C   C16       1.0  0.20397  0.29037  0.50219  1.0000
  C   C17       1.0  0.66534  0.49807  0.16881  1.0000
  C   C18       1.0  0.16534  0.16881  0.49808  1.0000
  C   C19       1.0  0.55181  0.55529  0.13356  1.0000
  C   C20       1.0  0.05181  0.13356  0.55529  1.0000
  C   C21       1.0  0.47542  0.61931  0.22022  1.0000
  C   C22       1.0  0.97542  0.22022  0.61932  1.0000
  C   C23       1.0  0.51340  0.62450  0.34168  1.0000
  C   C24       1.0  0.01339  0.34168  0.62450  1.0000
  C   C25       1.0  0.62608  0.56580  0.37799  1.0000
  C   C26       1.0  0.12608  0.37799  0.56579  1.0000
  C   C27       1.0  0.66420  0.57580  0.51047  1.0000
  C   C28       1.0  0.16420  0.51047  0.57579  1.0000
  C   C29       1.0  0.78872  0.67340  0.56612  1.0000
  C   C30       1.0  0.28870  0.56612  0.67339  1.0000
  C   C31       1.0  0.90346  0.80488  0.75914  1.0000
  C   C32       1.0  0.40344  0.75913  0.80487  1.0000
  C   C33       1.0  0.96058  0.90460  0.72153  1.0000
  C   C34       1.0  0.46057  0.72153  0.90460  1.0000
  C   C35       1.0  0.07149  0.98320  0.79591  1.0000
  C   C36       1.0  0.57148  0.79590  0.98320  1.0000
  C   C37       1.0  0.12214  0.96068  0.90524  1.0000
  C   C38       1.0  0.62213  0.90523  0.96067  1.0000
  C   C39       1.0  0.96008  0.78902  0.86996  1.0000
  C   C40       1.0  0.46006  0.86996  0.78902  1.0000
  I   I1        1.0  0.02788  0.58319  0.07240  1.0000
  I   I2        1.0  0.52787  0.07241  0.58319  1.0000
  I   I3        1.0  0.37370  0.98304  0.21994  1.0000
  I   I4        1.0  0.87370  0.21994  0.98304  1.0000
  N   N1        1.0  0.95913  0.91853  0.22233  1.0000
  N   N2        1.0  0.45912  0.22233  0.91853  1.0000
  N   N3        1.0  0.87911  0.22973  0.30385  1.0000
  N   N4        1.0  0.37911  0.30385  0.22973  1.0000
  N   N5        1.0  0.79204  0.72072  0.68876  1.0000
  N   N6        1.0  0.29202  0.68876  0.72072  1.0000
  N   N7        1.0  0.06653  0.86526  0.94072  1.0000
  N   N8        1.0  0.56652  0.94072  0.86526  1.0000
  O   O1        1.0  0.64876  0.26727  0.32403  1.0000
  O   O2        1.0  0.14875  0.32403  0.26727  1.0000
  O   O3        1.0  0.88080  0.70586  0.50808  1.0000
  O   O4        1.0  0.38080  0.50808  0.70585  1.0000
