data_image0
_chemical_formula_structural       Dy2H18C24N2O16
_chemical_formula_sum              "Dy2 H18 C24 N2 O16"
_cell_length_a       5.89893
_cell_length_b       10.2726
_cell_length_c       11.5292
_cell_angle_alpha    105.602
_cell_angle_beta     102.139
_cell_angle_gamma    106.892

_space_group_name_H-M_alt    "P 1"
_space_group_IT_number       1

loop_
  _space_group_symop_operation_xyz
  'x, y, z'

loop_
  _atom_site_type_symbol
  _atom_site_label
  _atom_site_symmetry_multiplicity
  _atom_site_fract_x
  _atom_site_fract_y
  _atom_site_fract_z
  _atom_site_occupancy
  Dy  Dy1       1.0  0.86287  0.81953  0.56202  1.0000
  Dy  Dy2       1.0  0.13712  0.18046  0.43798  1.0000
  H   H1        1.0  0.26542  0.72544  0.65114  1.0000
  H   H2        1.0  0.73457  0.27456  0.34886  1.0000
  H   H3        1.0  0.21572  0.79155  0.78438  1.0000
  H   H4        1.0  0.78428  0.20845  0.21562  1.0000
  H   H5        1.0  0.20215  0.86755  0.41024  1.0000
  H   H6        1.0  0.79783  0.13244  0.58976  1.0000
  H   H7        1.0  0.19823  0.71837  0.42021  1.0000
  H   H8        1.0  0.80176  0.28163  0.57979  1.0000
  H   H9        1.0  0.87532  0.06190  0.00527  1.0000
  H   H10       1.0  0.12468  0.93810  0.99473  1.0000
  H   H11       1.0  0.19598  0.31310  0.77369  1.0000
  H   H12       1.0  0.80403  0.68691  0.22631  1.0000
  H   H13       1.0  0.05989  0.44488  0.93774  1.0000
  H   H14       1.0  0.94013  0.55513  0.06226  1.0000
  H   H15       1.0  0.20675  0.45497  0.16221  1.0000
  H   H16       1.0  0.79327  0.54505  0.83779  1.0000
  H   H17       1.0  0.49097  0.33106  0.21810  1.0000
  H   H18       1.0  0.50904  0.66895  0.78191  1.0000
  C   C1        1.0  0.74537  0.11161  0.97387  1.0000
  C   C2        1.0  0.25463  0.88840  0.02613  1.0000
  C   C3        1.0  0.66147  0.09335  0.84350  1.0000
  C   C4        1.0  0.33852  0.90665  0.15650  1.0000
  C   C5        1.0  0.74254  0.00205  0.74946  1.0000
  C   C6        1.0  0.25745  0.99795  0.25054  1.0000
  C   C7        1.0  0.50180  0.16154  0.80757  1.0000
  C   C8        1.0  0.49820  0.83845  0.19243  1.0000
  C   C9        1.0  0.38847  0.15052  0.67429  1.0000
  C   C10       1.0  0.61153  0.84948  0.32571  1.0000
  C   C11       1.0  0.42528  0.24455  0.90071  1.0000
  C   C12       1.0  0.57473  0.75545  0.09929  1.0000
  C   C13       1.0  0.26216  0.31677  0.87060  1.0000
  C   C14       1.0  0.73786  0.68324  0.12940  1.0000
  C   C15       1.0  0.18581  0.39087  0.96339  1.0000
  C   C16       1.0  0.81420  0.60914  0.03661  1.0000
  C   C17       1.0  0.26865  0.39623  0.08927  1.0000
  C   C18       1.0  0.73137  0.60378  0.91073  1.0000
  C   C19       1.0  0.42927  0.32802  0.12147  1.0000
  C   C20       1.0  0.57074  0.67198  0.87853  1.0000
  C   C21       1.0  0.51303  0.25201  0.02863  1.0000
  C   C22       1.0  0.48698  0.74800  0.97137  1.0000
  C   C23       1.0  0.41707  0.52826  0.53574  1.0000
  C   C24       1.0  0.58293  0.47173  0.46426  1.0000
  N   N1        1.0  0.67540  0.18630  0.06251  1.0000
  N   N2        1.0  0.32461  0.81370  0.93749  1.0000
  O   O1        1.0  0.67018  0.99157  0.63222  1.0000
  O   O2        1.0  0.32982  0.00843  0.36778  1.0000
  O   O3        1.0  0.87702  0.93357  0.78241  1.0000
  O   O4        1.0  0.12297  0.06642  0.21759  1.0000
  O   O5        1.0  0.18086  0.04737  0.60816  1.0000
  O   O6        1.0  0.81913  0.95262  0.39185  1.0000
  O   O7        1.0  0.48123  0.25209  0.63575  1.0000
  O   O8        1.0  0.51876  0.74790  0.36424  1.0000
  O   O9        1.0  0.48633  0.66671  0.58440  1.0000
  O   O10       1.0  0.51366  0.33328  0.41559  1.0000
  O   O11       1.0  0.23057  0.43583  0.54123  1.0000
  O   O12       1.0  0.76943  0.56417  0.45877  1.0000
  O   O13       1.0  0.15808  0.77055  0.68884  1.0000
  O   O14       1.0  0.84191  0.22944  0.31117  1.0000
  O   O15       1.0  0.10151  0.78110  0.42556  1.0000
  O   O16       1.0  0.89847  0.21890  0.57443  1.0000
