data_image0
_chemical_formula_structural       Bi4H12Rh4C32O32F36
_chemical_formula_sum              "Bi4 H12 Rh4 C32 O32 F36"
_cell_length_a       8.77908
_cell_length_b       9.59319
_cell_length_c       19.9886
_cell_angle_alpha    89.9993
_cell_angle_beta     90.003
_cell_angle_gamma    105.411

_space_group_name_H-M_alt    "P 1"
_space_group_IT_number       1

loop_
  _space_group_symop_operation_xyz
  'x, y, z'

loop_
  _atom_site_type_symbol
  _atom_site_label
  _atom_site_symmetry_multiplicity
  _atom_site_fract_x
  _atom_site_fract_y
  _atom_site_fract_z
  _atom_site_occupancy
  Bi  Bi1       1.0  0.71917  0.46397  0.66179  1.0000
  Bi  Bi2       1.0  0.28082  0.03606  0.16178  1.0000
  Bi  Bi3       1.0  0.28085  0.53609  0.33822  1.0000
  Bi  Bi4       1.0  0.71919  0.96393  0.83822  1.0000
  H   H1        1.0  0.83028  0.57645  0.91119  1.0000
  H   H2        1.0  0.16969  0.92354  0.41120  1.0000
  H   H3        1.0  0.16970  0.42353  0.08882  1.0000
  H   H4        1.0  0.83029  0.07647  0.58881  1.0000
  H   H5        1.0  0.99867  0.71922  0.88763  1.0000
  H   H6        1.0  0.00132  0.78077  0.38761  1.0000
  H   H7        1.0  0.00133  0.28074  0.11241  1.0000
  H   H8        1.0  0.99868  0.21925  0.61239  1.0000
  H   H9        1.0  0.00182  0.53256  0.88212  1.0000
  H   H10       1.0  0.99818  0.96743  0.38210  1.0000
  H   H11       1.0  0.99817  0.46741  0.11789  1.0000
  H   H12       1.0  0.00183  0.03259  0.61789  1.0000
  Rh  Rh1       1.0  0.77799  0.73644  0.68573  1.0000
  Rh  Rh2       1.0  0.22199  0.76357  0.18573  1.0000
  Rh  Rh3       1.0  0.22200  0.26358  0.31427  1.0000
  Rh  Rh4       1.0  0.77800  0.23644  0.81426  1.0000
  C   C1        1.0  0.86655  0.60120  0.80624  1.0000
  C   C2        1.0  0.13348  0.89880  0.30623  1.0000
  C   C3        1.0  0.13346  0.39881  0.19378  1.0000
  C   C4        1.0  0.86656  0.10120  0.69377  1.0000
  C   C5        1.0  0.92980  0.60904  0.87606  1.0000
  C   C6        1.0  0.07020  0.89096  0.37605  1.0000
  C   C7        1.0  0.07020  0.39094  0.12396  1.0000
  C   C8        1.0  0.92981  0.10905  0.62396  1.0000
  C   C9        1.0  0.45614  0.59610  0.72701  1.0000
  C   C10       1.0  0.54386  0.90387  0.22699  1.0000
  C   C11       1.0  0.54388  0.40393  0.27301  1.0000
  C   C12       1.0  0.45612  0.09609  0.77300  1.0000
  C   C13       1.0  0.30044  0.60229  0.76209  1.0000
  C   C14       1.0  0.69956  0.89770  0.26209  1.0000
  C   C15       1.0  0.69954  0.39771  0.23791  1.0000
  C   C16       1.0  0.30044  0.10229  0.73791  1.0000
  C   C17       1.0  0.66943  0.68541  0.54875  1.0000
  C   C18       1.0  0.33052  0.81458  0.04875  1.0000
  C   C19       1.0  0.33055  0.31460  0.45126  1.0000
  C   C20       1.0  0.66950  0.18541  0.95126  1.0000
  C   C21       1.0  0.64628  0.75102  0.47959  1.0000
  C   C22       1.0  0.35370  0.74898  0.97960  1.0000
  C   C23       1.0  0.35370  0.24897  0.52040  1.0000
  C   C24       1.0  0.64631  0.25102  0.02040  1.0000
  C   C25       1.0  0.04597  0.67074  0.61748  1.0000
  C   C26       1.0  0.95399  0.82925  0.11750  1.0000
  C   C27       1.0  0.95402  0.32928  0.38250  1.0000
  C   C28       1.0  0.04600  0.17074  0.88250  1.0000
  C   C29       1.0  0.20384  0.71921  0.57816  1.0000
  C   C30       1.0  0.79612  0.78078  0.07816  1.0000
  C   C31       1.0  0.79617  0.28079  0.42183  1.0000
  C   C32       1.0  0.20387  0.21922  0.92184  1.0000
  O   O1        1.0  0.81263  0.47815  0.77786  1.0000
  O   O2        1.0  0.18740  0.02187  0.27785  1.0000
  O   O3        1.0  0.18742  0.52189  0.22216  1.0000
  O   O4        1.0  0.81268  0.97813  0.72216  1.0000
  O   O5        1.0  0.98552  0.53611  0.62020  1.0000
  O   O6        1.0  0.01444  0.96388  0.12020  1.0000
  O   O7        1.0  0.01448  0.46390  0.37979  1.0000
  O   O8        1.0  0.98554  0.03611  0.87980  1.0000
  O   O9        1.0  0.66711  0.55401  0.55115  1.0000
  O   O10       1.0  0.33289  0.94601  0.05115  1.0000
  O   O11       1.0  0.33287  0.44602  0.44885  1.0000
  O   O12       1.0  0.66714  0.05399  0.94885  1.0000
  O   O13       1.0  0.46095  0.47890  0.70068  1.0000
  O   O14       1.0  0.53904  0.02107  0.20066  1.0000
  O   O15       1.0  0.53907  0.52109  0.29935  1.0000
  O   O16       1.0  0.46095  0.97891  0.79933  1.0000
  O   O17       1.0  0.86833  0.72145  0.77776  1.0000
  O   O18       1.0  0.13174  0.77856  0.27777  1.0000
  O   O19       1.0  0.13170  0.27857  0.22224  1.0000
  O   O20       1.0  0.86827  0.22143  0.72223  1.0000
  O   O21       1.0  0.99338  0.77281  0.64003  1.0000
  O   O22       1.0  0.00656  0.72719  0.14006  1.0000
  O   O23       1.0  0.00661  0.22721  0.35995  1.0000
  O   O24       1.0  0.99343  0.27281  0.85995  1.0000
  O   O25       1.0  0.69376  0.77879  0.59553  1.0000
  O   O26       1.0  0.30615  0.72120  0.09552  1.0000
  O   O27       1.0  0.30622  0.22123  0.40447  1.0000
  O   O28       1.0  0.69385  0.27880  0.90448  1.0000
  O   O29       1.0  0.56442  0.71496  0.73047  1.0000
  O   O30       1.0  0.43558  0.78502  0.23045  1.0000
  O   O31       1.0  0.43557  0.28505  0.26954  1.0000
  O   O32       1.0  0.56441  0.21496  0.76955  1.0000
  F   F1        1.0  0.16957  0.71417  0.51125  1.0000
  F   F2        1.0  0.83044  0.78583  0.01125  1.0000
  F   F3        1.0  0.83049  0.28583  0.48874  1.0000
  F   F4        1.0  0.16956  0.21417  0.98875  1.0000
  F   F5        1.0  0.28781  0.85492  0.59319  1.0000
  F   F6        1.0  0.71214  0.64508  0.09317  1.0000
  F   F7        1.0  0.71221  0.14507  0.40681  1.0000
  F   F8        1.0  0.28784  0.35493  0.90682  1.0000
  F   F9        1.0  0.29597  0.62857  0.58987  1.0000
  F   F10       1.0  0.70399  0.87142  0.08985  1.0000
  F   F11       1.0  0.70402  0.37142  0.41014  1.0000
  F   F12       1.0  0.29600  0.12858  0.91015  1.0000
  F   F13       1.0  0.50431  0.78287  0.47563  1.0000
  F   F14       1.0  0.49568  0.71714  0.97566  1.0000
  F   F15       1.0  0.49568  0.21712  0.52434  1.0000
  F   F16       1.0  0.50432  0.28284  0.02433  1.0000
  F   F17       1.0  0.76128  0.87633  0.47027  1.0000
  F   F18       1.0  0.23870  0.62366  0.97028  1.0000
  F   F19       1.0  0.23869  0.12365  0.52970  1.0000
  F   F20       1.0  0.76130  0.37634  0.02973  1.0000
  F   F21       1.0  0.65485  0.66029  0.42899  1.0000
  F   F22       1.0  0.34512  0.83970  0.92899  1.0000
  F   F23       1.0  0.34513  0.33969  0.57101  1.0000
  F   F24       1.0  0.65486  0.16028  0.07101  1.0000
  F   F25       1.0  0.32722  0.62560  0.82876  1.0000
  F   F26       1.0  0.67276  0.87442  0.32876  1.0000
  F   F27       1.0  0.67270  0.37440  0.17124  1.0000
  F   F28       1.0  0.32725  0.12561  0.67124  1.0000
  F   F29       1.0  0.18497  0.47907  0.75430  1.0000
  F   F30       1.0  0.81503  0.02093  0.25430  1.0000
  F   F31       1.0  0.81502  0.52092  0.24569  1.0000
  F   F32       1.0  0.18497  0.97907  0.74569  1.0000
  F   F33       1.0  0.24653  0.71238  0.73733  1.0000
  F   F34       1.0  0.75349  0.78762  0.23734  1.0000
  F   F35       1.0  0.75344  0.28761  0.26268  1.0000
  F   F36       1.0  0.24652  0.21238  0.76267  1.0000
