data_image0
_chemical_formula_structural       La4H24C28N4O24
_chemical_formula_sum              "La4 H24 C28 N4 O24"
_cell_length_a       5.04865
_cell_length_b       7.98268
_cell_length_c       21.6299
_cell_angle_alpha    90.0001
_cell_angle_beta     90.6556
_cell_angle_gamma    90

_space_group_name_H-M_alt    "P 1"
_space_group_IT_number       1

loop_
  _space_group_symop_operation_xyz
  'x, y, z'

loop_
  _atom_site_type_symbol
  _atom_site_label
  _atom_site_symmetry_multiplicity
  _atom_site_fract_x
  _atom_site_fract_y
  _atom_site_fract_z
  _atom_site_occupancy
  La  La1       1.0  0.00077  0.67897  0.78469  1.0000
  La  La2       1.0  0.99923  0.17897  0.71531  1.0000
  La  La3       1.0  0.99923  0.32104  0.21531  1.0000
  La  La4       1.0  0.00077  0.82103  0.28469  1.0000
  H   H1        1.0  0.12066  0.54755  0.53753  1.0000
  H   H2        1.0  0.87935  0.04755  0.96247  1.0000
  H   H3        1.0  0.87934  0.45245  0.46247  1.0000
  H   H4        1.0  0.12066  0.95245  0.03753  1.0000
  H   H5        1.0  0.40854  0.61031  0.62812  1.0000
  H   H6        1.0  0.59146  0.11031  0.87188  1.0000
  H   H7        1.0  0.59146  0.38969  0.37188  1.0000
  H   H8        1.0  0.40855  0.88969  0.12812  1.0000
  H   H9        1.0  0.87754  0.92153  0.50866  1.0000
  H   H10       1.0  0.12247  0.42153  0.99134  1.0000
  H   H11       1.0  0.12247  0.07847  0.49134  1.0000
  H   H12       1.0  0.87753  0.57847  0.00866  1.0000
  H   H13       1.0  0.57711  0.83732  0.42083  1.0000
  H   H14       1.0  0.42290  0.33731  0.07917  1.0000
  H   H15       1.0  0.42290  0.16269  0.57917  1.0000
  H   H16       1.0  0.57710  0.66269  0.92083  1.0000
  H   H17       1.0  0.15382  0.85006  0.91406  1.0000
  H   H18       1.0  0.84619  0.35006  0.58594  1.0000
  H   H19       1.0  0.84618  0.14994  0.08594  1.0000
  H   H20       1.0  0.15382  0.64994  0.41406  1.0000
  H   H21       1.0  0.07555  0.98892  0.86200  1.0000
  H   H22       1.0  0.92445  0.48891  0.63800  1.0000
  H   H23       1.0  0.92445  0.01108  0.13800  1.0000
  H   H24       1.0  0.07555  0.51109  0.36200  1.0000
  C   C1        1.0  0.28991  0.63078  0.53246  1.0000
  C   C2        1.0  0.71009  0.13078  0.96755  1.0000
  C   C3        1.0  0.71009  0.36923  0.46755  1.0000
  C   C4        1.0  0.28992  0.86922  0.03245  1.0000
  C   C5        1.0  0.45167  0.66538  0.58332  1.0000
  C   C6        1.0  0.54832  0.16538  0.91668  1.0000
  C   C7        1.0  0.54832  0.33462  0.41668  1.0000
  C   C8        1.0  0.45168  0.83462  0.08332  1.0000
  C   C9        1.0  0.66669  0.77319  0.57535  1.0000
  C   C10       1.0  0.33331  0.27319  0.92465  1.0000
  C   C11       1.0  0.33331  0.22681  0.42465  1.0000
  C   C12       1.0  0.66670  0.72680  0.07535  1.0000
  C   C13       1.0  0.71213  0.83771  0.51641  1.0000
  C   C14       1.0  0.28786  0.33770  0.98359  1.0000
  C   C15       1.0  0.28786  0.16230  0.48359  1.0000
  C   C16       1.0  0.71214  0.66230  0.01641  1.0000
  C   C17       1.0  0.54489  0.79252  0.46776  1.0000
  C   C18       1.0  0.45511  0.29252  0.03224  1.0000
  C   C19       1.0  0.45511  0.20748  0.53224  1.0000
  C   C20       1.0  0.54489  0.70748  0.96776  1.0000
  C   C21       1.0  0.84277  0.81979  0.62923  1.0000
  C   C22       1.0  0.15723  0.31979  0.87077  1.0000
  C   C23       1.0  0.15723  0.18021  0.37077  1.0000
  C   C24       1.0  0.84277  0.68021  0.12923  1.0000
  C   C25       1.0  0.49626  0.37787  0.72799  1.0000
  C   C26       1.0  0.50374  0.87788  0.77201  1.0000
  C   C27       1.0  0.50374  0.62212  0.27201  1.0000
  C   C28       1.0  0.49626  0.12212  0.22799  1.0000
  N   N1        1.0  0.33445  0.69230  0.47575  1.0000
  N   N2        1.0  0.66555  0.19230  0.02425  1.0000
  N   N3        1.0  0.66555  0.30771  0.52425  1.0000
  N   N4        1.0  0.33445  0.80770  0.97575  1.0000
  O   O1        1.0  0.89065  0.70484  0.66883  1.0000
  O   O2        1.0  0.10935  0.20484  0.83117  1.0000
  O   O3        1.0  0.10934  0.29516  0.33117  1.0000
  O   O4        1.0  0.89065  0.79515  0.16883  1.0000
  O   O5        1.0  0.92757  0.96915  0.63132  1.0000
  O   O6        1.0  0.07243  0.46915  0.86868  1.0000
  O   O7        1.0  0.07243  0.03085  0.36868  1.0000
  O   O8        1.0  0.92757  0.53085  0.13132  1.0000
  O   O9        1.0  0.71927  0.42822  0.75127  1.0000
  O   O10       1.0  0.28072  0.92823  0.74873  1.0000
  O   O11       1.0  0.28073  0.57177  0.24873  1.0000
  O   O12       1.0  0.71927  0.07177  0.25127  1.0000
  O   O13       1.0  0.27363  0.45501  0.73565  1.0000
  O   O14       1.0  0.72636  0.95502  0.76436  1.0000
  O   O15       1.0  0.72637  0.54498  0.26436  1.0000
  O   O16       1.0  0.27363  0.04499  0.23565  1.0000
  O   O17       1.0  0.49340  0.23828  0.69677  1.0000
  O   O18       1.0  0.50659  0.73828  0.80323  1.0000
  O   O19       1.0  0.50659  0.76172  0.30323  1.0000
  O   O20       1.0  0.49340  0.26172  0.19677  1.0000
  O   O21       1.0  0.03586  0.87393  0.87625  1.0000
  O   O22       1.0  0.96414  0.37393  0.62375  1.0000
  O   O23       1.0  0.96414  0.12607  0.12375  1.0000
  O   O24       1.0  0.03586  0.62607  0.37625  1.0000
