data_image0
_chemical_formula_structural       Dy2H36C48N2O14
_chemical_formula_sum              "Dy2 H36 C48 N2 O14"
_cell_length_a       8.69246
_cell_length_b       10.7889
_cell_length_c       12.1103
_cell_angle_alpha    69.8902
_cell_angle_beta     84.3216
_cell_angle_gamma    77.9207

_space_group_name_H-M_alt    "P 1"
_space_group_IT_number       1

loop_
  _space_group_symop_operation_xyz
  'x, y, z'

loop_
  _atom_site_type_symbol
  _atom_site_label
  _atom_site_symmetry_multiplicity
  _atom_site_fract_x
  _atom_site_fract_y
  _atom_site_fract_z
  _atom_site_occupancy
  Dy  Dy1       1.0  0.28430  0.02343  0.55710  1.0000
  Dy  Dy2       1.0  0.71570  0.97657  0.44291  1.0000
  H   H1        1.0  0.77002  0.36280  0.23687  1.0000
  H   H2        1.0  0.22998  0.63720  0.76313  1.0000
  H   H3        1.0  0.00319  0.70142  0.14874  1.0000
  H   H4        1.0  0.99682  0.29857  0.85126  1.0000
  H   H5        1.0  0.14328  0.35201  0.44971  1.0000
  H   H6        1.0  0.85673  0.64798  0.55029  1.0000
  H   H7        1.0  0.03541  0.78596  0.30766  1.0000
  H   H8        1.0  0.96459  0.21404  0.69234  1.0000
  H   H9        1.0  0.22107  0.90317  0.35397  1.0000
  H   H10       1.0  0.77892  0.09684  0.64602  1.0000
  H   H11       1.0  0.59233  0.55955  0.38783  1.0000
  H   H12       1.0  0.40767  0.44046  0.61216  1.0000
  H   H13       1.0  0.40264  0.43764  0.34595  1.0000
  H   H14       1.0  0.59737  0.56237  0.65405  1.0000
  H   H15       1.0  0.00932  0.67014  0.97555  1.0000
  H   H16       1.0  0.99068  0.32985  0.02445  1.0000
  H   H17       1.0  0.88436  0.79836  0.78307  1.0000
  H   H18       1.0  0.11565  0.20164  0.21692  1.0000
  H   H19       1.0  0.44476  0.68410  0.92926  1.0000
  H   H20       1.0  0.55525  0.31590  0.07074  1.0000
  H   H21       1.0  0.56637  0.56031  0.12402  1.0000
  H   H22       1.0  0.43364  0.43968  0.87598  1.0000
  H   H23       1.0  0.09283  0.86755  0.88704  1.0000
  H   H24       1.0  0.90716  0.13246  0.11296  1.0000
  H   H25       1.0  0.45798  0.03341  0.87387  1.0000
  H   H26       1.0  0.54201  0.96659  0.12612  1.0000
  H   H27       1.0  0.32334  0.12973  0.94901  1.0000
  H   H28       1.0  0.67665  0.87027  0.05098  1.0000
  H   H29       1.0  0.29431  0.15172  0.79816  1.0000
  H   H30       1.0  0.70568  0.84829  0.20184  1.0000
  H   H31       1.0  0.17325  0.81448  0.06149  1.0000
  H   H32       1.0  0.82675  0.18552  0.93850  1.0000
  H   H33       1.0  0.20215  0.95194  0.10214  1.0000
  H   H34       1.0  0.79785  0.04805  0.89786  1.0000
  H   H35       1.0  0.36707  0.84019  0.06811  1.0000
  H   H36       1.0  0.63293  0.15982  0.93188  1.0000
  C   C1        1.0  0.93861  0.20592  0.42523  1.0000
  C   C2        1.0  0.06140  0.79407  0.57476  1.0000
  C   C3        1.0  0.95273  0.34669  0.35104  1.0000
  C   C4        1.0  0.04727  0.65331  0.64896  1.0000
  C   C5        1.0  0.85604  0.41401  0.25408  1.0000
  C   C6        1.0  0.14396  0.58599  0.74592  1.0000
  C   C7        1.0  0.87738  0.54064  0.17749  1.0000
  C   C8        1.0  0.12263  0.45935  0.82251  1.0000
  C   C9        1.0  0.99034  0.60051  0.20496  1.0000
  C   C10       1.0  0.00967  0.39948  0.79504  1.0000
  C   C11       1.0  0.08768  0.53479  0.30137  1.0000
  C   C12       1.0  0.91233  0.46520  0.69863  1.0000
  C   C13       1.0  0.06903  0.40591  0.37411  1.0000
  C   C14       1.0  0.93098  0.59408  0.62590  1.0000
  C   C15       1.0  0.20544  0.60322  0.32450  1.0000
  C   C16       1.0  0.79456  0.39678  0.67551  1.0000
  C   C17       1.0  0.15758  0.73602  0.32371  1.0000
  C   C18       1.0  0.84241  0.26398  0.67629  1.0000
  C   C19       1.0  0.26206  0.80196  0.35067  1.0000
  C   C20       1.0  0.73793  0.19804  0.64933  1.0000
  C   C21       1.0  0.41817  0.73770  0.37682  1.0000
  C   C22       1.0  0.58183  0.26231  0.62318  1.0000
  C   C23       1.0  0.46977  0.60792  0.37042  1.0000
  C   C24       1.0  0.53023  0.39209  0.62959  1.0000
  C   C25       1.0  0.36359  0.54031  0.34665  1.0000
  C   C26       1.0  0.63642  0.45970  0.65336  1.0000
  C   C27       1.0  0.52411  0.80548  0.41546  1.0000
  C   C28       1.0  0.47588  0.19453  0.58454  1.0000
  C   C29       1.0  0.79638  0.60928  0.06475  1.0000
  C   C30       1.0  0.20363  0.39072  0.93524  1.0000
  C   C31       1.0  0.88389  0.67716  0.96668  1.0000
  C   C32       1.0  0.11612  0.32284  0.03332  1.0000
  C   C33       1.0  0.81543  0.74733  0.85872  1.0000
  C   C34       1.0  0.18458  0.25266  0.14128  1.0000
  C   C35       1.0  0.65633  0.75138  0.84409  1.0000
  C   C36       1.0  0.34367  0.24862  0.15591  1.0000
  C   C37       1.0  0.56822  0.68235  0.94057  1.0000
  C   C38       1.0  0.43179  0.31764  0.05943  1.0000
  C   C39       1.0  0.63729  0.61154  0.04942  1.0000
  C   C40       1.0  0.36272  0.38845  0.95058  1.0000
  C   C41       1.0  0.58916  0.82770  0.72452  1.0000
  C   C42       1.0  0.41084  0.17230  0.27548  1.0000
  C   C43       1.0  0.15650  0.95173  0.84602  1.0000
  C   C44       1.0  0.84348  0.04827  0.15397  1.0000
  C   C45       1.0  0.33401  0.07913  0.88332  1.0000
  C   C46       1.0  0.66598  0.92088  0.11667  1.0000
  C   C47       1.0  0.24549  0.89121  0.04506  1.0000
  C   C48       1.0  0.75450  0.10879  0.95494  1.0000
  N   N1        1.0  0.23833  0.97524  0.92213  1.0000
  N   N2        1.0  0.76166  0.02477  0.07787  1.0000
  O   O1        1.0  0.04038  0.13863  0.50232  1.0000
  O   O2        1.0  0.95962  0.86137  0.49768  1.0000
  O   O3        1.0  0.82339  0.16131  0.40598  1.0000
  O   O4        1.0  0.17663  0.83868  0.59402  1.0000
  O   O5        1.0  0.67282  0.77566  0.40488  1.0000
  O   O6        1.0  0.32717  0.22436  0.59511  1.0000
  O   O7        1.0  0.46218  0.89994  0.45800  1.0000
  O   O8        1.0  0.53781  0.10007  0.54201  1.0000
  O   O9        1.0  0.68907  0.84679  0.63896  1.0000
  O   O10       1.0  0.31092  0.15321  0.36104  1.0000
  O   O11       1.0  0.44096  0.86871  0.71699  1.0000
  O   O12       1.0  0.55903  0.13130  0.28302  1.0000
  O   O13       1.0  0.14633  0.01762  0.73894  1.0000
  O   O14       1.0  0.85366  0.98238  0.26106  1.0000
