data_image0
_chemical_formula_structural       Tb2H36C48N2O14
_chemical_formula_sum              "Tb2 H36 C48 N2 O14"
_cell_length_a       8.72142
_cell_length_b       10.7989
_cell_length_c       12.0993
_cell_angle_alpha    70.1046
_cell_angle_beta     84.3369
_cell_angle_gamma    77.8255

_space_group_name_H-M_alt    "P 1"
_space_group_IT_number       1

loop_
  _space_group_symop_operation_xyz
  'x, y, z'

loop_
  _atom_site_type_symbol
  _atom_site_label
  _atom_site_symmetry_multiplicity
  _atom_site_fract_x
  _atom_site_fract_y
  _atom_site_fract_z
  _atom_site_occupancy
  Tb  Tb1       1.0  0.28407  0.02319  0.55758  1.0000
  Tb  Tb2       1.0  0.71593  0.97680  0.44242  1.0000
  H   H1        1.0  0.77024  0.36358  0.23692  1.0000
  H   H2        1.0  0.22976  0.63642  0.76307  1.0000
  H   H3        1.0  0.00305  0.70106  0.14897  1.0000
  H   H4        1.0  0.99695  0.29894  0.85102  1.0000
  H   H5        1.0  0.14315  0.35227  0.44902  1.0000
  H   H6        1.0  0.85685  0.64773  0.55097  1.0000
  H   H7        1.0  0.03584  0.78599  0.30752  1.0000
  H   H8        1.0  0.96415  0.21400  0.69249  1.0000
  H   H9        1.0  0.22132  0.90249  0.35418  1.0000
  H   H10       1.0  0.77868  0.09750  0.64583  1.0000
  H   H11       1.0  0.59110  0.55845  0.38731  1.0000
  H   H12       1.0  0.40891  0.44156  0.61269  1.0000
  H   H13       1.0  0.40153  0.43695  0.34623  1.0000
  H   H14       1.0  0.59848  0.56305  0.65377  1.0000
  H   H15       1.0  0.00852  0.66922  0.97563  1.0000
  H   H16       1.0  0.99149  0.33077  0.02437  1.0000
  H   H17       1.0  0.88398  0.79709  0.78332  1.0000
  H   H18       1.0  0.11602  0.20291  0.21668  1.0000
  H   H19       1.0  0.44548  0.68432  0.92939  1.0000
  H   H20       1.0  0.55451  0.31570  0.07061  1.0000
  H   H21       1.0  0.56677  0.56071  0.12391  1.0000
  H   H22       1.0  0.43322  0.43930  0.87609  1.0000
  H   H23       1.0  0.09203  0.86814  0.88758  1.0000
  H   H24       1.0  0.90796  0.13185  0.11243  1.0000
  H   H25       1.0  0.45797  0.03194  0.87608  1.0000
  H   H26       1.0  0.54203  0.96805  0.12392  1.0000
  H   H27       1.0  0.32218  0.12920  0.94995  1.0000
  H   H28       1.0  0.67782  0.87080  0.05004  1.0000
  H   H29       1.0  0.29554  0.14973  0.79910  1.0000
  H   H30       1.0  0.70446  0.85027  0.20089  1.0000
  H   H31       1.0  0.17252  0.81472  0.06174  1.0000
  H   H32       1.0  0.82749  0.18528  0.93826  1.0000
  H   H33       1.0  0.20209  0.95170  0.10275  1.0000
  H   H34       1.0  0.79792  0.04830  0.89725  1.0000
  H   H35       1.0  0.36614  0.83895  0.06897  1.0000
  H   H36       1.0  0.63386  0.16105  0.93103  1.0000
  C   C1        1.0  0.93850  0.20713  0.42433  1.0000
  C   C2        1.0  0.06150  0.79287  0.57567  1.0000
  C   C3        1.0  0.95224  0.34779  0.35089  1.0000
  C   C4        1.0  0.04777  0.65222  0.64911  1.0000
  C   C5        1.0  0.85563  0.41500  0.25411  1.0000
  C   C6        1.0  0.14437  0.58500  0.74589  1.0000
  C   C7        1.0  0.87698  0.54108  0.17757  1.0000
  C   C8        1.0  0.12302  0.45892  0.82243  1.0000
  C   C9        1.0  0.99003  0.60047  0.20509  1.0000
  C   C10       1.0  0.00998  0.39953  0.79490  1.0000
  C   C11       1.0  0.08734  0.53485  0.30132  1.0000
  C   C12       1.0  0.91267  0.46515  0.69867  1.0000
  C   C13       1.0  0.06857  0.40651  0.37391  1.0000
  C   C14       1.0  0.93144  0.59349  0.62609  1.0000
  C   C15       1.0  0.20501  0.60297  0.32446  1.0000
  C   C16       1.0  0.79500  0.39703  0.67553  1.0000
  C   C17       1.0  0.15757  0.73572  0.32375  1.0000
  C   C18       1.0  0.84244  0.26428  0.67625  1.0000
  C   C19       1.0  0.26205  0.80131  0.35079  1.0000
  C   C20       1.0  0.73796  0.19868  0.64921  1.0000
  C   C21       1.0  0.41778  0.73691  0.37666  1.0000
  C   C22       1.0  0.58222  0.26309  0.62334  1.0000
  C   C23       1.0  0.46888  0.60706  0.37038  1.0000
  C   C24       1.0  0.53113  0.39295  0.62961  1.0000
  C   C25       1.0  0.36265  0.53967  0.34686  1.0000
  C   C26       1.0  0.63735  0.46033  0.65314  1.0000
  C   C27       1.0  0.52380  0.80500  0.41464  1.0000
  C   C28       1.0  0.47621  0.19500  0.58537  1.0000
  C   C29       1.0  0.79618  0.60938  0.06489  1.0000
  C   C30       1.0  0.20382  0.39063  0.93511  1.0000
  C   C31       1.0  0.88341  0.67663  0.96680  1.0000
  C   C32       1.0  0.11659  0.32337  0.03320  1.0000
  C   C33       1.0  0.81517  0.74657  0.85889  1.0000
  C   C34       1.0  0.18483  0.25343  0.14111  1.0000
  C   C35       1.0  0.65644  0.75096  0.84424  1.0000
  C   C36       1.0  0.34356  0.24904  0.15576  1.0000
  C   C37       1.0  0.56865  0.68234  0.94065  1.0000
  C   C38       1.0  0.43135  0.31767  0.05935  1.0000
  C   C39       1.0  0.63754  0.61174  0.04946  1.0000
  C   C40       1.0  0.36245  0.38827  0.95054  1.0000
  C   C41       1.0  0.58926  0.82740  0.72486  1.0000
  C   C42       1.0  0.41075  0.17260  0.27514  1.0000
  C   C43       1.0  0.15598  0.95174  0.84681  1.0000
  C   C44       1.0  0.84400  0.04825  0.15320  1.0000
  C   C45       1.0  0.33410  0.07777  0.88459  1.0000
  C   C46       1.0  0.66589  0.92222  0.11541  1.0000
  C   C47       1.0  0.24518  0.89069  0.04570  1.0000
  C   C48       1.0  0.75483  0.10931  0.95430  1.0000
  N   N1        1.0  0.23864  0.97435  0.92287  1.0000
  N   N2        1.0  0.76136  0.02565  0.07713  1.0000
  O   O1        1.0  0.04054  0.13954  0.50087  1.0000
  O   O2        1.0  0.95946  0.86046  0.49913  1.0000
  O   O3        1.0  0.82351  0.16291  0.40493  1.0000
  O   O4        1.0  0.17649  0.83709  0.59508  1.0000
  O   O5        1.0  0.67194  0.77557  0.40302  1.0000
  O   O6        1.0  0.32806  0.22442  0.59699  1.0000
  O   O7        1.0  0.46210  0.89917  0.45772  1.0000
  O   O8        1.0  0.53790  0.10082  0.54229  1.0000
  O   O9        1.0  0.68863  0.84720  0.63925  1.0000
  O   O10       1.0  0.31138  0.15281  0.36076  1.0000
  O   O11       1.0  0.44138  0.86781  0.71758  1.0000
  O   O12       1.0  0.55862  0.13220  0.28241  1.0000
  O   O13       1.0  0.14523  0.01791  0.73993  1.0000
  O   O14       1.0  0.85475  0.98209  0.26007  1.0000
