data_image0
_chemical_formula_structural       Cd2H32C24N12O12
_chemical_formula_sum              "Cd2 H32 C24 N12 O12"
_cell_length_a       8.31711
_cell_length_b       9.26956
_cell_length_c       11.3923
_cell_angle_alpha    89.9998
_cell_angle_beta     90.0001
_cell_angle_gamma    114.465

_space_group_name_H-M_alt    "P 1"
_space_group_IT_number       1

loop_
  _space_group_symop_operation_xyz
  'x, y, z'

loop_
  _atom_site_type_symbol
  _atom_site_label
  _atom_site_symmetry_multiplicity
  _atom_site_fract_x
  _atom_site_fract_y
  _atom_site_fract_z
  _atom_site_occupancy
  Cd  Cd1       1.0  0.50000  0.50000  0.00000  1.0000
  Cd  Cd2       1.0  0.00000  0.50000  0.50000  1.0000
  H   H1        1.0  0.59903  0.65845  0.28110  1.0000
  H   H2        1.0  0.90097  0.34156  0.78109  1.0000
  H   H3        1.0  0.40097  0.34156  0.71890  1.0000
  H   H4        1.0  0.09903  0.65845  0.21890  1.0000
  H   H5        1.0  0.54700  0.06731  0.15732  1.0000
  H   H6        1.0  0.95299  0.93268  0.65732  1.0000
  H   H7        1.0  0.45300  0.93268  0.84268  1.0000
  H   H8        1.0  0.04700  0.06732  0.34268  1.0000
  H   H9        1.0  0.77080  0.65575  0.83529  1.0000
  H   H10       1.0  0.72920  0.34425  0.33529  1.0000
  H   H11       1.0  0.22920  0.34425  0.16471  1.0000
  H   H12       1.0  0.27080  0.65575  0.66471  1.0000
  H   H13       1.0  0.36880  0.84163  0.44795  1.0000
  H   H14       1.0  0.13120  0.15837  0.94795  1.0000
  H   H15       1.0  0.63120  0.15837  0.55205  1.0000
  H   H16       1.0  0.86880  0.84163  0.05204  1.0000
  H   H17       1.0  0.42139  0.03173  0.38631  1.0000
  H   H18       1.0  0.07861  0.96828  0.88631  1.0000
  H   H19       1.0  0.57860  0.96827  0.61369  1.0000
  H   H20       1.0  0.92139  0.03173  0.11369  1.0000
  H   H21       1.0  0.73827  0.07573  0.36825  1.0000
  H   H22       1.0  0.76172  0.92427  0.86825  1.0000
  H   H23       1.0  0.26172  0.92427  0.63175  1.0000
  H   H24       1.0  0.23828  0.07573  0.13175  1.0000
  H   H25       1.0  0.68716  0.88344  0.42580  1.0000
  H   H26       1.0  0.81284  0.11656  0.92580  1.0000
  H   H27       1.0  0.31285  0.11657  0.57420  1.0000
  H   H28       1.0  0.18716  0.88344  0.07419  1.0000
  H   H29       1.0  0.59226  0.65460  0.77543  1.0000
  H   H30       1.0  0.90774  0.34540  0.27543  1.0000
  H   H31       1.0  0.40774  0.34541  0.22458  1.0000
  H   H32       1.0  0.09226  0.65459  0.72457  1.0000
  C   C1        1.0  0.57124  0.74005  0.22534  1.0000
  C   C2        1.0  0.92876  0.25995  0.72534  1.0000
  C   C3        1.0  0.42876  0.25995  0.77466  1.0000
  C   C4        1.0  0.07124  0.74005  0.27466  1.0000
  C   C5        1.0  0.54438  0.94935  0.16170  1.0000
  C   C6        1.0  0.95561  0.05065  0.66170  1.0000
  C   C7        1.0  0.45562  0.05065  0.83830  1.0000
  C   C8        1.0  0.04438  0.94935  0.33830  1.0000
  C   C9        1.0  0.88776  0.50274  0.04041  1.0000
  C   C10       1.0  0.61225  0.49726  0.54041  1.0000
  C   C11       1.0  0.11224  0.49725  0.95959  1.0000
  C   C12       1.0  0.38775  0.50275  0.45959  1.0000
  C   C13       1.0  0.98286  0.56245  0.92850  1.0000
  C   C14       1.0  0.51714  0.43755  0.42850  1.0000
  C   C15       1.0  0.01714  0.43754  0.07150  1.0000
  C   C16       1.0  0.48286  0.56246  0.57151  1.0000
  C   C17       1.0  0.47404  0.96185  0.43950  1.0000
  C   C18       1.0  0.02596  0.03815  0.93949  1.0000
  C   C19       1.0  0.52596  0.03815  0.56050  1.0000
  C   C20       1.0  0.97404  0.96186  0.06050  1.0000
  C   C21       1.0  0.63334  0.95550  0.37692  1.0000
  C   C22       1.0  0.86666  0.04450  0.87692  1.0000
  C   C23       1.0  0.36667  0.04450  0.62308  1.0000
  C   C24       1.0  0.13334  0.95551  0.12308  1.0000
  N   N1        1.0  0.58772  0.88597  0.25921  1.0000
  N   N2        1.0  0.91228  0.11403  0.75921  1.0000
  N   N3        1.0  0.41228  0.11403  0.74079  1.0000
  N   N4        1.0  0.08772  0.88597  0.24078  1.0000
  N   N5        1.0  0.52013  0.71552  0.11442  1.0000
  N   N6        1.0  0.97986  0.28448  0.61442  1.0000
  N   N7        1.0  0.47987  0.28448  0.88558  1.0000
  N   N8        1.0  0.02013  0.71552  0.38558  1.0000
  N   N9        1.0  0.50262  0.84800  0.07323  1.0000
  N   N10       1.0  0.99737  0.15200  0.57322  1.0000
  N   N11       1.0  0.49737  0.15200  0.92677  1.0000
  N   N12       1.0  0.00262  0.84800  0.42677  1.0000
  O   O1        1.0  0.66036  0.67106  0.85052  1.0000
  O   O2        1.0  0.83964  0.32894  0.35051  1.0000
  O   O3        1.0  0.33965  0.32894  0.14949  1.0000
  O   O4        1.0  0.16035  0.67106  0.64949  1.0000
  O   O5        1.0  0.75586  0.50593  0.09242  1.0000
  O   O6        1.0  0.74414  0.49408  0.59242  1.0000
  O   O7        1.0  0.24414  0.49406  0.90758  1.0000
  O   O8        1.0  0.25586  0.50593  0.40758  1.0000
  O   O9        1.0  0.96380  0.63750  0.84071  1.0000
  O   O10       1.0  0.53620  0.36250  0.34071  1.0000
  O   O11       1.0  0.03620  0.36250  0.15929  1.0000
  O   O12       1.0  0.46380  0.63750  0.65929  1.0000
