data_image0
_chemical_formula_structural       Hg2H12C14S2N2Cl2O4
_chemical_formula_sum              "Hg2 H12 C14 S2 N2 Cl2 O4"
_cell_length_a       7.49698
_cell_length_b       8.48152
_cell_length_c       8.49114
_cell_angle_alpha    68.2516
_cell_angle_beta     75.1966
_cell_angle_gamma    71.5172

_space_group_name_H-M_alt    "P 1"
_space_group_IT_number       1

loop_
  _space_group_symop_operation_xyz
  'x, y, z'

loop_
  _atom_site_type_symbol
  _atom_site_label
  _atom_site_symmetry_multiplicity
  _atom_site_fract_x
  _atom_site_fract_y
  _atom_site_fract_z
  _atom_site_occupancy
  Hg  Hg1       1.0  0.06848  0.22341  0.02618  1.0000
  Hg  Hg2       1.0  0.93152  0.77658  0.97382  1.0000
  H   H1        1.0  0.68934  0.87676  0.30052  1.0000
  H   H2        1.0  0.31066  0.12324  0.69949  1.0000
  H   H3        1.0  0.41586  0.91704  0.16831  1.0000
  H   H4        1.0  0.58414  0.08296  0.83170  1.0000
  H   H5        1.0  0.21104  0.43815  0.15560  1.0000
  H   H6        1.0  0.78897  0.56185  0.84440  1.0000
  H   H7        1.0  0.47198  0.42058  0.29242  1.0000
  H   H8        1.0  0.52802  0.57942  0.70758  1.0000
  H   H9        1.0  0.62353  0.32848  0.52866  1.0000
  H   H10       1.0  0.37647  0.67152  0.47134  1.0000
  H   H11       1.0  0.87257  0.28292  0.52423  1.0000
  H   H12       1.0  0.12743  0.71709  0.47577  1.0000
  C   C1        1.0  0.58968  0.00517  0.26875  1.0000
  C   C2        1.0  0.41032  0.99483  0.73126  1.0000
  C   C3        1.0  0.43597  0.02577  0.19508  1.0000
  C   C4        1.0  0.56403  0.97423  0.80492  1.0000
  C   C5        1.0  0.32088  0.31709  0.18970  1.0000
  C   C6        1.0  0.67912  0.68291  0.81030  1.0000
  C   C7        1.0  0.46936  0.30555  0.26573  1.0000
  C   C8        1.0  0.53064  0.69446  0.73427  1.0000
  C   C9        1.0  0.60979  0.14733  0.30428  1.0000
  C   C10       1.0  0.39021  0.85267  0.69572  1.0000
  C   C11       1.0  0.76287  0.31063  0.44606  1.0000
  C   C12       1.0  0.23712  0.68938  0.55394  1.0000
  C   C13       1.0  0.77419  0.48086  0.29714  1.0000
  C   C14       1.0  0.22581  0.51914  0.70285  1.0000
  S   S1        1.0  0.81048  0.11397  0.39089  1.0000
  S   S2        1.0  0.18952  0.88604  0.60911  1.0000
  N   N1        1.0  0.30460  0.18036  0.15398  1.0000
  N   N2        1.0  0.69540  0.81964  0.84602  1.0000
  Cl  Cl1       1.0  0.85622  0.21528  0.86637  1.0000
  Cl  Cl2       1.0  0.14378  0.78472  0.13363  1.0000
  O   O1        1.0  0.88564  0.47127  0.15714  1.0000
  O   O2        1.0  0.11437  0.52872  0.84286  1.0000
  O   O3        1.0  0.67535  0.62035  0.32574  1.0000
  O   O4        1.0  0.32465  0.37965  0.67426  1.0000
