data_image0
_chemical_formula_structural       Cd2P4H24C20N4O12
_chemical_formula_sum              "Cd2 P4 H24 C20 N4 O12"
_cell_length_a       7.79695
_cell_length_b       9.2462
_cell_length_c       10.9284
_cell_angle_alpha    111.498
_cell_angle_beta     92.8456
_cell_angle_gamma    106.257

_space_group_name_H-M_alt    "P 1"
_space_group_IT_number       1

loop_
  _space_group_symop_operation_xyz
  'x, y, z'

loop_
  _atom_site_type_symbol
  _atom_site_label
  _atom_site_symmetry_multiplicity
  _atom_site_fract_x
  _atom_site_fract_y
  _atom_site_fract_z
  _atom_site_occupancy
  Cd  Cd1       1.0  0.17264  0.45788  0.31761  1.0000
  Cd  Cd2       1.0  0.82736  0.54212  0.68239  1.0000
  P   P1        1.0  0.00831  0.76363  0.51266  1.0000
  P   P2        1.0  0.99169  0.23637  0.48734  1.0000
  P   P3        1.0  0.55146  0.34713  0.35975  1.0000
  P   P4        1.0  0.44854  0.65287  0.64025  1.0000
  H   H1        1.0  0.14712  0.90118  0.51537  1.0000
  H   H2        1.0  0.85289  0.09882  0.48463  1.0000
  H   H3        1.0  0.60862  0.49944  0.34827  1.0000
  H   H4        1.0  0.39138  0.50056  0.65173  1.0000
  H   H5        1.0  0.75557  0.78804  0.58071  1.0000
  H   H6        1.0  0.24443  0.21196  0.41929  1.0000
  H   H7        1.0  0.76358  0.24404  0.29363  1.0000
  H   H8        1.0  0.23643  0.75596  0.70637  1.0000
  H   H9        1.0  0.87816  0.11716  0.10841  1.0000
  H   H10       1.0  0.12184  0.88284  0.89160  1.0000
  H   H11       1.0  0.76057  0.96182  0.86014  1.0000
  H   H12       1.0  0.23942  0.03818  0.13986  1.0000
  H   H13       1.0  0.89021  0.09234  0.70723  1.0000
  H   H14       1.0  0.10979  0.90767  0.29277  1.0000
  H   H15       1.0  0.12944  0.36167  0.79983  1.0000
  H   H16       1.0  0.87056  0.63833  0.20018  1.0000
  H   H17       1.0  0.31104  0.58919  0.88687  1.0000
  H   H18       1.0  0.68895  0.41081  0.11313  1.0000
  H   H19       1.0  0.56010  0.84909  0.99920  1.0000
  H   H20       1.0  0.43989  0.15091  0.00080  1.0000
  H   H21       1.0  0.67373  0.94819  0.24620  1.0000
  H   H22       1.0  0.32626  0.05181  0.75380  1.0000
  H   H23       1.0  0.52078  0.77564  0.36737  1.0000
  H   H24       1.0  0.47922  0.22436  0.63263  1.0000
  C   C1        1.0  0.93010  0.16664  0.03630  1.0000
  C   C2        1.0  0.06991  0.83336  0.96370  1.0000
  C   C3        1.0  0.86457  0.08191  0.89998  1.0000
  C   C4        1.0  0.13543  0.91809  0.10002  1.0000
  C   C5        1.0  0.93762  0.15432  0.81459  1.0000
  C   C6        1.0  0.06238  0.84568  0.18541  1.0000
  C   C7        1.0  0.07383  0.30584  0.86727  1.0000
  C   C8        1.0  0.92617  0.69416  0.13273  1.0000
  C   C9        1.0  0.13428  0.38297  0.00530  1.0000
  C   C10       1.0  0.86572  0.61703  0.99470  1.0000
  C   C11       1.0  0.28303  0.54248  0.06718  1.0000
  C   C12       1.0  0.71697  0.45752  0.93282  1.0000
  C   C13       1.0  0.36096  0.63119  0.99274  1.0000
  C   C14       1.0  0.63904  0.36882  0.00726  1.0000
  C   C15       1.0  0.50179  0.77854  0.05659  1.0000
  C   C16       1.0  0.49821  0.22147  0.94341  1.0000
  C   C17       1.0  0.56384  0.83382  0.19280  1.0000
  C   C18       1.0  0.43615  0.16618  0.80720  1.0000
  C   C19       1.0  0.47940  0.73988  0.26082  1.0000
  C   C20       1.0  0.52060  0.26012  0.73918  1.0000
  N   N1        1.0  0.06032  0.31312  0.08758  1.0000
  N   N2        1.0  0.93968  0.68688  0.91242  1.0000
  N   N3        1.0  0.34241  0.59893  0.19944  1.0000
  N   N4        1.0  0.65759  0.40107  0.80056  1.0000
  O   O1        1.0  0.98736  0.61794  0.38364  1.0000
  O   O2        1.0  0.01265  0.38206  0.61636  1.0000
  O   O3        1.0  0.83346  0.82082  0.51615  1.0000
  O   O4        1.0  0.16654  0.17918  0.48385  1.0000
  O   O5        1.0  0.04775  0.74323  0.64377  1.0000
  O   O6        1.0  0.95225  0.25677  0.35623  1.0000
  O   O7        1.0  0.34497  0.27543  0.31704  1.0000
  O   O8        1.0  0.65503  0.72456  0.68296  1.0000
  O   O9        1.0  0.62079  0.36492  0.49808  1.0000
  O   O10       1.0  0.37921  0.63507  0.50192  1.0000
  O   O11       1.0  0.63819  0.23371  0.25104  1.0000
  O   O12       1.0  0.36182  0.76629  0.74896  1.0000
