data_image0
_chemical_formula_structural       Cd2H16C16S4N12
_chemical_formula_sum              "Cd2 H16 C16 S4 N12"
_cell_length_a       5.53005
_cell_length_b       6.93341
_cell_length_c       16.2173
_cell_angle_alpha    89.9995
_cell_angle_beta     94.3766
_cell_angle_gamma    90

_space_group_name_H-M_alt    "P 1"
_space_group_IT_number       1

loop_
  _space_group_symop_operation_xyz
  'x, y, z'

loop_
  _atom_site_type_symbol
  _atom_site_label
  _atom_site_symmetry_multiplicity
  _atom_site_fract_x
  _atom_site_fract_y
  _atom_site_fract_z
  _atom_site_occupancy
  Cd  Cd1       1.0  0.00002  0.00000  1.00000  1.0000
  Cd  Cd2       1.0  0.99999  0.50001  0.50000  1.0000
  H   H1        1.0  0.52537  0.23153  0.86828  1.0000
  H   H2        1.0  0.47463  0.73152  0.63172  1.0000
  H   H3        1.0  0.47464  0.76848  0.13171  1.0000
  H   H4        1.0  0.52536  0.26847  0.36829  1.0000
  H   H5        1.0  0.49126  0.17318  0.69891  1.0000
  H   H6        1.0  0.50872  0.67318  0.80109  1.0000
  H   H7        1.0  0.50872  0.82681  0.30108  1.0000
  H   H8        1.0  0.49128  0.32681  0.19891  1.0000
  H   H9        1.0  0.91021  0.97284  0.67190  1.0000
  H   H10       1.0  0.08977  0.47284  0.82810  1.0000
  H   H11       1.0  0.08977  0.02714  0.32810  1.0000
  H   H12       1.0  0.91023  0.52715  0.17190  1.0000
  H   H13       1.0  0.12616  0.92641  0.81824  1.0000
  H   H14       1.0  0.87383  0.42641  0.68176  1.0000
  H   H15       1.0  0.87383  0.07359  0.18175  1.0000
  H   H16       1.0  0.12617  0.57359  0.31825  1.0000
  C   C1        1.0  0.50461  0.23131  0.04297  1.0000
  C   C2        1.0  0.49540  0.73131  0.45703  1.0000
  C   C3        1.0  0.49542  0.76871  0.95703  1.0000
  C   C4        1.0  0.50461  0.26870  0.54297  1.0000
  C   C5        1.0  0.64979  0.15850  0.83011  1.0000
  C   C6        1.0  0.35020  0.65850  0.66989  1.0000
  C   C7        1.0  0.35021  0.84149  0.16989  1.0000
  C   C8        1.0  0.64980  0.34149  0.33011  1.0000
  C   C9        1.0  0.63455  0.12835  0.74406  1.0000
  C   C10       1.0  0.36543  0.62835  0.75594  1.0000
  C   C11       1.0  0.36543  0.87164  0.25594  1.0000
  C   C12       1.0  0.63457  0.37164  0.24406  1.0000
  C   C13       1.0  0.84360  0.02621  0.72888  1.0000
  C   C14       1.0  0.15639  0.52621  0.77112  1.0000
  C   C15       1.0  0.15639  0.97378  0.27111  1.0000
  C   C16       1.0  0.84361  0.47378  0.22889  1.0000
  S   S1        1.0  0.24976  0.34088  0.01792  1.0000
  S   S2        1.0  0.75025  0.84088  0.48209  1.0000
  S   S3        1.0  0.75028  0.65913  0.98208  1.0000
  S   S4        1.0  0.24974  0.15914  0.51792  1.0000
  N   N1        1.0  0.96918  0.00098  0.80297  1.0000
  N   N2        1.0  0.03081  0.50097  0.69703  1.0000
  N   N3        1.0  0.03082  0.99903  0.19703  1.0000
  N   N4        1.0  0.96918  0.49903  0.30297  1.0000
  N   N5        1.0  0.85437  0.08011  0.86526  1.0000
  N   N6        1.0  0.14563  0.58011  0.63474  1.0000
  N   N7        1.0  0.14564  0.91989  0.13473  1.0000
  N   N8        1.0  0.85437  0.41989  0.36527  1.0000
  N   N9        1.0  0.68834  0.15038  0.06393  1.0000
  N   N10       1.0  0.31168  0.65039  0.43607  1.0000
  N   N11       1.0  0.31168  0.84964  0.93606  1.0000
  N   N12       1.0  0.68833  0.34964  0.56394  1.0000
