data_image0
_chemical_formula_structural       Cd2H16C12N8Cl4
_chemical_formula_sum              "Cd2 H16 C12 N8 Cl4"
_cell_length_a       3.88451
_cell_length_b       9.29516
_cell_length_c       13.7308
_cell_angle_alpha    96.13
_cell_angle_beta     89.9755
_cell_angle_gamma    101.973

_space_group_name_H-M_alt    "P 1"
_space_group_IT_number       1

loop_
  _space_group_symop_operation_xyz
  'x, y, z'

loop_
  _atom_site_type_symbol
  _atom_site_label
  _atom_site_symmetry_multiplicity
  _atom_site_fract_x
  _atom_site_fract_y
  _atom_site_fract_z
  _atom_site_occupancy
  Cd  Cd1       1.0  0.96740  0.99980  0.74998  1.0000
  Cd  Cd2       1.0  0.03261  0.00020  0.25001  1.0000
  H   H1        1.0  0.20488  0.87907  0.94919  1.0000
  H   H2        1.0  0.32462  0.12134  0.55069  1.0000
  H   H3        1.0  0.79514  0.12093  0.05081  1.0000
  H   H4        1.0  0.67538  0.87866  0.44931  1.0000
  H   H5        1.0  0.99634  0.64265  0.02705  1.0000
  H   H6        1.0  0.35305  0.35861  0.47378  1.0000
  H   H7        1.0  0.00366  0.35735  0.97295  1.0000
  H   H8        1.0  0.64696  0.64140  0.52623  1.0000
  H   H9        1.0  0.53468  0.45786  0.88971  1.0000
  H   H10       1.0  0.07649  0.54309  0.61185  1.0000
  H   H11       1.0  0.46531  0.54214  0.11029  1.0000
  H   H12       1.0  0.92350  0.45691  0.38815  1.0000
  H   H13       1.0  0.52678  0.63127  0.73839  1.0000
  H   H14       1.0  0.89459  0.36853  0.76249  1.0000
  H   H15       1.0  0.47323  0.36873  0.26161  1.0000
  H   H16       1.0  0.10540  0.63147  0.23751  1.0000
  C   C1        1.0  0.90747  0.65956  0.95526  1.0000
  C   C2        1.0  0.24716  0.34127  0.54550  1.0000
  C   C3        1.0  0.09252  0.34045  0.04474  1.0000
  C   C4        1.0  0.75285  0.65873  0.45450  1.0000
  C   C5        1.0  0.67872  0.56988  0.88503  1.0000
  C   C6        1.0  0.10817  0.43078  0.61603  1.0000
  C   C7        1.0  0.32127  0.43012  0.11496  1.0000
  C   C8        1.0  0.89184  0.56922  0.38397  1.0000
  C   C9        1.0  0.67431  0.65658  0.80726  1.0000
  C   C10       1.0  0.01698  0.34357  0.69352  1.0000
  C   C11       1.0  0.32569  0.34343  0.19274  1.0000
  C   C12       1.0  0.98302  0.65642  0.30648  1.0000
  N   N1        1.0  0.88664  0.78982  0.82872  1.0000
  N   N2        1.0  0.09564  0.21015  0.67157  1.0000
  N   N3        1.0  0.11337  0.21018  0.17128  1.0000
  N   N4        1.0  0.90436  0.78984  0.32843  1.0000
  N   N5        1.0  0.02393  0.78942  0.91873  1.0000
  N   N6        1.0  0.23335  0.21097  0.58154  1.0000
  N   N7        1.0  0.97608  0.21058  0.08128  1.0000
  N   N8        1.0  0.76665  0.78903  0.41846  1.0000
  Cl  Cl1       1.0  0.41945  0.89144  0.62559  1.0000
  Cl  Cl2       1.0  0.52657  0.10813  0.87434  1.0000
  Cl  Cl3       1.0  0.58055  0.10856  0.37441  1.0000
  Cl  Cl4       1.0  0.47344  0.89186  0.12566  1.0000
