data_image0
_chemical_formula_structural       K2Cu2P2H28C16N4O14
_chemical_formula_sum              "K2 Cu2 P2 H28 C16 N4 O14"
_cell_length_a       7.97092
_cell_length_b       8.42829
_cell_length_c       11.089
_cell_angle_alpha    100.486
_cell_angle_beta     104.313
_cell_angle_gamma    110.121

_space_group_name_H-M_alt    "P 1"
_space_group_IT_number       1

loop_
  _space_group_symop_operation_xyz
  'x, y, z'

loop_
  _atom_site_type_symbol
  _atom_site_label
  _atom_site_symmetry_multiplicity
  _atom_site_fract_x
  _atom_site_fract_y
  _atom_site_fract_z
  _atom_site_occupancy
  K   K1        1.0  0.51730  0.77093  0.94909  1.0000
  K   K2        1.0  0.48270  0.22907  0.05092  1.0000
  Cu  Cu1       1.0  0.62229  0.09882  0.67292  1.0000
  Cu  Cu2       1.0  0.37771  0.90118  0.32708  1.0000
  P   P1        1.0  0.80291  0.19495  0.46849  1.0000
  P   P2        1.0  0.19710  0.80505  0.53151  1.0000
  H   H1        1.0  0.04850  0.12968  0.59075  1.0000
  H   H2        1.0  0.95149  0.87032  0.40924  1.0000
  H   H3        1.0  0.10448  0.35717  0.64907  1.0000
  H   H4        1.0  0.89552  0.64283  0.35093  1.0000
  H   H5        1.0  0.11180  0.43483  0.86811  1.0000
  H   H6        1.0  0.88820  0.56517  0.13189  1.0000
  H   H7        1.0  0.89563  0.32278  0.89692  1.0000
  H   H8        1.0  0.10437  0.67722  0.10308  1.0000
  H   H9        1.0  0.84203  0.55580  0.82557  1.0000
  H   H10       1.0  0.15797  0.44420  0.17443  1.0000
  H   H11       1.0  0.96056  0.54790  0.71197  1.0000
  H   H12       1.0  0.03944  0.45210  0.28803  1.0000
  H   H13       1.0  0.78550  0.48294  0.51816  1.0000
  H   H14       1.0  0.21450  0.51706  0.48184  1.0000
  H   H15       1.0  0.55756  0.29939  0.44479  1.0000
  H   H16       1.0  0.44244  0.70061  0.55521  1.0000
  H   H17       1.0  0.39806  0.31906  0.58264  1.0000
  H   H18       1.0  0.60195  0.68094  0.41735  1.0000
  H   H19       1.0  0.56303  0.53845  0.67970  1.0000
  H   H20       1.0  0.43697  0.46155  0.32030  1.0000
  H   H21       1.0  0.08734  0.14332  0.88293  1.0000
  H   H22       1.0  0.91266  0.85668  0.11707  1.0000
  H   H23       1.0  0.03418  0.00148  0.72749  1.0000
  H   H24       1.0  0.96582  0.99852  0.27252  1.0000
  H   H25       1.0  0.90099  0.14168  0.09423  1.0000
  H   H26       1.0  0.09901  0.85832  0.90577  1.0000
  H   H27       1.0  0.80338  0.15758  0.19750  1.0000
  H   H28       1.0  0.19662  0.84242  0.80250  1.0000
  C   C1        1.0  0.98863  0.22472  0.61782  1.0000
  C   C2        1.0  0.01137  0.77528  0.38218  1.0000
  C   C3        1.0  0.95730  0.35914  0.82251  1.0000
  C   C4        1.0  0.04270  0.64086  0.17749  1.0000
  C   C5        1.0  0.86653  0.46545  0.75459  1.0000
  C   C6        1.0  0.13347  0.53455  0.24541  1.0000
  C   C7        1.0  0.69876  0.34916  0.51828  1.0000
  C   C8        1.0  0.30124  0.65084  0.48172  1.0000
  C   C9        1.0  0.48295  0.35124  0.78814  1.0000
  C   C10       1.0  0.51705  0.64876  0.21186  1.0000
  C   C11       1.0  0.52641  0.39676  0.66811  1.0000
  C   C12       1.0  0.47359  0.60324  0.33189  1.0000
  C   C13       1.0  0.97541  0.07024  0.78808  1.0000
  C   C14       1.0  0.02459  0.92976  0.21192  1.0000
  C   C15       1.0  0.81199  0.92771  0.80627  1.0000
  C   C16       1.0  0.18801  0.07229  0.19373  1.0000
  N   N1        1.0  0.91650  0.19185  0.72608  1.0000
  N   N2        1.0  0.08350  0.80815  0.27392  1.0000
  N   N3        1.0  0.68083  0.34912  0.64781  1.0000
  N   N4        1.0  0.31917  0.65088  0.35219  1.0000
  O   O1        1.0  0.89269  0.24236  0.36775  1.0000
  O   O2        1.0  0.10731  0.75764  0.63225  1.0000
  O   O3        1.0  0.65389  0.00668  0.43812  1.0000
  O   O4        1.0  0.34611  0.99332  0.56188  1.0000
  O   O5        1.0  0.54628  0.24508  0.83048  1.0000
  O   O6        1.0  0.45371  0.75492  0.16952  1.0000
  O   O7        1.0  0.38657  0.42065  0.83455  1.0000
  O   O8        1.0  0.61342  0.57935  0.16544  1.0000
  O   O9        1.0  0.84922  0.83282  0.87466  1.0000
  O   O10       1.0  0.15078  0.16718  0.12534  1.0000
  O   O11       1.0  0.64078  0.90775  0.74798  1.0000
  O   O12       1.0  0.35922  0.09225  0.25202  1.0000
  O   O13       1.0  0.77581  0.12692  0.10173  1.0000
  O   O14       1.0  0.22419  0.87308  0.89827  1.0000
