data_image0
_chemical_formula_structural       Cu2H18C8N2O12
_chemical_formula_sum              "Cu2 H18 C8 N2 O12"
_cell_length_a       6.85949
_cell_length_b       6.85948
_cell_length_c       7.57611
_cell_angle_alpha    92.9216
_cell_angle_beta     92.9218
_cell_angle_gamma    93.1263

_space_group_name_H-M_alt    "P 1"
_space_group_IT_number       1

loop_
  _space_group_symop_operation_xyz
  'x, y, z'

loop_
  _atom_site_type_symbol
  _atom_site_label
  _atom_site_symmetry_multiplicity
  _atom_site_fract_x
  _atom_site_fract_y
  _atom_site_fract_z
  _atom_site_occupancy
  Cu  Cu1       1.0  0.76214  0.76701  0.12600  1.0000
  Cu  Cu2       1.0  0.23299  0.23786  0.87400  1.0000
  H   H1        1.0  0.62833  0.63738  0.53706  1.0000
  H   H2        1.0  0.36261  0.37167  0.46294  1.0000
  H   H3        1.0  0.75966  0.44165  0.61446  1.0000
  H   H4        1.0  0.55835  0.24035  0.38554  1.0000
  H   H5        1.0  0.07147  0.62204  0.51457  1.0000
  H   H6        1.0  0.37796  0.92854  0.48543  1.0000
  H   H7        1.0  0.83114  0.91145  0.44279  1.0000
  H   H8        1.0  0.08855  0.16887  0.55721  1.0000
  H   H9        1.0  0.03396  0.87942  0.33161  1.0000
  H   H10       1.0  0.12058  0.96604  0.66839  1.0000
  H   H11       1.0  0.64056  0.09544  0.02036  1.0000
  H   H12       1.0  0.90456  0.35944  0.97964  1.0000
  H   H13       1.0  0.79819  0.13764  0.19280  1.0000
  H   H14       1.0  0.86236  0.20181  0.80721  1.0000
  H   H15       1.0  0.39072  0.55896  0.18629  1.0000
  H   H16       1.0  0.44104  0.60928  0.81371  1.0000
  H   H17       1.0  0.36574  0.78971  0.20457  1.0000
  H   H18       1.0  0.21029  0.63426  0.79543  1.0000
  C   C1        1.0  0.90062  0.45758  0.31046  1.0000
  C   C2        1.0  0.54242  0.09938  0.68953  1.0000
  C   C3        1.0  0.92427  0.62731  0.45006  1.0000
  C   C4        1.0  0.37268  0.07573  0.54994  1.0000
  C   C5        1.0  0.77270  0.59776  0.58862  1.0000
  C   C6        1.0  0.40224  0.22730  0.41138  1.0000
  C   C7        1.0  0.82545  0.70267  0.76772  1.0000
  C   C8        1.0  0.29733  0.17456  0.23227  1.0000
  N   N1        1.0  0.90238  0.81415  0.36464  1.0000
  N   N2        1.0  0.18585  0.09762  0.63536  1.0000
  O   O1        1.0  0.84643  0.49839  0.15122  1.0000
  O   O2        1.0  0.50161  0.15357  0.84878  1.0000
  O   O3        1.0  0.92859  0.28639  0.35252  1.0000
  O   O4        1.0  0.71361  0.07141  0.64748  1.0000
  O   O5        1.0  0.68380  0.70337  0.87444  1.0000
  O   O6        1.0  0.29662  0.31620  0.12556  1.0000
  O   O7        1.0  0.99527  0.77363  0.80872  1.0000
  O   O8        1.0  0.22637  0.00473  0.19128  1.0000
  O   O9        1.0  0.69828  0.04305  0.13097  1.0000
  O   O10       1.0  0.95695  0.30172  0.86903  1.0000
  O   O11       1.0  0.45342  0.68539  0.23468  1.0000
  O   O12       1.0  0.31461  0.54658  0.76532  1.0000
