data_image0
_chemical_formula_structural       Zn4H22C28N18O8
_chemical_formula_sum              "Zn4 H22 C28 N18 O8"
_cell_length_a       7.77454
_cell_length_b       10.1923
_cell_length_c       13.373
_cell_angle_alpha    110.841
_cell_angle_beta     105.554
_cell_angle_gamma    93.5777

_space_group_name_H-M_alt    "P 1"
_space_group_IT_number       1

loop_
  _space_group_symop_operation_xyz
  'x, y, z'

loop_
  _atom_site_type_symbol
  _atom_site_label
  _atom_site_symmetry_multiplicity
  _atom_site_fract_x
  _atom_site_fract_y
  _atom_site_fract_z
  _atom_site_occupancy
  Zn  Zn1       1.0  0.62849  0.87757  0.25571  1.0000
  Zn  Zn2       1.0  0.37151  0.12243  0.74429  1.0000
  Zn  Zn3       1.0  1.00000  0.50000  0.50000  1.0000
  Zn  Zn4       1.0  0.50000  0.50000  0.50000  1.0000
  H   H1        1.0  0.03678  0.29562  0.07902  1.0000
  H   H2        1.0  0.96322  0.70438  0.92098  1.0000
  H   H3        1.0  0.82890  0.35085  0.20545  1.0000
  H   H4        1.0  0.17110  0.64914  0.79455  1.0000
  H   H5        1.0  0.37220  0.36694  0.20289  1.0000
  H   H6        1.0  0.62780  0.63306  0.79711  1.0000
  H   H7        1.0  0.93249  0.15034  0.36943  1.0000
  H   H8        1.0  0.06751  0.84966  0.63057  1.0000
  H   H9        1.0  0.38814  0.14014  0.35844  1.0000
  H   H10       1.0  0.61186  0.85986  0.64156  1.0000
  H   H11       1.0  0.97789  0.73701  0.37320  1.0000
  H   H12       1.0  0.02211  0.26299  0.62680  1.0000
  H   H13       1.0  0.44592  0.73855  0.38635  1.0000
  H   H14       1.0  0.55408  0.26145  0.61365  1.0000
  H   H15       1.0  0.15138  0.93216  0.15912  1.0000
  H   H16       1.0  0.84863  0.06785  0.84087  1.0000
  H   H17       1.0  0.66772  0.00427  0.95088  1.0000
  H   H18       1.0  0.33228  0.99574  0.04912  1.0000
  H   H19       1.0  0.02311  0.72194  0.16471  1.0000
  H   H20       1.0  0.97689  0.27805  0.83529  1.0000
  H   H21       1.0  0.28010  0.43179  0.95265  1.0000
  H   H22       1.0  0.71990  0.56821  0.04735  1.0000
  C   C1        1.0  0.97585  0.36866  0.23412  1.0000
  C   C2        1.0  0.02415  0.63134  0.76587  1.0000
  C   C3        1.0  0.25533  0.37691  0.23297  1.0000
  C   C4        1.0  0.74467  0.62310  0.76703  1.0000
  C   C5        1.0  0.80673  0.18366  0.38033  1.0000
  C   C6        1.0  0.19327  0.81634  0.61967  1.0000
  C   C7        1.0  0.53020  0.17784  0.37401  1.0000
  C   C8        1.0  0.46980  0.82216  0.62599  1.0000
  C   C9        1.0  0.85153  0.71415  0.38870  1.0000
  C   C10       1.0  0.14847  0.28585  0.61130  1.0000
  C   C11       1.0  0.58231  0.71551  0.39631  1.0000
  C   C12       1.0  0.41769  0.28449  0.60369  1.0000
  C   C13       1.0  0.78815  0.92692  0.12701  1.0000
  C   C14       1.0  0.21185  0.07309  0.87300  1.0000
  C   C15       1.0  0.89831  0.96463  0.06173  1.0000
  C   C16       1.0  0.10170  0.03538  0.93827  1.0000
  C   C17       1.0  0.08563  0.96328  0.09018  1.0000
  C   C18       1.0  0.91437  0.03672  0.90982  1.0000
  C   C19       1.0  0.81295  0.00184  0.97131  1.0000
  C   C20       1.0  0.18706  0.99817  0.02869  1.0000
  C   C21       1.0  0.01261  0.62447  0.09273  1.0000
  C   C22       1.0  0.98738  0.37552  0.90728  1.0000
  C   C23       1.0  0.15667  0.46036  0.97263  1.0000
  C   C24       1.0  0.84334  0.53965  0.02738  1.0000
  C   C25       1.0  0.16959  0.58544  0.06571  1.0000
  C   C26       1.0  0.83041  0.41456  0.93430  1.0000
  C   C27       1.0  0.35210  0.67597  0.13474  1.0000
  C   C28       1.0  0.64789  0.32403  0.86527  1.0000
  N   N1        1.0  0.08124  0.42383  0.34004  1.0000
  N   N2        1.0  0.91876  0.57617  0.65996  1.0000
  N   N3        1.0  0.25849  0.42916  0.33934  1.0000
  N   N4        1.0  0.74151  0.57084  0.66066  1.0000
  N   N5        1.0  0.08051  0.33776  0.16510  1.0000
  N   N6        1.0  0.91949  0.66224  0.83491  1.0000
  N   N7        1.0  0.78720  0.31848  0.42798  1.0000
  N   N8        1.0  0.21280  0.68152  0.57202  1.0000
  N   N9        1.0  0.60865  0.31505  0.42406  1.0000
  N   N10       1.0  0.39135  0.68495  0.57594  1.0000
  N   N11       1.0  0.64953  0.09187  0.34555  1.0000
  N   N12       1.0  0.35046  0.90813  0.65445  1.0000
  N   N13       1.0  0.82072  0.62089  0.43388  1.0000
  N   N14       1.0  0.17928  0.37911  0.56612  1.0000
  N   N15       1.0  0.64650  0.62195  0.43866  1.0000
  N   N16       1.0  0.35350  0.37805  0.56134  1.0000
  N   N17       1.0  0.70607  0.77628  0.36437  1.0000
  N   N18       1.0  0.29392  0.22372  0.63563  1.0000
  O   O1        1.0  0.87139  0.90769  0.21693  1.0000
  O   O2        1.0  0.12862  0.09231  0.78307  1.0000
  O   O3        1.0  0.61746  0.91642  0.09434  1.0000
  O   O4        1.0  0.38254  0.08359  0.90567  1.0000
  O   O5        1.0  0.35609  0.80188  0.20749  1.0000
  O   O6        1.0  0.64390  0.19811  0.79250  1.0000
  O   O7        1.0  0.49323  0.62930  0.12039  1.0000
  O   O8        1.0  0.50677  0.37070  0.87961  1.0000
