data_image0
_chemical_formula_structural       Mn2H16C16N36
_chemical_formula_sum              "Mn2 H16 C16 N36"
_cell_length_a       6.3943
_cell_length_b       10.0377
_cell_length_c       12.1063
_cell_angle_alpha    104.379
_cell_angle_beta     89.9997
_cell_angle_gamma    90.0007

_space_group_name_H-M_alt    "P 1"
_space_group_IT_number       1

loop_
  _space_group_symop_operation_xyz
  'x, y, z'

loop_
  _atom_site_type_symbol
  _atom_site_label
  _atom_site_symmetry_multiplicity
  _atom_site_fract_x
  _atom_site_fract_y
  _atom_site_fract_z
  _atom_site_occupancy
  Mn  Mn1       1.0  0.00002  0.50000  0.00001  1.0000
  Mn  Mn2       1.0  0.50002  0.99999  0.99999  1.0000
  H   H1        1.0  0.57259  0.48881  0.37156  1.0000
  H   H2        1.0  0.07256  0.01122  0.62845  1.0000
  H   H3        1.0  0.42744  0.51121  0.62845  1.0000
  H   H4        1.0  0.92742  0.98879  0.37156  1.0000
  H   H5        1.0  0.60280  0.72749  0.12757  1.0000
  H   H6        1.0  0.10284  0.77250  0.87242  1.0000
  H   H7        1.0  0.39719  0.27251  0.87243  1.0000
  H   H8        1.0  0.89716  0.22751  0.12758  1.0000
  H   H9        1.0  0.10978  0.60283  0.28806  1.0000
  H   H10       1.0  0.60978  0.89715  0.71194  1.0000
  H   H11       1.0  0.89023  0.39716  0.71194  1.0000
  H   H12       1.0  0.39021  0.10285  0.28805  1.0000
  H   H13       1.0  0.58081  0.89843  0.41564  1.0000
  H   H14       1.0  0.08084  0.60159  0.58437  1.0000
  H   H15       1.0  0.41918  0.10158  0.58436  1.0000
  H   H16       1.0  0.91916  0.39841  0.41564  1.0000
  C   C1        1.0  0.61674  0.52099  0.29567  1.0000
  C   C2        1.0  0.11674  0.97902  0.70434  1.0000
  C   C3        1.0  0.38326  0.47901  0.70434  1.0000
  C   C4        1.0  0.88325  0.02098  0.29566  1.0000
  C   C5        1.0  0.62978  0.64401  0.16810  1.0000
  C   C6        1.0  0.12980  0.85600  0.83190  1.0000
  C   C7        1.0  0.37022  0.35599  0.83190  1.0000
  C   C8        1.0  0.87020  0.14401  0.16811  1.0000
  C   C9        1.0  0.18155  0.69712  0.33716  1.0000
  C   C10       1.0  0.68156  0.80288  0.66284  1.0000
  C   C11       1.0  0.81844  0.30288  0.66285  1.0000
  C   C12       1.0  0.31844  0.19713  0.33715  1.0000
  C   C13       1.0  0.42754  0.85052  0.40173  1.0000
  C   C14       1.0  0.92757  0.64948  0.59827  1.0000
  C   C15       1.0  0.57244  0.14949  0.59827  1.0000
  C   C16       1.0  0.07243  0.35052  0.40174  1.0000
  N   N1        1.0  0.75924  0.53946  0.13719  1.0000
  N   N2        1.0  0.25925  0.96055  0.86281  1.0000
  N   N3        1.0  0.24077  0.46055  0.86282  1.0000
  N   N4        1.0  0.74074  0.03946  0.13719  1.0000
  N   N5        1.0  0.75096  0.46134  0.21713  1.0000
  N   N6        1.0  0.25097  0.03868  0.78288  1.0000
  N   N7        1.0  0.24906  0.53867  0.78288  1.0000
  N   N8        1.0  0.74903  0.96133  0.21712  1.0000
  N   N9        1.0  0.53854  0.63636  0.26850  1.0000
  N   N10       1.0  0.03855  0.86366  0.73150  1.0000
  N   N11       1.0  0.46146  0.36364  0.73150  1.0000
  N   N12       1.0  0.96144  0.13635  0.26850  1.0000
  N   N13       1.0  0.39137  0.72381  0.32961  1.0000
  N   N14       1.0  0.89138  0.77620  0.67040  1.0000
  N   N15       1.0  0.60863  0.27620  0.67040  1.0000
  N   N16       1.0  0.10861  0.22380  0.32960  1.0000
  N   N17       1.0  0.09411  0.80202  0.40904  1.0000
  N   N18       1.0  0.59413  0.69797  0.59096  1.0000
  N   N19       1.0  0.90589  0.19798  0.59095  1.0000
  N   N20       1.0  0.40587  0.30203  0.40903  1.0000
  N   N21       1.0  0.25018  0.89985  0.44920  1.0000
  N   N22       1.0  0.75021  0.60014  0.55080  1.0000
  N   N23       1.0  0.74981  0.10016  0.55080  1.0000
  N   N24       1.0  0.24979  0.39986  0.44919  1.0000
  N   N25       1.0  0.21383  0.42270  0.11391  1.0000
  N   N26       1.0  0.71388  0.07725  0.88610  1.0000
  N   N27       1.0  0.78620  0.57727  0.88610  1.0000
  N   N28       1.0  0.28612  0.92274  0.11389  1.0000
  N   N29       1.0  0.30363  0.31570  0.09075  1.0000
  N   N30       1.0  0.80359  0.18426  0.90923  1.0000
  N   N31       1.0  0.69640  0.68428  0.90925  1.0000
  N   N32       1.0  0.19640  0.81573  0.09077  1.0000
  N   N33       1.0  0.39471  0.21036  0.06926  1.0000
  N   N34       1.0  0.89462  0.28966  0.93071  1.0000
  N   N35       1.0  0.60531  0.78962  0.93073  1.0000
  N   N36       1.0  0.10537  0.71034  0.06930  1.0000
