data_image0
_chemical_formula_structural       Ca2H20C12O10
_chemical_formula_sum              "Ca2 H20 C12 O10"
_cell_length_a       5.89177
_cell_length_b       6.7704
_cell_length_c       10.8114
_cell_angle_alpha    76.425
_cell_angle_beta     81.938
_cell_angle_gamma    78.6164

_space_group_name_H-M_alt    "P 1"
_space_group_IT_number       1

loop_
  _space_group_symop_operation_xyz
  'x, y, z'

loop_
  _atom_site_type_symbol
  _atom_site_label
  _atom_site_symmetry_multiplicity
  _atom_site_fract_x
  _atom_site_fract_y
  _atom_site_fract_z
  _atom_site_occupancy
  Ca  Ca1       1.0  0.60015  0.26026  0.42749  1.0000
  Ca  Ca2       1.0  0.39984  0.73974  0.57251  1.0000
  H   H1        1.0  0.27493  0.48101  0.10468  1.0000
  H   H2        1.0  0.72506  0.51899  0.89532  1.0000
  H   H3        1.0  0.45511  0.24215  0.14813  1.0000
  H   H4        1.0  0.54489  0.75786  0.85187  1.0000
  H   H5        1.0  0.17622  0.06767  0.07201  1.0000
  H   H6        1.0  0.82379  0.93233  0.92800  1.0000
  H   H7        1.0  0.99487  0.30609  0.02867  1.0000
  H   H8        1.0  0.00512  0.69392  0.97133  1.0000
  H   H9        1.0  0.31168  0.43707  0.86767  1.0000
  H   H10       1.0  0.68833  0.56293  0.13234  1.0000
  H   H11       1.0  0.50044  0.20058  0.91357  1.0000
  H   H12       1.0  0.49956  0.79942  0.08643  1.0000
  H   H13       1.0  0.21603  0.01517  0.84644  1.0000
  H   H14       1.0  0.78398  0.98483  0.15356  1.0000
  H   H15       1.0  0.03700  0.25582  0.79864  1.0000
  H   H16       1.0  0.96300  0.74418  0.20136  1.0000
  H   H17       1.0  0.96627  0.06678  0.61434  1.0000
  H   H18       1.0  0.03372  0.93322  0.38566  1.0000
  H   H19       1.0  0.03707  0.24438  0.49897  1.0000
  H   H20       1.0  0.96293  0.75562  0.50103  1.0000
  C   C1        1.0  0.13624  0.28058  0.26791  1.0000
  C   C2        1.0  0.86376  0.71942  0.73209  1.0000
  C   C3        1.0  0.27251  0.31419  0.13627  1.0000
  C   C4        1.0  0.72749  0.68581  0.86374  1.0000
  C   C5        1.0  0.17826  0.23376  0.03690  1.0000
  C   C6        1.0  0.82175  0.76624  0.96310  1.0000
  C   C7        1.0  0.31592  0.27073  0.90546  1.0000
  C   C8        1.0  0.68408  0.72927  0.09455  1.0000
  C   C9        1.0  0.21875  0.18041  0.81097  1.0000
  C   C10       1.0  0.78125  0.81959  0.18902  1.0000
  C   C11       1.0  0.34755  0.21241  0.67874  1.0000
  C   C12       1.0  0.65246  0.78757  0.32126  1.0000
  O   O1        1.0  0.94203  0.21857  0.28017  1.0000
  O   O2        1.0  0.05797  0.78143  0.71983  1.0000
  O   O3        1.0  0.22413  0.31572  0.36028  1.0000
  O   O4        1.0  0.77587  0.68428  0.63972  1.0000
  O   O5        1.0  0.38704  0.39129  0.62255  1.0000
  O   O6        1.0  0.61295  0.60871  0.37745  1.0000
  O   O7        1.0  0.41377  0.06007  0.62371  1.0000
  O   O8        1.0  0.58623  0.93994  0.37629  1.0000
  O   O9        1.0  0.90561  0.20126  0.56218  1.0000
  O   O10       1.0  0.09438  0.79873  0.43782  1.0000
