data_image0
_chemical_formula_structural       Cd2H30C38Br2N4O10
_chemical_formula_sum              "Cd2 H30 C38 Br2 N4 O10"
_cell_length_a       8.74199
_cell_length_b       9.57404
_cell_length_c       11.7393
_cell_angle_alpha    103.541
_cell_angle_beta     90.0005
_cell_angle_gamma    90.0025

_space_group_name_H-M_alt    "P 1"
_space_group_IT_number       1

loop_
  _space_group_symop_operation_xyz
  'x, y, z'

loop_
  _atom_site_type_symbol
  _atom_site_label
  _atom_site_symmetry_multiplicity
  _atom_site_fract_x
  _atom_site_fract_y
  _atom_site_fract_z
  _atom_site_occupancy
  Cd  Cd1       1.0  0.70560  0.64218  0.98358  1.0000
  Cd  Cd2       1.0  0.20561  0.35784  0.01644  1.0000
  H   H1        1.0  0.55956  0.01588  0.55056  1.0000
  H   H2        1.0  0.05962  0.98409  0.44942  1.0000
  H   H3        1.0  0.38354  0.87342  0.64605  1.0000
  H   H4        1.0  0.88359  0.12654  0.35393  1.0000
  H   H5        1.0  0.42425  0.86515  0.85350  1.0000
  H   H6        1.0  0.92426  0.13482  0.14648  1.0000
  H   H7        1.0  0.95732  0.15392  0.83838  1.0000
  H   H8        1.0  0.45736  0.84611  0.16160  1.0000
  H   H9        1.0  0.88242  0.11450  0.96496  1.0000
  H   H10       1.0  0.38243  0.88551  0.03501  1.0000
  H   H11       1.0  0.61311  0.42900  0.14990  1.0000
  H   H12       1.0  0.11313  0.57100  0.85011  1.0000
  H   H13       1.0  0.62605  0.41476  0.35847  1.0000
  H   H14       1.0  0.12606  0.58523  0.64153  1.0000
  H   H15       1.0  0.79083  0.85343  0.44194  1.0000
  H   H16       1.0  0.29081  0.14657  0.55809  1.0000
  H   H17       1.0  0.77894  0.84581  0.22767  1.0000
  H   H18       1.0  0.27891  0.15419  0.77235  1.0000
  H   H19       1.0  0.51678  0.48850  0.53648  1.0000
  H   H20       1.0  0.01679  0.51151  0.46353  1.0000
  H   H21       1.0  0.52589  0.49541  0.75035  1.0000
  H   H22       1.0  0.02588  0.50459  0.24966  1.0000
  H   H23       1.0  0.89212  0.77816  0.80231  1.0000
  H   H24       1.0  0.39209  0.22187  0.19772  1.0000
  H   H25       1.0  0.90174  0.78087  0.59143  1.0000
  H   H26       1.0  0.40174  0.21916  0.40860  1.0000
  H   H27       1.0  0.01164  0.77381  0.97314  1.0000
  H   H28       1.0  0.51163  0.22618  0.02686  1.0000
  H   H29       1.0  0.03553  0.65315  0.04488  1.0000
  H   H30       1.0  0.53553  0.34686  0.95512  1.0000
  C   C1        1.0  0.62065  0.00661  0.87711  1.0000
  C   C2        1.0  0.12067  0.99339  0.12287  1.0000
  C   C3        1.0  0.72164  0.08884  0.82498  1.0000
  C   C4        1.0  0.22166  0.91116  0.17500  1.0000
  C   C5        1.0  0.69488  0.08890  0.70718  1.0000
  C   C6        1.0  0.19490  0.91105  0.29278  1.0000
  C   C7        1.0  0.57520  0.01342  0.64215  1.0000
  C   C8        1.0  0.07523  0.98654  0.35783  1.0000
  C   C9        1.0  0.47756  0.93310  0.69604  1.0000
  C   C10       1.0  0.97762  0.06688  0.30394  1.0000
  C   C11       1.0  0.50055  0.92923  0.81271  1.0000
  C   C12       1.0  0.00056  0.07076  0.18727  1.0000
  C   C13       1.0  0.64105  0.00405  0.00554  1.0000
  C   C14       1.0  0.14105  0.99597  0.99446  1.0000
  C   C15       1.0  0.85413  0.16566  0.89345  1.0000
  C   C16       1.0  0.35415  0.83435  0.10652  1.0000
  C   C17       1.0  0.83631  0.32680  0.94814  1.0000
  C   C18       1.0  0.33633  0.67321  0.05187  1.0000
  C   C19       1.0  0.65395  0.51990  0.21740  1.0000
  C   C20       1.0  0.15397  0.48010  0.78261  1.0000
  C   C21       1.0  0.65920  0.51374  0.33443  1.0000
  C   C22       1.0  0.15920  0.48626  0.66558  1.0000
  C   C23       1.0  0.70832  0.63420  0.41932  1.0000
  C   C24       1.0  0.20832  0.36580  0.58068  1.0000
  C   C25       1.0  0.75344  0.75583  0.38036  1.0000
  C   C26       1.0  0.25343  0.24417  0.61965  1.0000
  C   C27       1.0  0.74589  0.75330  0.26153  1.0000
  C   C28       1.0  0.24587  0.24669  0.73848  1.0000
  C   C29       1.0  0.71018  0.63339  0.54482  1.0000
  C   C30       1.0  0.21018  0.36661  0.45518  1.0000
  C   C31       1.0  0.60406  0.55199  0.59152  1.0000
  C   C32       1.0  0.10405  0.44802  0.40849  1.0000
  C   C33       1.0  0.60744  0.55601  0.71060  1.0000
  C   C34       1.0  0.10742  0.44399  0.28942  1.0000
  C   C35       1.0  0.81159  0.71422  0.74029  1.0000
  C   C36       1.0  0.31159  0.28582  0.25973  1.0000
  C   C37       1.0  0.81600  0.71566  0.62224  1.0000
  C   C38       1.0  0.31601  0.28437  0.37778  1.0000
  Br  Br1       1.0  0.82966  0.19234  0.62692  1.0000
  Br  Br2       1.0  0.32968  0.80767  0.37307  1.0000
  N   N1        1.0  0.69598  0.63784  0.18164  1.0000
  N   N2        1.0  0.19599  0.36215  0.81837  1.0000
  N   N3        1.0  0.70908  0.63579  0.78359  1.0000
  N   N4        1.0  0.20906  0.36423  0.21643  1.0000
  O   O1        1.0  0.69611  0.89266  0.03035  1.0000
  O   O2        1.0  0.19609  0.10735  0.96965  1.0000
  O   O3        1.0  0.60134  0.11595  0.08141  1.0000
  O   O4        1.0  0.10136  0.88403  0.91858  1.0000
  O   O5        1.0  0.72191  0.39265  0.91729  1.0000
  O   O6        1.0  0.22192  0.60736  0.08271  1.0000
  O   O7        1.0  0.93628  0.38654  0.02155  1.0000
  O   O8        1.0  0.43631  0.61347  0.97846  1.0000
  O   O9        1.0  0.95914  0.69195  0.99893  1.0000
  O   O10       1.0  0.45913  0.30804  0.00106  1.0000
