data_image0
_chemical_formula_structural       Gd4H40C24O44
_chemical_formula_sum              "Gd4 H40 C24 O44"
_cell_length_a       8.57087
_cell_length_b       8.21236
_cell_length_c       16.9004
_cell_angle_alpha    90.0006
_cell_angle_beta     101.055
_cell_angle_gamma    90

_space_group_name_H-M_alt    "P 1"
_space_group_IT_number       1

loop_
  _space_group_symop_operation_xyz
  'x, y, z'

loop_
  _atom_site_type_symbol
  _atom_site_label
  _atom_site_symmetry_multiplicity
  _atom_site_fract_x
  _atom_site_fract_y
  _atom_site_fract_z
  _atom_site_occupancy
  Gd  Gd1       1.0  0.95619  0.59092  0.66117  1.0000
  Gd  Gd2       1.0  0.54381  0.09092  0.83883  1.0000
  Gd  Gd3       1.0  0.04381  0.40908  0.33883  1.0000
  Gd  Gd4       1.0  0.45619  0.90907  0.16117  1.0000
  H   H1        1.0  0.98358  0.54261  0.83379  1.0000
  H   H2        1.0  0.51640  0.04261  0.66621  1.0000
  H   H3        1.0  0.01643  0.45739  0.16621  1.0000
  H   H4        1.0  0.48357  0.95738  0.33378  1.0000
  H   H5        1.0  0.09325  0.69526  0.83523  1.0000
  H   H6        1.0  0.40672  0.19526  0.66477  1.0000
  H   H7        1.0  0.90675  0.30473  0.16477  1.0000
  H   H8        1.0  0.59324  0.80473  0.33523  1.0000
  H   H9        1.0  0.14589  0.30005  0.67389  1.0000
  H   H10       1.0  0.35411  0.80005  0.82611  1.0000
  H   H11       1.0  0.85410  0.69995  0.32611  1.0000
  H   H12       1.0  0.64591  0.19995  0.17388  1.0000
  H   H13       1.0  0.06528  0.25220  0.74653  1.0000
  H   H14       1.0  0.43472  0.75218  0.75347  1.0000
  H   H15       1.0  0.93472  0.74782  0.25347  1.0000
  H   H16       1.0  0.56528  0.24780  0.24653  1.0000
  H   H17       1.0  0.06288  0.94271  0.71641  1.0000
  H   H18       1.0  0.43711  0.44271  0.78359  1.0000
  H   H19       1.0  0.93712  0.05729  0.28359  1.0000
  H   H20       1.0  0.56288  0.55729  0.21641  1.0000
  H   H21       1.0  0.17766  0.87130  0.66392  1.0000
  H   H22       1.0  0.32238  0.37133  0.83612  1.0000
  H   H23       1.0  0.82234  0.12869  0.33609  1.0000
  H   H24       1.0  0.67768  0.62870  0.16392  1.0000
  H   H25       1.0  0.64761  0.49248  0.70362  1.0000
  H   H26       1.0  0.85238  0.99250  0.79638  1.0000
  H   H27       1.0  0.35238  0.50751  0.29638  1.0000
  H   H28       1.0  0.14762  0.00751  0.20361  1.0000
  H   H29       1.0  0.76375  0.37239  0.75820  1.0000
  H   H30       1.0  0.73624  0.87240  0.74180  1.0000
  H   H31       1.0  0.23625  0.62761  0.24181  1.0000
  H   H32       1.0  0.26376  0.12760  0.25818  1.0000
  H   H33       1.0  0.83647  0.26928  0.59101  1.0000
  H   H34       1.0  0.66354  0.76928  0.90899  1.0000
  H   H35       1.0  0.16353  0.73071  0.40900  1.0000
  H   H36       1.0  0.33647  0.23071  0.09100  1.0000
  H   H37       1.0  0.94720  0.32390  0.53000  1.0000
  H   H38       1.0  0.55280  0.82390  0.97000  1.0000
  H   H39       1.0  0.05279  0.67610  0.47000  1.0000
  H   H40       1.0  0.44721  0.17610  0.03000  1.0000
  C   C1        1.0  0.42850  0.53191  0.56524  1.0000
  C   C2        1.0  0.07150  0.03192  0.93477  1.0000
  C   C3        1.0  0.57147  0.46810  0.43477  1.0000
  C   C4        1.0  0.92852  0.96809  0.06523  1.0000
  C   C5        1.0  0.35681  0.56599  0.63774  1.0000
  C   C6        1.0  0.14320  0.06600  0.86226  1.0000
  C   C7        1.0  0.64318  0.43401  0.36226  1.0000
  C   C8        1.0  0.85681  0.93400  0.13773  1.0000
  C   C9        1.0  0.55465  0.63063  0.55174  1.0000
  C   C10       1.0  0.94535  0.13063  0.94826  1.0000
  C   C11       1.0  0.44533  0.36936  0.44825  1.0000
  C   C12       1.0  0.05467  0.86936  0.05174  1.0000
  C   C13       1.0  0.60042  0.77414  0.60741  1.0000
  C   C14       1.0  0.89959  0.27414  0.89259  1.0000
  C   C15       1.0  0.39956  0.22586  0.39259  1.0000
  C   C16       1.0  0.10043  0.72585  0.10740  1.0000
  C   C17       1.0  0.37195  0.40207  0.51376  1.0000
  C   C18       1.0  0.12806  0.90207  0.98624  1.0000
  C   C19       1.0  0.62806  0.59796  0.48624  1.0000
  C   C20       1.0  0.87194  0.09795  0.01376  1.0000
  C   C21       1.0  0.23065  0.30767  0.53084  1.0000
  C   C22       1.0  0.26935  0.80766  0.96916  1.0000
  C   C23       1.0  0.76934  0.69233  0.46916  1.0000
  C   C24       1.0  0.73067  0.19234  0.03084  1.0000
  O   O1        1.0  0.20910  0.58941  0.62853  1.0000
  O   O2        1.0  0.29091  0.08942  0.87147  1.0000
  O   O3        1.0  0.79090  0.41058  0.37146  1.0000
  O   O4        1.0  0.70909  0.91058  0.12853  1.0000
  O   O5        1.0  0.45485  0.57081  0.70544  1.0000
  O   O6        1.0  0.04514  0.07082  0.79456  1.0000
  O   O7        1.0  0.54512  0.42918  0.29456  1.0000
  O   O8        1.0  0.95486  0.92918  0.20544  1.0000
  O   O9        1.0  0.50002  0.88518  0.60570  1.0000
  O   O10       1.0  0.99998  0.38518  0.89429  1.0000
  O   O11       1.0  0.49996  0.11483  0.39430  1.0000
  O   O12       1.0  0.00005  0.61483  0.10570  1.0000
  O   O13       1.0  0.73706  0.76899  0.65518  1.0000
  O   O14       1.0  0.76295  0.26898  0.84483  1.0000
  O   O15       1.0  0.26295  0.23102  0.34482  1.0000
  O   O16       1.0  0.23705  0.73101  0.15518  1.0000
  O   O17       1.0  0.24171  0.24127  0.59927  1.0000
  O   O18       1.0  0.25829  0.74127  0.90073  1.0000
  O   O19       1.0  0.75828  0.75872  0.40073  1.0000
  O   O20       1.0  0.74171  0.25872  0.09927  1.0000
  O   O21       1.0  0.10377  0.30748  0.47691  1.0000
  O   O22       1.0  0.39623  0.80747  0.02309  1.0000
  O   O23       1.0  0.89621  0.69252  0.52309  1.0000
  O   O24       1.0  0.60379  0.19253  0.97691  1.0000
  O   O25       1.0  0.00101  0.64026  0.80036  1.0000
  O   O26       1.0  0.49897  0.14024  0.69964  1.0000
  O   O27       1.0  0.99899  0.35976  0.19965  1.0000
  O   O28       1.0  0.50102  0.85975  0.30036  1.0000
  O   O29       1.0  0.09802  0.34796  0.71783  1.0000
  O   O30       1.0  0.40197  0.84796  0.78216  1.0000
  O   O31       1.0  0.90196  0.65204  0.28216  1.0000
  O   O32       1.0  0.59804  0.15203  0.21783  1.0000
  O   O33       1.0  0.06839  0.86460  0.67221  1.0000
  O   O34       1.0  0.43164  0.36461  0.82780  1.0000
  O   O35       1.0  0.93161  0.13540  0.32779  1.0000
  O   O36       1.0  0.56839  0.63540  0.17221  1.0000
  O   O37       1.0  0.75340  0.43977  0.70815  1.0000
  O   O38       1.0  0.74660  0.93978  0.79185  1.0000
  O   O39       1.0  0.24660  0.56023  0.29185  1.0000
  O   O40       1.0  0.25339  0.06023  0.20815  1.0000
  O   O41       1.0  0.87824  0.36365  0.56727  1.0000
  O   O42       1.0  0.62177  0.86365  0.93274  1.0000
  O   O43       1.0  0.12175  0.63635  0.43274  1.0000
  O   O44       1.0  0.37824  0.13634  0.06726  1.0000
