data_image0
_chemical_formula_structural       Cu4H36C20S4N12O28
_chemical_formula_sum              "Cu4 H36 C20 S4 N12 O28"
_cell_length_a       7.30846
_cell_length_b       11.265
_cell_length_c       11.8055
_cell_angle_alpha    94.2594
_cell_angle_beta     89.9941
_cell_angle_gamma    89.9954

_space_group_name_H-M_alt    "P 1"
_space_group_IT_number       1

loop_
  _space_group_symop_operation_xyz
  'x, y, z'

loop_
  _atom_site_type_symbol
  _atom_site_label
  _atom_site_symmetry_multiplicity
  _atom_site_fract_x
  _atom_site_fract_y
  _atom_site_fract_z
  _atom_site_occupancy
  Cu  Cu1       1.0  0.50001  0.00000  0.50000  1.0000
  Cu  Cu2       1.0  1.00000  1.00000  0.00000  1.0000
  Cu  Cu3       1.0  1.00000  0.50000  0.50000  1.0000
  Cu  Cu4       1.0  0.50000  0.50000  1.00000  1.0000
  H   H1        1.0  0.49170  0.78149  0.64684  1.0000
  H   H2        1.0  0.99175  0.21853  0.85316  1.0000
  H   H3        1.0  0.50831  0.21851  0.35316  1.0000
  H   H4        1.0  0.00824  0.78147  0.14684  1.0000
  H   H5        1.0  0.68961  0.59628  0.64014  1.0000
  H   H6        1.0  0.18963  0.40372  0.85986  1.0000
  H   H7        1.0  0.31039  0.40372  0.35986  1.0000
  H   H8        1.0  0.81037  0.59628  0.14014  1.0000
  H   H9        1.0  0.01842  0.73334  0.39332  1.0000
  H   H10       1.0  0.51837  0.26663  0.10667  1.0000
  H   H11       1.0  0.98157  0.26666  0.60667  1.0000
  H   H12       1.0  0.48164  0.73337  0.89333  1.0000
  H   H13       1.0  0.99841  0.04907  0.29785  1.0000
  H   H14       1.0  0.49843  0.95095  0.20215  1.0000
  H   H15       1.0  0.00160  0.95094  0.70215  1.0000
  H   H16       1.0  0.50157  0.04905  0.79785  1.0000
  H   H17       1.0  0.09489  0.91602  0.34602  1.0000
  H   H18       1.0  0.59485  0.08397  0.15397  1.0000
  H   H19       1.0  0.90512  0.08398  0.65398  1.0000
  H   H20       1.0  0.40515  0.91603  0.84603  1.0000
  H   H21       1.0  0.98347  0.54179  0.76515  1.0000
  H   H22       1.0  0.48348  0.45820  0.73488  1.0000
  H   H23       1.0  0.01653  0.45821  0.23485  1.0000
  H   H24       1.0  0.51652  0.54180  0.26512  1.0000
  H   H25       1.0  0.88233  0.41922  0.73326  1.0000
  H   H26       1.0  0.38235  0.58080  0.76677  1.0000
  H   H27       1.0  0.11767  0.58078  0.26674  1.0000
  H   H28       1.0  0.61765  0.41920  0.23323  1.0000
  H   H29       1.0  0.76140  0.36129  0.40104  1.0000
  H   H30       1.0  0.26140  0.63875  0.09897  1.0000
  H   H31       1.0  0.23860  0.63871  0.59896  1.0000
  H   H32       1.0  0.73859  0.36125  0.90103  1.0000
  H   H33       1.0  0.68898  0.38373  0.53327  1.0000
  H   H34       1.0  0.18899  0.61630  0.96672  1.0000
  H   H35       1.0  0.31102  0.61626  0.46674  1.0000
  H   H36       1.0  0.81100  0.38370  0.03328  1.0000
  C   C1        1.0  0.61169  0.77168  0.59196  1.0000
  C   C2        1.0  0.11172  0.22834  0.90805  1.0000
  C   C3        1.0  0.38832  0.22833  0.40804  1.0000
  C   C4        1.0  0.88828  0.77166  0.09196  1.0000
  C   C5        1.0  0.71889  0.66855  0.58647  1.0000
  C   C6        1.0  0.21891  0.33146  0.91353  1.0000
  C   C7        1.0  0.28111  0.33145  0.41352  1.0000
  C   C8        1.0  0.78109  0.66854  0.08647  1.0000
  C   C9        1.0  0.90258  0.74518  0.45080  1.0000
  C   C10       1.0  0.40256  0.25482  0.04920  1.0000
  C   C11       1.0  0.09742  0.25482  0.54919  1.0000
  C   C12       1.0  0.59744  0.74518  0.95080  1.0000
  C   C13       1.0  0.79859  0.84883  0.45752  1.0000
  C   C14       1.0  0.29858  0.15118  0.04248  1.0000
  C   C15       1.0  0.20141  0.15117  0.54247  1.0000
  C   C16       1.0  0.70142  0.84881  0.95753  1.0000
  C   C17       1.0  0.82578  0.95399  0.38985  1.0000
  C   C18       1.0  0.32577  0.04601  0.11017  1.0000
  C   C19       1.0  0.17423  0.04601  0.61015  1.0000
  C   C20       1.0  0.67423  0.95399  0.88983  1.0000
  S   S1        1.0  0.38211  0.75811  0.30203  1.0000
  S   S2        1.0  0.88207  0.24189  0.19796  1.0000
  S   S3        1.0  0.61789  0.24189  0.69797  1.0000
  S   S4        1.0  0.11792  0.75811  0.80204  1.0000
  N   N1        1.0  0.65202  0.85984  0.52713  1.0000
  N   N2        1.0  0.15201  0.14016  0.97288  1.0000
  N   N3        1.0  0.34799  0.14016  0.47287  1.0000
  N   N4        1.0  0.84799  0.85984  0.02713  1.0000
  N   N5        1.0  0.86042  0.65551  0.51489  1.0000
  N   N6        1.0  0.36040  0.34447  0.98511  1.0000
  N   N7        1.0  0.13958  0.34449  0.48510  1.0000
  N   N8        1.0  0.63961  0.65553  0.01489  1.0000
  N   N9        1.0  0.98083  0.96956  0.33636  1.0000
  N   N10       1.0  0.48082  0.03044  0.16365  1.0000
  N   N11       1.0  0.01918  0.03044  0.66364  1.0000
  N   N12       1.0  0.51918  0.96956  0.83635  1.0000
  O   O1        1.0  0.69326  0.02757  0.38806  1.0000
  O   O2        1.0  0.19325  0.97243  0.11196  1.0000
  O   O3        1.0  0.30675  0.97243  0.61194  1.0000
  O   O4        1.0  0.80675  0.02757  0.88805  1.0000
  O   O5        1.0  0.96600  0.47833  0.70340  1.0000
  O   O6        1.0  0.46598  0.52166  0.79664  1.0000
  O   O7        1.0  0.03401  0.52167  0.29660  1.0000
  O   O8        1.0  0.53402  0.47834  0.20336  1.0000
  O   O9        1.0  0.76138  0.41797  0.47068  1.0000
  O   O10       1.0  0.26141  0.58205  0.02932  1.0000
  O   O11       1.0  0.23863  0.58203  0.52932  1.0000
  O   O12       1.0  0.73858  0.41795  0.97068  1.0000
  O   O13       1.0  0.44996  0.65845  0.36860  1.0000
  O   O14       1.0  0.94991  0.34155  0.13138  1.0000
  O   O15       1.0  0.55004  0.34155  0.63140  1.0000
  O   O16       1.0  0.05008  0.65845  0.86861  1.0000
  O   O17       1.0  0.53469  0.80517  0.23690  1.0000
  O   O18       1.0  0.03465  0.19484  0.26308  1.0000
  O   O19       1.0  0.46530  0.19484  0.76309  1.0000
  O   O20       1.0  0.96534  0.80516  0.73691  1.0000
  O   O21       1.0  0.30130  0.85348  0.38128  1.0000
  O   O22       1.0  0.80129  0.14654  0.11873  1.0000
  O   O23       1.0  0.69870  0.14653  0.61872  1.0000
  O   O24       1.0  0.19869  0.85346  0.88128  1.0000
  O   O25       1.0  0.23238  0.70968  0.22406  1.0000
  O   O26       1.0  0.73233  0.29034  0.27594  1.0000
  O   O27       1.0  0.76762  0.29031  0.77594  1.0000
  O   O28       1.0  0.26767  0.70967  0.72406  1.0000
