data_image0
_chemical_formula_structural       Cd2H18C28S4N14
_chemical_formula_sum              "Cd2 H18 C28 S4 N14"
_cell_length_a       7.59715
_cell_length_b       9.74967
_cell_length_c       14.2349
_cell_angle_alpha    110.006
_cell_angle_beta     105.799
_cell_angle_gamma    89.9599

_space_group_name_H-M_alt    "P 1"
_space_group_IT_number       1

loop_
  _space_group_symop_operation_xyz
  'x, y, z'

loop_
  _atom_site_type_symbol
  _atom_site_label
  _atom_site_symmetry_multiplicity
  _atom_site_fract_x
  _atom_site_fract_y
  _atom_site_fract_z
  _atom_site_occupancy
  Cd  Cd1       1.0  0.00001  1.00000  0.50000  1.0000
  Cd  Cd2       1.0  0.50001  0.50000  0.50000  1.0000
  H   H1        1.0  0.75005  0.25163  0.99996  1.0000
  H   H2        1.0  0.24995  0.74838  0.00004  1.0000
  H   H3        1.0  0.94225  0.32865  0.62146  1.0000
  H   H4        1.0  0.55723  0.70725  0.37810  1.0000
  H   H5        1.0  0.05775  0.67135  0.37854  1.0000
  H   H6        1.0  0.44277  0.29276  0.62189  1.0000
  H   H7        1.0  0.85909  0.48958  0.78000  1.0000
  H   H8        1.0  0.64085  0.70946  0.21965  1.0000
  H   H9        1.0  0.14090  0.51042  0.22000  1.0000
  H   H10       1.0  0.35914  0.29054  0.78034  1.0000
  H   H11       1.0  0.79677  0.09965  0.85319  1.0000
  H   H12       1.0  0.70332  0.24652  0.14681  1.0000
  H   H13       1.0  0.20324  0.90036  0.14681  1.0000
  H   H14       1.0  0.29668  0.75349  0.85319  1.0000
  H   H15       1.0  0.87871  0.95777  0.69319  1.0000
  H   H16       1.0  0.62081  0.26467  0.30663  1.0000
  H   H17       1.0  0.12130  0.04222  0.30681  1.0000
  H   H18       1.0  0.37919  0.73534  0.69337  1.0000
  C   C1        1.0  0.40282  0.85435  0.56606  1.0000
  C   C2        1.0  0.09741  0.28890  0.43464  1.0000
  C   C3        1.0  0.59718  0.14564  0.43395  1.0000
  C   C4        1.0  0.90260  0.71109  0.56536  1.0000
  C   C5        1.0  0.90876  0.28340  0.67544  1.0000
  C   C6        1.0  0.59081  0.60799  0.32424  1.0000
  C   C7        1.0  0.09124  0.71660  0.32456  1.0000
  C   C8        1.0  0.40918  0.39201  0.67576  1.0000
  C   C9        1.0  0.86312  0.37212  0.76323  1.0000
  C   C10       1.0  0.63684  0.60885  0.23652  1.0000
  C   C11       1.0  0.13687  0.62788  0.23677  1.0000
  C   C12       1.0  0.36315  0.39116  0.76348  1.0000
  C   C13       1.0  0.82477  0.30928  0.83145  1.0000
  C   C14       1.0  0.67537  0.47781  0.16840  1.0000
  C   C15       1.0  0.17523  0.69072  0.16855  1.0000
  C   C16       1.0  0.32462  0.52219  0.83160  1.0000
  C   C17       1.0  0.82920  0.15723  0.80554  1.0000
  C   C18       1.0  0.67077  0.35176  0.19438  1.0000
  C   C19       1.0  0.17081  0.84277  0.19446  1.0000
  C   C20       1.0  0.32923  0.64824  0.80562  1.0000
  C   C21       1.0  0.87496  0.07619  0.71572  1.0000
  C   C22       1.0  0.62472  0.36060  0.28414  1.0000
  C   C23       1.0  0.12504  0.92381  0.28428  1.0000
  C   C24       1.0  0.37528  0.63941  0.71586  1.0000
  C   C25       1.0  0.78292  0.40224  0.92538  1.0000
  C   C26       1.0  0.71745  0.47682  0.07450  1.0000
  C   C27       1.0  0.21708  0.59776  0.07462  1.0000
  C   C28       1.0  0.28254  0.52318  0.92549  1.0000
  S   S1        1.0  0.35502  0.01615  0.63004  1.0000
  S   S2        1.0  0.14418  0.38739  0.37085  1.0000
  S   S3        1.0  0.64497  0.98384  0.36997  1.0000
  S   S4        1.0  0.85583  0.61260  0.62914  1.0000
  N   N1        1.0  0.43698  0.73646  0.51930  1.0000
  N   N2        1.0  0.06378  0.21720  0.48116  1.0000
  N   N3        1.0  0.56302  0.26354  0.48069  1.0000
  N   N4        1.0  0.93623  0.78280  0.51884  1.0000
  N   N5        1.0  0.91605  0.13791  0.65215  1.0000
  N   N6        1.0  0.58333  0.48584  0.34759  1.0000
  N   N7        1.0  0.08396  0.86209  0.34786  1.0000
  N   N8        1.0  0.41667  0.51417  0.65241  1.0000
  N   N9        1.0  0.77103  0.54663  0.95352  1.0000
  N   N10       1.0  0.72956  0.59307  0.04638  1.0000
  N   N11       1.0  0.22897  0.45337  0.04647  1.0000
  N   N12       1.0  0.27044  0.40693  0.95362  1.0000
  N   N13       1.0  0.75013  0.35550  0.99994  1.0000
  N   N14       1.0  0.24987  0.64450  0.00006  1.0000
