data_image0
_chemical_formula_structural       Cu4H18C28S4N14
_chemical_formula_sum              "Cu4 H18 C28 S4 N14"
_cell_length_a       6.09418
_cell_length_b       11.293
_cell_length_c       11.8295
_cell_angle_alpha    112.986
_cell_angle_beta     104.716
_cell_angle_gamma    90.1071

_space_group_name_H-M_alt    "P 1"
_space_group_IT_number       1

loop_
  _space_group_symop_operation_xyz
  'x, y, z'

loop_
  _atom_site_type_symbol
  _atom_site_label
  _atom_site_symmetry_multiplicity
  _atom_site_fract_x
  _atom_site_fract_y
  _atom_site_fract_z
  _atom_site_occupancy
  Cu  Cu1       1.0  0.24435  0.44114  0.43499  1.0000
  Cu  Cu2       1.0  0.80823  0.05845  0.56594  1.0000
  Cu  Cu3       1.0  0.75568  0.55886  0.56501  1.0000
  Cu  Cu4       1.0  0.19172  0.94155  0.43406  1.0000
  H   H1        1.0  0.11315  0.74997  0.00031  1.0000
  H   H2        1.0  0.88684  0.25004  0.99968  1.0000
  H   H3        1.0  0.44392  0.57167  0.30832  1.0000
  H   H4        1.0  0.13386  0.92748  0.69120  1.0000
  H   H5        1.0  0.55613  0.42834  0.69168  1.0000
  H   H6        1.0  0.86608  0.07251  0.30878  1.0000
  H   H7        1.0  0.30419  0.68632  0.16937  1.0000
  H   H8        1.0  0.13355  0.81341  0.83087  1.0000
  H   H9        1.0  0.69585  0.31369  0.83063  1.0000
  H   H10       1.0  0.86641  0.18658  0.16911  1.0000
  H   H11       1.0  0.61936  0.52214  0.10978  1.0000
  H   H12       1.0  0.50760  0.97576  0.89118  1.0000
  H   H13       1.0  0.38068  0.47786  0.89021  1.0000
  H   H14       1.0  0.49239  0.02424  0.10883  1.0000
  H   H15       1.0  0.79067  0.41044  0.24927  1.0000
  H   H16       1.0  0.53930  0.08726  0.75126  1.0000
  H   H17       1.0  0.20937  0.58955  0.75073  1.0000
  H   H18       1.0  0.46067  0.91275  0.24876  1.0000
  C   C1        1.0  0.35232  0.74831  0.54885  1.0000
  C   C2        1.0  0.80302  0.75203  0.44997  1.0000
  C   C3        1.0  0.64768  0.25169  0.45115  1.0000
  C   C4        1.0  0.19698  0.24798  0.55003  1.0000
  C   C5        1.0  0.26202  0.56166  0.26131  1.0000
  C   C6        1.0  0.99901  0.93729  0.73860  1.0000
  C   C7        1.0  0.73802  0.43834  0.73869  1.0000
  C   C8        1.0  0.00094  0.06270  0.26139  1.0000
  C   C9        1.0  0.18105  0.62725  0.18380  1.0000
  C   C10       1.0  0.99582  0.87202  0.81653  1.0000
  C   C11       1.0  0.81898  0.37276  0.81620  1.0000
  C   C12       1.0  0.00414  0.12797  0.18346  1.0000
  C   C13       1.0  0.94483  0.61839  0.13073  1.0000
  C   C14       1.0  0.81327  0.88081  0.87059  1.0000
  C   C15       1.0  0.05520  0.38161  0.86927  1.0000
  C   C16       1.0  0.18670  0.11918  0.12941  1.0000
  C   C17       1.0  0.80284  0.53671  0.15308  1.0000
  C   C18       1.0  0.64797  0.96144  0.84769  1.0000
  C   C19       1.0  0.19720  0.46329  0.84692  1.0000
  C   C20       1.0  0.35201  0.03856  0.15232  1.0000
  C   C21       1.0  0.89776  0.47384  0.23026  1.0000
  C   C22       1.0  0.66548  0.02418  0.77012  1.0000
  C   C23       1.0  0.10228  0.52616  0.76973  1.0000
  C   C24       1.0  0.33448  0.97582  0.22988  1.0000
  C   C25       1.0  0.84027  0.69113  0.05746  1.0000
  C   C26       1.0  0.78339  0.80884  0.94492  1.0000
  C   C27       1.0  0.15975  0.30887  0.94254  1.0000
  C   C28       1.0  0.21661  0.19116  0.05509  1.0000
  S   S1        1.0  0.39352  0.64091  0.61063  1.0000
  S   S2        1.0  0.78255  0.85981  0.38859  1.0000
  S   S3        1.0  0.60650  0.35909  0.38937  1.0000
  S   S4        1.0  0.21742  0.14020  0.61141  1.0000
  N   N1        1.0  0.32496  0.82572  0.50363  1.0000
  N   N2        1.0  0.82100  0.67445  0.49502  1.0000
  N   N3        1.0  0.67502  0.17429  0.49637  1.0000
  N   N4        1.0  0.17901  0.32555  0.50498  1.0000
  N   N5        1.0  0.12476  0.48766  0.28763  1.0000
  N   N6        1.0  0.83546  0.01104  0.71258  1.0000
  N   N7        1.0  0.87528  0.51234  0.71237  1.0000
  N   N8        1.0  0.16449  0.98895  0.28742  1.0000
  N   N9        1.0  0.62084  0.71324  0.03679  1.0000
  N   N10       1.0  0.58547  0.78652  0.96679  1.0000
  N   N11       1.0  0.37918  0.28675  0.96322  1.0000
  N   N12       1.0  0.41453  0.21348  0.03322  1.0000
  N   N13       1.0  0.94635  0.74997  0.00080  1.0000
  N   N14       1.0  0.05365  0.25004  0.99920  1.0000
