data_image0
_chemical_formula_structural       K4H40C20S8N4O8
_chemical_formula_sum              "K4 H40 C20 S8 N4 O8"
_cell_length_a       6.61348
_cell_length_b       8.05512
_cell_length_c       17.1738
_cell_angle_alpha    90.0001
_cell_angle_beta     89.9998
_cell_angle_gamma    108.834

_space_group_name_H-M_alt    "P 1"
_space_group_IT_number       1

loop_
  _space_group_symop_operation_xyz
  'x, y, z'

loop_
  _atom_site_type_symbol
  _atom_site_label
  _atom_site_symmetry_multiplicity
  _atom_site_fract_x
  _atom_site_fract_y
  _atom_site_fract_z
  _atom_site_occupancy
  K   K1        1.0  0.30423  0.51915  0.75436  1.0000
  K   K2        1.0  0.69576  0.98085  0.25435  1.0000
  K   K3        1.0  0.69576  0.48085  0.24564  1.0000
  K   K4        1.0  0.30423  0.01915  0.74564  1.0000
  H   H1        1.0  0.72440  0.93648  0.69715  1.0000
  H   H2        1.0  0.27560  0.56351  0.19715  1.0000
  H   H3        1.0  0.27560  0.06350  0.30285  1.0000
  H   H4        1.0  0.72439  0.43649  0.80285  1.0000
  H   H5        1.0  0.12388  0.11933  0.41536  1.0000
  H   H6        1.0  0.87611  0.38068  0.91536  1.0000
  H   H7        1.0  0.87612  0.88068  0.58464  1.0000
  H   H8        1.0  0.12389  0.61932  0.08464  1.0000
  H   H9        1.0  0.30409  0.31665  0.45618  1.0000
  H   H10       1.0  0.69591  0.18336  0.95618  1.0000
  H   H11       1.0  0.69591  0.68335  0.54382  1.0000
  H   H12       1.0  0.30409  0.81665  0.04383  1.0000
  H   H13       1.0  0.70136  0.82952  0.77420  1.0000
  H   H14       1.0  0.29865  0.67047  0.27420  1.0000
  H   H15       1.0  0.29865  0.17046  0.22580  1.0000
  H   H16       1.0  0.70135  0.32953  0.72580  1.0000
  H   H17       1.0  0.08894  0.48995  0.40412  1.0000
  H   H18       1.0  0.91105  0.01006  0.90412  1.0000
  H   H19       1.0  0.91106  0.51006  0.59588  1.0000
  H   H20       1.0  0.08894  0.98994  0.09589  1.0000
  H   H21       1.0  0.14677  0.36227  0.32726  1.0000
  H   H22       1.0  0.85323  0.13774  0.82726  1.0000
  H   H23       1.0  0.85323  0.63774  0.67274  1.0000
  H   H24       1.0  0.14677  0.86225  0.17274  1.0000
  H   H25       1.0  0.54718  0.19927  0.41902  1.0000
  H   H26       1.0  0.45282  0.30073  0.91902  1.0000
  H   H27       1.0  0.45282  0.80073  0.58098  1.0000
  H   H28       1.0  0.54718  0.69927  0.08098  1.0000
  H   H29       1.0  0.73269  0.39420  0.45785  1.0000
  H   H30       1.0  0.26731  0.10580  0.95785  1.0000
  H   H31       1.0  0.26731  0.60579  0.54215  1.0000
  H   H32       1.0  0.73269  0.89420  0.04215  1.0000
  H   H33       1.0  0.69196  0.15236  0.55075  1.0000
  H   H34       1.0  0.30805  0.34764  0.05075  1.0000
  H   H35       1.0  0.30804  0.84764  0.44925  1.0000
  H   H36       1.0  0.69196  0.65237  0.94925  1.0000
  H   H37       1.0  0.73880  0.01547  0.47530  1.0000
  H   H38       1.0  0.26120  0.48453  0.97529  1.0000
  H   H39       1.0  0.26120  0.98452  0.52470  1.0000
  H   H40       1.0  0.73880  0.51547  0.02470  1.0000
  C   C1        1.0  0.09774  0.23889  0.58401  1.0000
  C   C2        1.0  0.90225  0.26111  0.08401  1.0000
  C   C3        1.0  0.90225  0.76110  0.41599  1.0000
  C   C4        1.0  0.09776  0.73890  0.91599  1.0000
  C   C5        1.0  0.13706  0.24822  0.44074  1.0000
  C   C6        1.0  0.86293  0.25178  0.94074  1.0000
  C   C7        1.0  0.86293  0.75178  0.55926  1.0000
  C   C8        1.0  0.13707  0.74822  0.05926  1.0000
  C   C9        1.0  0.06029  0.35552  0.38224  1.0000
  C   C10       1.0  0.93970  0.14448  0.88224  1.0000
  C   C11       1.0  0.93971  0.64448  0.61776  1.0000
  C   C12       1.0  0.06029  0.85552  0.11776  1.0000
  C   C13       1.0  0.71468  0.26190  0.43534  1.0000
  C   C14       1.0  0.28532  0.23810  0.93533  1.0000
  C   C15       1.0  0.28532  0.73809  0.56466  1.0000
  C   C16       1.0  0.71468  0.76191  0.06466  1.0000
  C   C17       1.0  0.77893  0.15179  0.49648  1.0000
  C   C18       1.0  0.22107  0.34821  0.99648  1.0000
  C   C19       1.0  0.22107  0.84820  0.50352  1.0000
  C   C20       1.0  0.77893  0.65180  0.00352  1.0000
  S   S1        1.0  0.93522  0.19577  0.66610  1.0000
  S   S2        1.0  0.06477  0.30422  0.16610  1.0000
  S   S3        1.0  0.06477  0.80422  0.33390  1.0000
  S   S4        1.0  0.93524  0.69578  0.83390  1.0000
  S   S5        1.0  0.36853  0.30435  0.59541  1.0000
  S   S6        1.0  0.63147  0.19565  0.09541  1.0000
  S   S7        1.0  0.63147  0.69565  0.40459  1.0000
  S   S8        1.0  0.36854  0.80436  0.90459  1.0000
  N   N1        1.0  0.00875  0.22053  0.51197  1.0000
  N   N2        1.0  0.99125  0.27948  0.01196  1.0000
  N   N3        1.0  0.99125  0.77947  0.48804  1.0000
  N   N4        1.0  0.00875  0.72053  0.98804  1.0000
  O   O1        1.0  0.83703  0.27662  0.36473  1.0000
  O   O2        1.0  0.16297  0.22339  0.86473  1.0000
  O   O3        1.0  0.16297  0.72338  0.63527  1.0000
  O   O4        1.0  0.83702  0.77660  0.13527  1.0000
  O   O5        1.0  0.62053  0.84260  0.72778  1.0000
  O   O6        1.0  0.37948  0.65738  0.22778  1.0000
  O   O7        1.0  0.37948  0.15736  0.27222  1.0000
  O   O8        1.0  0.62052  0.34263  0.77222  1.0000
