data_image0
_chemical_formula_structural       Co4H36C24O22
_chemical_formula_sum              "Co4 H36 C24 O22"
_cell_length_a       7.72944
_cell_length_b       9.73837
_cell_length_c       10.844
_cell_angle_alpha    98.1963
_cell_angle_beta     110.879
_cell_angle_gamma    90.0231

_space_group_name_H-M_alt    "P 1"
_space_group_IT_number       1

loop_
  _space_group_symop_operation_xyz
  'x, y, z'

loop_
  _atom_site_type_symbol
  _atom_site_label
  _atom_site_symmetry_multiplicity
  _atom_site_fract_x
  _atom_site_fract_y
  _atom_site_fract_z
  _atom_site_occupancy
  Co  Co1       1.0  0.65157  0.06964  0.95055  1.0000
  Co  Co2       1.0  0.70096  0.43037  0.04941  1.0000
  Co  Co3       1.0  0.34842  0.93041  0.04946  1.0000
  Co  Co4       1.0  0.29901  0.56960  0.95061  1.0000
  H   H1        1.0  0.38771  0.60628  0.58802  1.0000
  H   H2        1.0  0.80032  0.89381  0.41205  1.0000
  H   H3        1.0  0.61229  0.39371  0.41199  1.0000
  H   H4        1.0  0.19973  0.10621  0.58795  1.0000
  H   H5        1.0  0.62723  0.60658  0.60637  1.0000
  H   H6        1.0  0.02131  0.89336  0.39350  1.0000
  H   H7        1.0  0.37276  0.39341  0.39364  1.0000
  H   H8        1.0  0.97869  0.10665  0.60648  1.0000
  H   H9        1.0  0.58660  0.80832  0.48060  1.0000
  H   H10       1.0  0.10623  0.69165  0.51940  1.0000
  H   H11       1.0  0.41341  0.19168  0.51941  1.0000
  H   H12       1.0  0.89379  0.30838  0.48061  1.0000
  H   H13       1.0  0.34719  0.75384  0.40704  1.0000
  H   H14       1.0  0.94052  0.74633  0.59301  1.0000
  H   H15       1.0  0.65280  0.24615  0.59297  1.0000
  H   H16       1.0  0.05950  0.25369  0.40700  1.0000
  H   H17       1.0  0.29127  0.89213  0.60238  1.0000
  H   H18       1.0  0.68891  0.60824  0.39786  1.0000
  H   H19       1.0  0.70873  0.10786  0.39763  1.0000
  H   H20       1.0  0.31111  0.39177  0.60216  1.0000
  H   H21       1.0  0.49744  0.99310  0.62785  1.0000
  H   H22       1.0  0.86922  0.50697  0.37227  1.0000
  H   H23       1.0  0.50258  0.00691  0.37216  1.0000
  H   H24       1.0  0.13080  0.49304  0.62774  1.0000
  H   H25       1.0  0.86823  0.25848  0.91970  1.0000
  H   H26       1.0  0.94850  0.24156  0.08020  1.0000
  H   H27       1.0  0.13179  0.74149  0.08029  1.0000
  H   H28       1.0  0.05149  0.75842  0.91978  1.0000
  H   H29       1.0  0.98526  0.99759  0.13154  1.0000
  H   H30       1.0  0.85348  0.50240  0.86821  1.0000
  H   H31       1.0  0.01471  0.00242  0.86847  1.0000
  H   H32       1.0  0.14642  0.49759  0.13170  1.0000
  H   H33       1.0  0.80886  0.95276  0.16932  1.0000
  H   H34       1.0  0.63965  0.54767  0.83080  1.0000
  H   H35       1.0  0.19116  0.04725  0.83068  1.0000
  H   H36       1.0  0.36042  0.45243  0.16926  1.0000
  C   C1        1.0  0.74957  0.84104  0.78648  1.0000
  C   C2        1.0  0.96318  0.65887  0.21356  1.0000
  C   C3        1.0  0.25040  0.15897  0.21351  1.0000
  C   C4        1.0  0.03683  0.34113  0.78644  1.0000
  C   C5        1.0  0.54378  0.79344  0.71626  1.0000
  C   C6        1.0  0.82763  0.70654  0.28376  1.0000
  C   C7        1.0  0.45620  0.20658  0.28374  1.0000
  C   C8        1.0  0.17235  0.29345  0.71623  1.0000
  C   C9        1.0  0.46269  0.77806  0.82293  1.0000
  C   C10       1.0  0.63994  0.72194  0.17706  1.0000
  C   C11       1.0  0.53730  0.22194  0.17708  1.0000
  C   C12       1.0  0.36003  0.27802  0.82292  1.0000
  C   C13       1.0  0.50970  0.67174  0.60023  1.0000
  C   C14       1.0  0.90988  0.82825  0.39974  1.0000
  C   C15       1.0  0.49029  0.32826  0.39977  1.0000
  C   C16       1.0  0.09014  0.17174  0.60027  1.0000
  C   C17       1.0  0.46431  0.77889  0.50188  1.0000
  C   C18       1.0  0.96274  0.72116  0.49816  1.0000
  C   C19       1.0  0.53569  0.22112  0.49812  1.0000
  C   C20       1.0  0.03728  0.27885  0.50186  1.0000
  C   C21       1.0  0.43685  0.88751  0.61120  1.0000
  C   C22       1.0  0.82559  0.61264  0.38891  1.0000
  C   C23       1.0  0.56316  0.11250  0.38880  1.0000
  C   C24       1.0  0.17443  0.38738  0.61112  1.0000
  O   O1        1.0  0.79025  0.97147  0.83264  1.0000
  O   O2        1.0  0.95756  0.52845  0.16729  1.0000
  O   O3        1.0  0.20978  0.02851  0.16736  1.0000
  O   O4        1.0  0.04245  0.47155  0.83267  1.0000
  O   O5        1.0  0.86760  0.75074  0.79589  1.0000
  O   O6        1.0  0.07184  0.74917  0.20418  1.0000
  O   O7        1.0  0.13238  0.24927  0.20415  1.0000
  O   O8        1.0  0.92817  0.25082  0.79582  1.0000
  O   O9        1.0  0.47894  0.88608  0.91061  1.0000
  O   O10       1.0  0.56869  0.61409  0.08913  1.0000
  O   O11       1.0  0.52107  0.11395  0.08939  1.0000
  O   O12       1.0  0.43127  0.38590  0.91086  1.0000
  O   O13       1.0  0.38430  0.66302  0.82003  1.0000
  O   O14       1.0  0.56438  0.83689  0.18015  1.0000
  O   O15       1.0  0.61573  0.33695  0.17996  1.0000
  O   O16       1.0  0.43565  0.16312  0.81987  1.0000
  O   O17       1.0  0.83064  0.25006  0.99998  1.0000
  O   O18       1.0  0.16934  0.74994  0.00002  1.0000
  O   O19       1.0  0.84611  0.99155  0.10415  1.0000
  O   O20       1.0  0.74158  0.50791  0.89543  1.0000
  O   O21       1.0  0.15388  0.00845  0.89584  1.0000
  O   O22       1.0  0.25832  0.49195  0.10448  1.0000
