data_image0
_chemical_formula_structural       Cu4H32C24O20
_chemical_formula_sum              "Cu4 H32 C24 O20"
_cell_length_a       5.4904
_cell_length_b       7.06021
_cell_length_c       18.2142
_cell_angle_alpha    89.9999
_cell_angle_beta     89.9991
_cell_angle_gamma    90

_space_group_name_H-M_alt    "P 1"
_space_group_IT_number       1

loop_
  _space_group_symop_operation_xyz
  'x, y, z'

loop_
  _atom_site_type_symbol
  _atom_site_label
  _atom_site_symmetry_multiplicity
  _atom_site_fract_x
  _atom_site_fract_y
  _atom_site_fract_z
  _atom_site_occupancy
  Cu  Cu1       1.0  0.83414  0.75000  0.80133  1.0000
  Cu  Cu2       1.0  0.33415  0.25000  0.69865  1.0000
  Cu  Cu3       1.0  0.16600  0.25000  0.19865  1.0000
  Cu  Cu4       1.0  0.66599  0.75000  0.30136  1.0000
  H   H1        1.0  0.34485  0.75001  0.88392  1.0000
  H   H2        1.0  0.84489  0.25002  0.61607  1.0000
  H   H3        1.0  0.65520  0.25004  0.11603  1.0000
  H   H4        1.0  0.15518  0.75002  0.38397  1.0000
  H   H5        1.0  0.13436  0.75001  0.94131  1.0000
  H   H6        1.0  0.63439  0.25001  0.55868  1.0000
  H   H7        1.0  0.86558  0.25002  0.05861  1.0000
  H   H8        1.0  0.36556  0.75001  0.44139  1.0000
  H   H9        1.0  0.08879  0.12352  0.85620  1.0000
  H   H10       1.0  0.58881  0.87648  0.64379  1.0000
  H   H11       1.0  0.91123  0.62352  0.14376  1.0000
  H   H12       1.0  0.41121  0.37648  0.35625  1.0000
  H   H13       1.0  0.91122  0.87648  0.14376  1.0000
  H   H14       1.0  0.41121  0.12351  0.35625  1.0000
  H   H15       1.0  0.08879  0.37649  0.85620  1.0000
  H   H16       1.0  0.58881  0.62352  0.64379  1.0000
  H   H17       1.0  0.15324  0.37651  0.99039  1.0000
  H   H18       1.0  0.65326  0.62349  0.50960  1.0000
  H   H19       1.0  0.84676  0.87651  0.00958  1.0000
  H   H20       1.0  0.34673  0.12349  0.49044  1.0000
  H   H21       1.0  0.84676  0.62350  0.00957  1.0000
  H   H22       1.0  0.34673  0.37650  0.49044  1.0000
  H   H23       1.0  0.15323  0.12350  0.99039  1.0000
  H   H24       1.0  0.65325  0.87650  0.50960  1.0000
  H   H25       1.0  0.59512  0.12294  0.96921  1.0000
  H   H26       1.0  0.09514  0.87706  0.53078  1.0000
  H   H27       1.0  0.40487  0.62294  0.03076  1.0000
  H   H28       1.0  0.90484  0.37706  0.46925  1.0000
  H   H29       1.0  0.40487  0.87706  0.03076  1.0000
  H   H30       1.0  0.90484  0.12294  0.46925  1.0000
  H   H31       1.0  0.59512  0.37706  0.96921  1.0000
  H   H32       1.0  0.09514  0.62294  0.53078  1.0000
  C   C1        1.0  0.46315  0.25000  0.86569  1.0000
  C   C2        1.0  0.96317  0.75000  0.63429  1.0000
  C   C3        1.0  0.53685  0.75000  0.13427  1.0000
  C   C4        1.0  0.03684  0.25000  0.36574  1.0000
  C   C5        1.0  0.17771  0.25000  0.87812  1.0000
  C   C6        1.0  0.67774  0.75000  0.62187  1.0000
  C   C7        1.0  0.82229  0.75000  0.12185  1.0000
  C   C8        1.0  0.32228  0.25000  0.37817  1.0000
  C   C9        1.0  0.22113  0.25000  0.96194  1.0000
  C   C10       1.0  0.72114  0.75000  0.53805  1.0000
  C   C11       1.0  0.77887  0.75000  0.03803  1.0000
  C   C12       1.0  0.27884  0.24999  0.46199  1.0000
  C   C13       1.0  0.50052  0.25000  0.94980  1.0000
  C   C14       1.0  0.00054  0.75000  0.55019  1.0000
  C   C15       1.0  0.49947  0.75000  0.05017  1.0000
  C   C16       1.0  0.99944  0.25000  0.44984  1.0000
  C   C17       1.0  0.54837  0.42563  0.82442  1.0000
  C   C18       1.0  0.04839  0.57438  0.67556  1.0000
  C   C19       1.0  0.45162  0.92557  0.17557  1.0000
  C   C20       1.0  0.95162  0.07442  0.32445  1.0000
  C   C21       1.0  0.45163  0.57442  0.17557  1.0000
  C   C22       1.0  0.95161  0.42557  0.32445  1.0000
  C   C23       1.0  0.54837  0.07437  0.82443  1.0000
  C   C24       1.0  0.04839  0.92562  0.67556  1.0000
  O   O1        1.0  0.66567  0.55210  0.86005  1.0000
  O   O2        1.0  0.16570  0.44791  0.63993  1.0000
  O   O3        1.0  0.33428  0.05209  0.13997  1.0000
  O   O4        1.0  0.83429  0.94789  0.36004  1.0000
  O   O5        1.0  0.33430  0.44789  0.13997  1.0000
  O   O6        1.0  0.83427  0.55209  0.36004  1.0000
  O   O7        1.0  0.66567  0.94791  0.86005  1.0000
  O   O8        1.0  0.16571  0.05209  0.63993  1.0000
  O   O9        1.0  0.49724  0.44515  0.75682  1.0000
  O   O10       1.0  0.99724  0.55486  0.74317  1.0000
  O   O11       1.0  0.50270  0.94499  0.24317  1.0000
  O   O12       1.0  0.00270  0.05500  0.25684  1.0000
  O   O13       1.0  0.50269  0.55501  0.24317  1.0000
  O   O14       1.0  0.00270  0.44499  0.25683  1.0000
  O   O15       1.0  0.49723  0.05486  0.75682  1.0000
  O   O16       1.0  0.99723  0.94515  0.74317  1.0000
  O   O17       1.0  0.16746  0.75000  0.88891  1.0000
  O   O18       1.0  0.66749  0.24998  0.61108  1.0000
  O   O19       1.0  0.83257  0.24998  0.11101  1.0000
  O   O20       1.0  0.33256  0.74998  0.38899  1.0000
