data_image0
_chemical_formula_structural       Zn2H44C68N8O8
_chemical_formula_sum              "Zn2 H44 C68 N8 O8"
_cell_length_a       11.7468
_cell_length_b       11.7468
_cell_length_c       12.4425
_cell_angle_alpha    65.9415
_cell_angle_beta     65.9419
_cell_angle_gamma    67.2865

_space_group_name_H-M_alt    "P 1"
_space_group_IT_number       1

loop_
  _space_group_symop_operation_xyz
  'x, y, z'

loop_
  _atom_site_type_symbol
  _atom_site_label
  _atom_site_symmetry_multiplicity
  _atom_site_fract_x
  _atom_site_fract_y
  _atom_site_fract_z
  _atom_site_occupancy
  Zn  Zn1       1.0  0.41748  0.58251  0.75000  1.0000
  Zn  Zn2       1.0  0.58252  0.41748  0.25000  1.0000
  H   H1        1.0  0.86840  0.59682  0.70461  1.0000
  H   H2        1.0  0.40318  0.13159  0.79539  1.0000
  H   H3        1.0  0.13159  0.40318  0.29539  1.0000
  H   H4        1.0  0.59682  0.86841  0.20461  1.0000
  H   H5        1.0  0.96147  0.70662  0.73446  1.0000
  H   H6        1.0  0.29338  0.03853  0.76554  1.0000
  H   H7        1.0  0.03853  0.29338  0.26554  1.0000
  H   H8        1.0  0.70662  0.96147  0.23446  1.0000
  H   H9        1.0  0.13318  0.68514  0.81130  1.0000
  H   H10       1.0  0.31485  0.86682  0.68871  1.0000
  H   H11       1.0  0.86682  0.31485  0.18871  1.0000
  H   H12       1.0  0.68515  0.13318  0.31129  1.0000
  H   H13       1.0  0.41982  0.61137  0.49340  1.0000
  H   H14       1.0  0.38863  0.58017  0.00660  1.0000
  H   H15       1.0  0.58018  0.38863  0.50660  1.0000
  H   H16       1.0  0.61137  0.41982  0.99340  1.0000
  H   H17       1.0  0.25929  0.62749  0.40513  1.0000
  H   H18       1.0  0.37251  0.74071  0.09488  1.0000
  H   H19       1.0  0.74071  0.37251  0.59488  1.0000
  H   H20       1.0  0.62749  0.25930  0.90512  1.0000
  H   H21       1.0  0.09722  0.72502  0.32618  1.0000
  H   H22       1.0  0.27497  0.90278  0.17383  1.0000
  H   H23       1.0  0.90278  0.27498  0.67382  1.0000
  H   H24       1.0  0.72503  0.09723  0.82618  1.0000
  H   H25       1.0  0.72803  0.66116  0.41177  1.0000
  H   H26       1.0  0.33884  0.27197  0.08823  1.0000
  H   H27       1.0  0.27197  0.33883  0.58822  1.0000
  H   H28       1.0  0.66116  0.72803  0.91177  1.0000
  H   H29       1.0  0.03765  0.87255  0.15435  1.0000
  H   H30       1.0  0.12745  0.96235  0.34565  1.0000
  H   H31       1.0  0.96235  0.12745  0.84565  1.0000
  H   H32       1.0  0.87255  0.03765  0.65435  1.0000
  H   H33       1.0  0.07750  0.90234  0.93410  1.0000
  H   H34       1.0  0.09766  0.92250  0.56590  1.0000
  H   H35       1.0  0.92250  0.09766  0.06590  1.0000
  H   H36       1.0  0.90234  0.07750  0.43410  1.0000
  H   H37       1.0  0.90053  0.61901  0.02147  1.0000
  H   H38       1.0  0.38099  0.09947  0.47853  1.0000
  H   H39       1.0  0.09947  0.38099  0.97853  1.0000
  H   H40       1.0  0.61901  0.90054  0.52147  1.0000
  H   H41       1.0  0.84746  0.58102  0.24558  1.0000
  H   H42       1.0  0.41899  0.15254  0.25441  1.0000
  H   H43       1.0  0.15254  0.41899  0.75441  1.0000
  H   H44       1.0  0.58101  0.84746  0.74559  1.0000
  C   C1        1.0  0.66792  0.59057  0.66114  1.0000
  C   C2        1.0  0.40944  0.33208  0.83886  1.0000
  C   C3        1.0  0.33208  0.40943  0.33886  1.0000
  C   C4        1.0  0.59056  0.66792  0.16114  1.0000
  C   C5        1.0  0.78778  0.62724  0.56636  1.0000
  C   C6        1.0  0.37276  0.21221  0.93364  1.0000
  C   C7        1.0  0.21222  0.37276  0.43364  1.0000
  C   C8        1.0  0.62724  0.78779  0.06636  1.0000
  C   C9        1.0  0.88281  0.62825  0.60563  1.0000
  C   C10       1.0  0.37175  0.11718  0.89437  1.0000
  C   C11       1.0  0.11719  0.37175  0.39437  1.0000
  C   C12       1.0  0.62825  0.88282  0.10563  1.0000
  C   C13       1.0  0.99407  0.66604  0.52000  1.0000
  C   C14       1.0  0.33396  0.00592  0.98001  1.0000
  C   C15       1.0  0.00593  0.33396  0.48000  1.0000
  C   C16       1.0  0.66603  0.99408  0.01999  1.0000
  C   C17       1.0  0.09414  0.66489  0.56340  1.0000
  C   C18       1.0  0.33510  0.90585  0.93660  1.0000
  C   C19       1.0  0.90586  0.33511  0.43660  1.0000
  C   C20       1.0  0.66489  0.09415  0.06340  1.0000
  C   C21       1.0  0.06170  0.68300  0.67834  1.0000
  C   C22       1.0  0.31700  0.93829  0.82167  1.0000
  C   C23       1.0  0.93829  0.31700  0.32167  1.0000
  C   C24       1.0  0.68300  0.06171  0.17833  1.0000
  C   C25       1.0  0.15829  0.67081  0.72211  1.0000
  C   C26       1.0  0.32918  0.84171  0.77789  1.0000
  C   C27       1.0  0.84171  0.32918  0.27789  1.0000
  C   C28       1.0  0.67082  0.15829  0.22211  1.0000
  C   C29       1.0  0.31740  0.63113  0.54475  1.0000
  C   C30       1.0  0.36887  0.68260  0.95526  1.0000
  C   C31       1.0  0.68260  0.36887  0.45526  1.0000
  C   C32       1.0  0.63113  0.31740  0.04474  1.0000
  C   C33       1.0  0.22562  0.64221  0.49512  1.0000
  C   C34       1.0  0.35779  0.77438  0.00489  1.0000
  C   C35       1.0  0.77438  0.35779  0.50488  1.0000
  C   C36       1.0  0.64221  0.22562  0.99511  1.0000
  C   C37       1.0  0.00956  0.69919  0.39405  1.0000
  C   C38       1.0  0.30081  0.99043  0.10595  1.0000
  C   C39       1.0  0.99044  0.30081  0.60595  1.0000
  C   C40       1.0  0.69919  0.00957  0.89405  1.0000
  C   C41       1.0  0.91642  0.69576  0.35315  1.0000
  C   C42       1.0  0.30425  0.08358  0.14685  1.0000
  C   C43       1.0  0.08358  0.30424  0.64685  1.0000
  C   C44       1.0  0.69576  0.91643  0.85315  1.0000
  C   C45       1.0  0.80414  0.66141  0.44047  1.0000
  C   C46       1.0  0.33859  0.19585  0.05953  1.0000
  C   C47       1.0  0.19586  0.33859  0.55953  1.0000
  C   C48       1.0  0.66141  0.80415  0.94046  1.0000
  C   C49       1.0  0.93933  0.72247  0.22041  1.0000
  C   C50       1.0  0.27753  0.06067  0.27959  1.0000
  C   C51       1.0  0.06068  0.27753  0.77959  1.0000
  C   C52       1.0  0.72246  0.93933  0.72041  1.0000
  C   C53       1.0  0.00496  0.81406  0.12945  1.0000
  C   C54       1.0  0.18594  0.99504  0.37055  1.0000
  C   C55       1.0  0.99504  0.18593  0.87055  1.0000
  C   C56       1.0  0.81407  0.00496  0.62945  1.0000
  C   C57       1.0  0.02727  0.83086  0.00581  1.0000
  C   C58       1.0  0.16914  0.97273  0.49419  1.0000
  C   C59       1.0  0.97273  0.16914  0.99419  1.0000
  C   C60       1.0  0.83086  0.02727  0.50581  1.0000
  C   C61       1.0  0.92900  0.67473  0.05384  1.0000
  C   C62       1.0  0.32527  0.07100  0.44615  1.0000
  C   C63       1.0  0.07100  0.32527  0.94615  1.0000
  C   C64       1.0  0.67473  0.92900  0.55385  1.0000
  C   C65       1.0  0.89925  0.65311  0.17974  1.0000
  C   C66       1.0  0.34689  0.10075  0.32026  1.0000
  C   C67       1.0  0.10075  0.34689  0.82026  1.0000
  C   C68       1.0  0.65311  0.89926  0.67974  1.0000
  N   N1        1.0  0.28460  0.64247  0.65784  1.0000
  N   N2        1.0  0.35752  0.71539  0.84216  1.0000
  N   N3        1.0  0.71540  0.35752  0.34216  1.0000
  N   N4        1.0  0.64248  0.28461  0.15784  1.0000
  N   N5        1.0  0.99189  0.76219  0.96672  1.0000
  N   N6        1.0  0.23782  0.00811  0.53328  1.0000
  N   N7        1.0  0.00811  0.23782  0.03328  1.0000
  N   N8        1.0  0.76219  0.99189  0.46672  1.0000
  O   O1        1.0  0.57495  0.61502  0.61706  1.0000
  O   O2        1.0  0.38499  0.42505  0.88294  1.0000
  O   O3        1.0  0.42505  0.38498  0.38294  1.0000
  O   O4        1.0  0.61501  0.57495  0.11706  1.0000
  O   O5        1.0  0.66212  0.54167  0.77268  1.0000
  O   O6        1.0  0.45832  0.33788  0.72732  1.0000
  O   O7        1.0  0.33788  0.45833  0.22732  1.0000
  O   O8        1.0  0.54168  0.66212  0.27268  1.0000
