data_image0
_chemical_formula_structural       Cd6H18C34N4O22
_chemical_formula_sum              "Cd6 H18 C34 N4 O22"
_cell_length_a       9.41868
_cell_length_b       9.68485
_cell_length_c       11.0378
_cell_angle_alpha    76.4607
_cell_angle_beta     84.9074
_cell_angle_gamma    68.0697

_space_group_name_H-M_alt    "P 1"
_space_group_IT_number       1

loop_
  _space_group_symop_operation_xyz
  'x, y, z'

loop_
  _atom_site_type_symbol
  _atom_site_label
  _atom_site_symmetry_multiplicity
  _atom_site_fract_x
  _atom_site_fract_y
  _atom_site_fract_z
  _atom_site_occupancy
  Cd  Cd1       1.0  0.48556  0.88921  0.71073  1.0000
  Cd  Cd2       1.0  0.51444  0.11078  0.28927  1.0000
  Cd  Cd3       1.0  0.38168  0.22376  0.87813  1.0000
  Cd  Cd4       1.0  0.61832  0.77624  0.12187  1.0000
  Cd  Cd5       1.0  0.87270  0.83550  0.54277  1.0000
  Cd  Cd6       1.0  0.12730  0.16450  0.45723  1.0000
  H   H1        1.0  0.97086  0.64327  0.02976  1.0000
  H   H2        1.0  0.02914  0.35673  0.97024  1.0000
  H   H3        1.0  0.11558  0.07432  0.79205  1.0000
  H   H4        1.0  0.88442  0.92568  0.20795  1.0000
  H   H5        1.0  0.88782  0.03978  0.72888  1.0000
  H   H6        1.0  0.11218  0.96023  0.27112  1.0000
  H   H7        1.0  0.19869  0.68122  0.09347  1.0000
  H   H8        1.0  0.80131  0.31878  0.90653  1.0000
  H   H9        1.0  0.69673  0.52121  0.62287  1.0000
  H   H10       1.0  0.30327  0.47879  0.37713  1.0000
  H   H11       1.0  0.36990  0.71333  0.32330  1.0000
  H   H12       1.0  0.63010  0.28667  0.67670  1.0000
  H   H13       1.0  0.55123  0.50819  0.89982  1.0000
  H   H14       1.0  0.44877  0.49181  0.10018  1.0000
  H   H15       1.0  0.92943  0.68154  0.32370  1.0000
  H   H16       1.0  0.07057  0.31846  0.67630  1.0000
  H   H17       1.0  0.06569  0.62242  0.41923  1.0000
  H   H18       1.0  0.93431  0.37758  0.58077  1.0000
  C   C1        1.0  0.27921  0.70418  0.70166  1.0000
  C   C2        1.0  0.72079  0.29582  0.29833  1.0000
  C   C3        1.0  0.00392  0.73673  0.97716  1.0000
  C   C4        1.0  0.99608  0.26328  0.02284  1.0000
  C   C5        1.0  0.08425  0.97958  0.84317  1.0000
  C   C6        1.0  0.91575  0.02042  0.15683  1.0000
  C   C7        1.0  0.57944  0.76888  0.44027  1.0000
  C   C8        1.0  0.42056  0.23112  0.55973  1.0000
  C   C9        1.0  0.95714  0.95929  0.80727  1.0000
  C   C10       1.0  0.04286  0.04071  0.19273  1.0000
  C   C11       1.0  0.21290  0.83846  0.60079  1.0000
  C   C12       1.0  0.78710  0.16154  0.39921  1.0000
  C   C13       1.0  0.17209  0.87937  0.94556  1.0000
  C   C14       1.0  0.82791  0.12063  0.05444  1.0000
  C   C15       1.0  0.13111  0.75778  0.01278  1.0000
  C   C16       1.0  0.86889  0.24222  0.98722  1.0000
  C   C17       1.0  0.91621  0.83762  0.87439  1.0000
  C   C18       1.0  0.08379  0.16238  0.12561  1.0000
  C   C19       1.0  0.61194  0.50953  0.56884  1.0000
  C   C20       1.0  0.38806  0.49047  0.43116  1.0000
  C   C21       1.0  0.42682  0.61949  0.40008  1.0000
  C   C22       1.0  0.57318  0.38051  0.59992  1.0000
  C   C23       1.0  0.53960  0.62925  0.46898  1.0000
  C   C24       1.0  0.46040  0.37074  0.53102  1.0000
  C   C25       1.0  0.24944  0.56964  0.74703  1.0000
  C   C26       1.0  0.75056  0.43036  0.25297  1.0000
  C   C27       1.0  0.30963  0.90310  0.98029  1.0000
  C   C28       1.0  0.69037  0.09690  0.01971  1.0000
  C   C29       1.0  0.13149  0.51333  0.72055  1.0000
  C   C30       1.0  0.86851  0.48667  0.27945  1.0000
  C   C31       1.0  0.45143  0.55260  0.84014  1.0000
  C   C32       1.0  0.54857  0.44740  0.15986  1.0000
  C   C33       1.0  0.77557  0.82172  0.83858  1.0000
  C   C34       1.0  0.22442  0.17828  0.16142  1.0000
  N   N1        1.0  0.40636  0.69098  0.76317  1.0000
  N   N2        1.0  0.59364  0.30902  0.23684  1.0000
  N   N3        1.0  0.36073  0.47552  0.83348  1.0000
  N   N4        1.0  0.63927  0.52448  0.16652  1.0000
  O   O1        1.0  0.36459  0.98805  0.89715  1.0000
  O   O2        1.0  0.63541  0.01195  0.10285  1.0000
  O   O3        1.0  0.63560  0.79793  0.52818  1.0000
  O   O4        1.0  0.36440  0.20207  0.47183  1.0000
  O   O5        1.0  0.27067  0.94409  0.58580  1.0000
  O   O6        1.0  0.72934  0.05591  0.41420  1.0000
  O   O7        1.0  0.11078  0.85015  0.52883  1.0000
  O   O8        1.0  0.88922  0.14985  0.47118  1.0000
  O   O9        1.0  0.36675  0.83653  0.08754  1.0000
  O   O10       1.0  0.63325  0.16348  0.91246  1.0000
  O   O11       1.0  0.15952  0.36925  0.76310  1.0000
  O   O12       1.0  0.84048  0.63075  0.23690  1.0000
  O   O13       1.0  0.01001  0.59756  0.66066  1.0000
  O   O14       1.0  0.99000  0.40244  0.33934  1.0000
  O   O15       1.0  0.73135  0.87706  0.72389  1.0000
  O   O16       1.0  0.26865  0.12293  0.27611  1.0000
  O   O17       1.0  0.69862  0.76056  0.91735  1.0000
  O   O18       1.0  0.30138  0.23944  0.08265  1.0000
  O   O19       1.0  0.55332  0.85319  0.33047  1.0000
  O   O20       1.0  0.44668  0.14680  0.66953  1.0000
  O   O21       1.0  0.98323  0.71479  0.38052  1.0000
  O   O22       1.0  0.01677  0.28521  0.61948  1.0000
