data_image0
_chemical_formula_structural       Hg2H20C28S4I4N8
_chemical_formula_sum              "Hg2 H20 C28 S4 I4 N8"
_cell_length_a       9.76852
_cell_length_b       10.4462
_cell_length_c       10.4462
_cell_angle_alpha    74.5496
_cell_angle_beta     69.2861
_cell_angle_gamma    69.2858

_space_group_name_H-M_alt    "P 1"
_space_group_IT_number       1

loop_
  _space_group_symop_operation_xyz
  'x, y, z'

loop_
  _atom_site_type_symbol
  _atom_site_label
  _atom_site_symmetry_multiplicity
  _atom_site_fract_x
  _atom_site_fract_y
  _atom_site_fract_z
  _atom_site_occupancy
  Hg  Hg1       1.0  0.75000  0.73992  0.26008  1.0000
  Hg  Hg2       1.0  0.25000  0.26008  0.73992  1.0000
  H   H1        1.0  0.95837  0.11212  0.37295  1.0000
  H   H2        1.0  0.54163  0.62704  0.88788  1.0000
  H   H3        1.0  0.04163  0.88788  0.62704  1.0000
  H   H4        1.0  0.45837  0.37296  0.11212  1.0000
  H   H5        1.0  0.90110  0.31284  0.18438  1.0000
  H   H6        1.0  0.59890  0.81561  0.68717  1.0000
  H   H7        1.0  0.09890  0.68717  0.81561  1.0000
  H   H8        1.0  0.40110  0.18438  0.31283  1.0000
  H   H9        1.0  0.77340  0.28880  0.02370  1.0000
  H   H10       1.0  0.72659  0.97629  0.71121  1.0000
  H   H11       1.0  0.22659  0.71120  0.97629  1.0000
  H   H12       1.0  0.27341  0.02371  0.28879  1.0000
  H   H13       1.0  0.70800  0.07145  0.05825  1.0000
  H   H14       1.0  0.79199  0.94175  0.92856  1.0000
  H   H15       1.0  0.29200  0.92855  0.94175  1.0000
  H   H16       1.0  0.20801  0.05825  0.07145  1.0000
  H   H17       1.0  0.11170  0.58463  0.52958  1.0000
  H   H18       1.0  0.38830  0.47042  0.41538  1.0000
  H   H19       1.0  0.88830  0.41537  0.47042  1.0000
  H   H20       1.0  0.61170  0.52958  0.58463  1.0000
  C   C1        1.0  0.87078  0.98576  0.30702  1.0000
  C   C2        1.0  0.62922  0.69297  0.01425  1.0000
  C   C3        1.0  0.12922  0.01424  0.69297  1.0000
  C   C4        1.0  0.37078  0.30703  0.98576  1.0000
  C   C5        1.0  0.90497  0.10691  0.29959  1.0000
  C   C6        1.0  0.59503  0.70040  0.89309  1.0000
  C   C7        1.0  0.09503  0.89309  0.70040  1.0000
  C   C8        1.0  0.40497  0.29960  0.10691  1.0000
  C   C9        1.0  0.87204  0.21791  0.19546  1.0000
  C   C10       1.0  0.62796  0.80453  0.78209  1.0000
  C   C11       1.0  0.12796  0.78209  0.80454  1.0000
  C   C12       1.0  0.37204  0.19546  0.21791  1.0000
  C   C13       1.0  0.80141  0.20510  0.10660  1.0000
  C   C14       1.0  0.69859  0.89339  0.79491  1.0000
  C   C15       1.0  0.19859  0.79491  0.89339  1.0000
  C   C16       1.0  0.30141  0.10660  0.20509  1.0000
  C   C17       1.0  0.76729  0.08181  0.12404  1.0000
  C   C18       1.0  0.73270  0.87595  0.91820  1.0000
  C   C19       1.0  0.23271  0.91819  0.87595  1.0000
  C   C20       1.0  0.26729  0.12404  0.08181  1.0000
  C   C21       1.0  0.10440  0.76104  0.36044  1.0000
  C   C22       1.0  0.39560  0.63956  0.23896  1.0000
  C   C23       1.0  0.89560  0.23896  0.63956  1.0000
  C   C24       1.0  0.60440  0.36044  0.76104  1.0000
  C   C25       1.0  0.17465  0.63224  0.43015  1.0000
  C   C26       1.0  0.32535  0.56985  0.36776  1.0000
  C   C27       1.0  0.82535  0.36776  0.56985  1.0000
  C   C28       1.0  0.67465  0.43015  0.63224  1.0000
  S   S1        1.0  0.91006  0.84145  0.43868  1.0000
  S   S2        1.0  0.58994  0.56131  0.15856  1.0000
  S   S3        1.0  0.08994  0.15856  0.56131  1.0000
  S   S4        1.0  0.41006  0.43869  0.84145  1.0000
  I   I1        1.0  0.48185  0.80791  0.46193  1.0000
  I   I2        1.0  0.01816  0.53806  0.19209  1.0000
  I   I3        1.0  0.51815  0.19209  0.53807  1.0000
  I   I4        1.0  0.98184  0.46194  0.80791  1.0000
  N   N1        1.0  0.80364  0.97258  0.22101  1.0000
  N   N2        1.0  0.69636  0.77898  0.02742  1.0000
  N   N3        1.0  0.19636  0.02742  0.77898  1.0000
  N   N4        1.0  0.30364  0.22102  0.97258  1.0000
  N   N5        1.0  0.17665  0.82277  0.23880  1.0000
  N   N6        1.0  0.32335  0.76120  0.17723  1.0000
  N   N7        1.0  0.82335  0.17723  0.76120  1.0000
  N   N8        1.0  0.67665  0.23880  0.82277  1.0000
