data_image0
_chemical_formula_structural       Cu12H40C56S8I12N16
_chemical_formula_sum              "Cu12 H40 C56 S8 I12 N16"
_cell_length_a       8.21794
_cell_length_b       10.7217
_cell_length_c       21.8699
_cell_angle_alpha    89.9992
_cell_angle_beta     90.0001
_cell_angle_gamma    90

_space_group_name_H-M_alt    "P 1"
_space_group_IT_number       1

loop_
  _space_group_symop_operation_xyz
  'x, y, z'

loop_
  _atom_site_type_symbol
  _atom_site_label
  _atom_site_symmetry_multiplicity
  _atom_site_fract_x
  _atom_site_fract_y
  _atom_site_fract_z
  _atom_site_occupancy
  Cu  Cu1       1.0  0.14592  0.56930  0.31929  1.0000
  Cu  Cu2       1.0  0.35407  0.06931  0.68071  1.0000
  Cu  Cu3       1.0  0.64593  0.93069  0.18071  1.0000
  Cu  Cu4       1.0  0.85407  0.43069  0.81929  1.0000
  Cu  Cu5       1.0  0.85407  0.43069  0.68071  1.0000
  Cu  Cu6       1.0  0.64593  0.93069  0.31929  1.0000
  Cu  Cu7       1.0  0.35408  0.06931  0.81929  1.0000
  Cu  Cu8       1.0  0.14592  0.56930  0.18071  1.0000
  Cu  Cu9       1.0  0.40117  0.57933  0.25000  1.0000
  Cu  Cu10      1.0  0.09883  0.07933  0.75000  1.0000
  Cu  Cu11      1.0  0.90117  0.92068  0.25000  1.0000
  Cu  Cu12      1.0  0.59883  0.42068  0.75000  1.0000
  H   H1        1.0  0.09439  0.79359  0.39453  1.0000
  H   H2        1.0  0.40559  0.29360  0.60547  1.0000
  H   H3        1.0  0.59440  0.70640  0.10548  1.0000
  H   H4        1.0  0.90560  0.20640  0.89453  1.0000
  H   H5        1.0  0.90559  0.20641  0.60547  1.0000
  H   H6        1.0  0.59440  0.70641  0.39453  1.0000
  H   H7        1.0  0.40561  0.29360  0.89453  1.0000
  H   H8        1.0  0.09440  0.79359  0.10547  1.0000
  H   H9        1.0  0.95611  0.84986  0.49231  1.0000
  H   H10       1.0  0.54388  0.34987  0.50769  1.0000
  H   H11       1.0  0.45613  0.65013  0.00769  1.0000
  H   H12       1.0  0.04389  0.15013  0.99231  1.0000
  H   H13       1.0  0.04387  0.15014  0.50769  1.0000
  H   H14       1.0  0.45611  0.65013  0.49231  1.0000
  H   H15       1.0  0.54389  0.34987  0.99231  1.0000
  H   H16       1.0  0.95611  0.84987  0.00769  1.0000
  H   H17       1.0  0.77445  0.68938  0.54281  1.0000
  H   H18       1.0  0.72556  0.18940  0.45719  1.0000
  H   H19       1.0  0.27445  0.81061  0.95719  1.0000
  H   H20       1.0  0.22557  0.31060  0.04281  1.0000
  H   H21       1.0  0.22555  0.31061  0.45719  1.0000
  H   H22       1.0  0.27443  0.81060  0.54281  1.0000
  H   H23       1.0  0.72555  0.18938  0.04282  1.0000
  H   H24       1.0  0.77444  0.68940  0.95718  1.0000
  H   H25       1.0  0.73970  0.48284  0.49178  1.0000
  H   H26       1.0  0.76031  0.98285  0.50822  1.0000
  H   H27       1.0  0.23970  0.01715  0.00823  1.0000
  H   H28       1.0  0.26032  0.51715  0.99177  1.0000
  H   H29       1.0  0.26031  0.51716  0.50822  1.0000
  H   H30       1.0  0.23967  0.01715  0.49177  1.0000
  H   H31       1.0  0.76031  0.98284  0.99178  1.0000
  H   H32       1.0  0.73969  0.48285  0.00822  1.0000
  H   H33       1.0  0.66664  0.26264  0.30819  1.0000
  H   H34       1.0  0.83335  0.76264  0.69181  1.0000
  H   H35       1.0  0.16666  0.23736  0.19180  1.0000
  H   H36       1.0  0.33335  0.73736  0.80820  1.0000
  H   H37       1.0  0.33335  0.73736  0.69180  1.0000
  H   H38       1.0  0.16666  0.23737  0.30819  1.0000
  H   H39       1.0  0.83335  0.76263  0.80819  1.0000
  H   H40       1.0  0.66665  0.26264  0.19180  1.0000
  C   C1        1.0  0.01739  0.72680  0.41848  1.0000
  C   C2        1.0  0.48261  0.22680  0.58152  1.0000
  C   C3        1.0  0.51740  0.77320  0.08152  1.0000
  C   C4        1.0  0.98261  0.27319  0.91848  1.0000
  C   C5        1.0  0.98260  0.27320  0.58152  1.0000
  C   C6        1.0  0.51739  0.77319  0.41848  1.0000
  C   C7        1.0  0.48261  0.22680  0.91848  1.0000
  C   C8        1.0  0.01739  0.72680  0.08152  1.0000
  C   C9        1.0  0.93780  0.75785  0.47242  1.0000
  C   C10       1.0  0.56218  0.25785  0.52757  1.0000
  C   C11       1.0  0.43782  0.74215  0.02758  1.0000
  C   C12       1.0  0.06219  0.24215  0.97242  1.0000
  C   C13       1.0  0.06218  0.24216  0.52757  1.0000
  C   C14       1.0  0.43780  0.74216  0.47242  1.0000
  C   C15       1.0  0.56219  0.25784  0.97242  1.0000
  C   C16       1.0  0.93781  0.75784  0.02758  1.0000
  C   C17       1.0  0.83801  0.66923  0.50022  1.0000
  C   C18       1.0  0.66200  0.16924  0.49979  1.0000
  C   C19       1.0  0.33802  0.83076  0.99979  1.0000
  C   C20       1.0  0.16200  0.33075  0.00021  1.0000
  C   C21       1.0  0.16199  0.33076  0.49979  1.0000
  C   C22       1.0  0.33800  0.83075  0.50021  1.0000
  C   C23       1.0  0.66199  0.16924  0.00021  1.0000
  C   C24       1.0  0.83801  0.66925  0.99979  1.0000
  C   C25       1.0  0.81913  0.55359  0.47218  1.0000
  C   C26       1.0  0.68088  0.05360  0.52782  1.0000
  C   C27       1.0  0.31913  0.94640  0.02782  1.0000
  C   C28       1.0  0.18087  0.44640  0.97218  1.0000
  C   C29       1.0  0.18087  0.44640  0.52782  1.0000
  C   C30       1.0  0.31911  0.94640  0.47218  1.0000
  C   C31       1.0  0.68088  0.05359  0.97218  1.0000
  C   C32       1.0  0.81912  0.55360  0.02782  1.0000
  C   C33       1.0  0.90628  0.52861  0.41863  1.0000
  C   C34       1.0  0.59371  0.02861  0.58136  1.0000
  C   C35       1.0  0.40629  0.97139  0.08136  1.0000
  C   C36       1.0  0.09372  0.47139  0.91864  1.0000
  C   C37       1.0  0.09371  0.47140  0.58136  1.0000
  C   C38       1.0  0.40627  0.97140  0.41864  1.0000
  C   C39       1.0  0.59372  0.02861  0.91864  1.0000
  C   C40       1.0  0.90629  0.52860  0.08136  1.0000
  C   C41       1.0  0.87594  0.38472  0.31134  1.0000
  C   C42       1.0  0.62406  0.88472  0.68866  1.0000
  C   C43       1.0  0.37595  0.11529  0.18866  1.0000
  C   C44       1.0  0.12407  0.61528  0.81134  1.0000
  C   C45       1.0  0.12406  0.61529  0.68866  1.0000
  C   C46       1.0  0.37595  0.11529  0.31134  1.0000
  C   C47       1.0  0.62406  0.88471  0.81134  1.0000
  C   C48       1.0  0.87594  0.38471  0.18866  1.0000
  C   C49       1.0  0.75577  0.31414  0.28161  1.0000
  C   C50       1.0  0.74423  0.81414  0.71839  1.0000
  C   C51       1.0  0.25579  0.18586  0.21839  1.0000
  C   C52       1.0  0.24422  0.68585  0.78160  1.0000
  C   C53       1.0  0.24422  0.68585  0.71840  1.0000
  C   C54       1.0  0.25579  0.18586  0.28160  1.0000
  C   C55       1.0  0.74423  0.81414  0.78161  1.0000
  C   C56       1.0  0.75577  0.31414  0.21839  1.0000
  S   S1        1.0  0.89225  0.37296  0.39132  1.0000
  S   S2        1.0  0.60775  0.87297  0.60867  1.0000
  S   S3        1.0  0.39226  0.12704  0.10868  1.0000
  S   S4        1.0  0.10775  0.62703  0.89132  1.0000
  S   S5        1.0  0.10774  0.62703  0.60867  1.0000
  S   S6        1.0  0.39225  0.12704  0.39132  1.0000
  S   S7        1.0  0.60775  0.87296  0.89133  1.0000
  S   S8        1.0  0.89225  0.37296  0.10867  1.0000
  I   I1        1.0  0.41465  0.46588  0.35551  1.0000
  I   I2        1.0  0.08534  0.96589  0.64449  1.0000
  I   I3        1.0  0.91465  0.03413  0.14449  1.0000
  I   I4        1.0  0.58535  0.53413  0.85551  1.0000
  I   I5        1.0  0.58535  0.53413  0.64449  1.0000
  I   I6        1.0  0.91465  0.03413  0.35551  1.0000
  I   I7        1.0  0.08535  0.96588  0.85551  1.0000
  I   I8        1.0  0.41466  0.46588  0.14449  1.0000
  I   I9        1.0  0.67598  0.72513  0.25000  1.0000
  I   I10       1.0  0.82402  0.22513  0.75000  1.0000
  I   I11       1.0  0.17598  0.77487  0.25000  1.0000
  I   I12       1.0  0.32402  0.27487  0.75000  1.0000
  N   N1        1.0  0.00644  0.61285  0.39270  1.0000
  N   N2        1.0  0.49356  0.11285  0.60729  1.0000
  N   N3        1.0  0.50644  0.88715  0.10729  1.0000
  N   N4        1.0  0.99356  0.38715  0.89270  1.0000
  N   N5        1.0  0.99356  0.38716  0.60729  1.0000
  N   N6        1.0  0.50643  0.88716  0.39271  1.0000
  N   N7        1.0  0.49357  0.11285  0.89271  1.0000
  N   N8        1.0  0.00643  0.61285  0.10729  1.0000
  N   N9        1.0  0.98849  0.45055  0.28083  1.0000
  N   N10       1.0  0.51152  0.95056  0.71917  1.0000
  N   N11       1.0  0.48850  0.04944  0.21917  1.0000
  N   N12       1.0  0.01151  0.54944  0.78083  1.0000
  N   N13       1.0  0.01151  0.54944  0.71917  1.0000
  N   N14       1.0  0.48850  0.04945  0.28083  1.0000
  N   N15       1.0  0.51152  0.95056  0.78083  1.0000
  N   N16       1.0  0.98849  0.45055  0.21917  1.0000
