data_image0
_chemical_formula_structural       Fe2H60C60N8O8
_chemical_formula_sum              "Fe2 H60 C60 N8 O8"
_cell_length_a       11.0098
_cell_length_b       11.5973
_cell_length_c       12.2012
_cell_angle_alpha    73.0944
_cell_angle_beta     65.0139
_cell_angle_gamma    71.9754

_space_group_name_H-M_alt    "P 1"
_space_group_IT_number       1

loop_
  _space_group_symop_operation_xyz
  'x, y, z'

loop_
  _atom_site_type_symbol
  _atom_site_label
  _atom_site_symmetry_multiplicity
  _atom_site_fract_x
  _atom_site_fract_y
  _atom_site_fract_z
  _atom_site_occupancy
  Fe  Fe1       1.0  0.56050  0.32208  0.72641  1.0000
  Fe  Fe2       1.0  0.43950  0.67792  0.27359  1.0000
  H   H1        1.0  0.69643  0.48474  0.87038  1.0000
  H   H2        1.0  0.30357  0.51526  0.12962  1.0000
  H   H3        1.0  0.64937  0.39293  0.03713  1.0000
  H   H4        1.0  0.35063  0.60706  0.96286  1.0000
  H   H5        1.0  0.55895  0.27051  0.24341  1.0000
  H   H6        1.0  0.44106  0.72949  0.75659  1.0000
  H   H7        1.0  0.42322  0.11800  0.28097  1.0000
  H   H8        1.0  0.57677  0.88201  0.71903  1.0000
  H   H9        1.0  0.37734  0.08794  0.11034  1.0000
  H   H10       1.0  0.62266  0.91206  0.88966  1.0000
  H   H11       1.0  0.33231  0.10349  0.96864  1.0000
  H   H12       1.0  0.66769  0.89651  0.03136  1.0000
  H   H13       1.0  0.85741  0.46442  0.38662  1.0000
  H   H14       1.0  0.14259  0.53558  0.61338  1.0000
  H   H15       1.0  0.77420  0.61961  0.40054  1.0000
  H   H16       1.0  0.22579  0.38038  0.59946  1.0000
  H   H17       1.0  0.92503  0.55730  0.43392  1.0000
  H   H18       1.0  0.07497  0.44270  0.56609  1.0000
  H   H19       1.0  0.93166  0.67027  0.73695  1.0000
  H   H20       1.0  0.06834  0.32973  0.26305  1.0000
  H   H21       1.0  0.76706  0.64827  0.84454  1.0000
  H   H22       1.0  0.23294  0.35173  0.15545  1.0000
  H   H23       1.0  0.90450  0.51772  0.80861  1.0000
  H   H24       1.0  0.09550  0.48228  0.19138  1.0000
  H   H25       1.0  0.29671  0.19482  0.55450  1.0000
  H   H26       1.0  0.70329  0.80518  0.44550  1.0000
  H   H27       1.0  0.43778  0.07128  0.54489  1.0000
  H   H28       1.0  0.56222  0.92872  0.45511  1.0000
  H   H29       1.0  0.46505  0.22286  0.46234  1.0000
  H   H30       1.0  0.53495  0.77714  0.53766  1.0000
  H   H31       1.0  0.27164  0.93893  0.98700  1.0000
  H   H32       1.0  0.72836  0.06107  0.01300  1.0000
  H   H33       1.0  0.13548  0.07151  0.00447  1.0000
  H   H34       1.0  0.86452  0.92849  0.99553  1.0000
  H   H35       1.0  0.12680  0.94568  0.95387  1.0000
  H   H36       1.0  0.87319  0.05432  0.04613  1.0000
  H   H37       1.0  0.85492  0.28680  0.68898  1.0000
  H   H38       1.0  0.14507  0.71320  0.31102  1.0000
  H   H39       1.0  0.06133  0.11720  0.65644  1.0000
  H   H40       1.0  0.93866  0.88280  0.34356  1.0000
  H   H41       1.0  0.81705  0.88686  0.66137  1.0000
  H   H42       1.0  0.18295  0.11314  0.33863  1.0000
  H   H43       1.0  0.61731  0.06346  0.70147  1.0000
  H   H44       1.0  0.38269  0.93654  0.29853  1.0000
  H   H45       1.0  0.17174  0.91149  0.59451  1.0000
  H   H46       1.0  0.82826  0.08851  0.40549  1.0000
  H   H47       1.0  0.07152  0.81903  0.59140  1.0000
  H   H48       1.0  0.92848  0.18097  0.40861  1.0000
  H   H49       1.0  0.10187  0.85699  0.81605  1.0000
  H   H50       1.0  0.89813  0.14302  0.18395  1.0000
  H   H51       1.0  0.97947  0.77862  0.83080  1.0000
  H   H52       1.0  0.02053  0.22138  0.16920  1.0000
  H   H53       1.0  0.28856  0.40187  0.92598  1.0000
  H   H54       1.0  0.71144  0.59813  0.07402  1.0000
  H   H55       1.0  0.09887  0.58641  0.94839  1.0000
  H   H56       1.0  0.90113  0.41359  0.05161  1.0000
  H   H57       1.0  0.31342  0.73419  0.56757  1.0000
  H   H58       1.0  0.68659  0.26581  0.43243  1.0000
  H   H59       1.0  0.48996  0.54794  0.56117  1.0000
  H   H60       1.0  0.51004  0.45206  0.43883  1.0000
  C   C1        1.0  0.74552  0.48945  0.57070  1.0000
  C   C2        1.0  0.25448  0.51055  0.42930  1.0000
  C   C3        1.0  0.74845  0.51972  0.67556  1.0000
  C   C4        1.0  0.25155  0.48028  0.32444  1.0000
  C   C5        1.0  0.68413  0.45877  0.79726  1.0000
  C   C6        1.0  0.31587  0.54123  0.20274  1.0000
  C   C7        1.0  0.56305  0.31303  0.95383  1.0000
  C   C8        1.0  0.43695  0.68697  0.04616  1.0000
  C   C9        1.0  0.58872  0.32789  0.05149  1.0000
  C   C10       1.0  0.41128  0.67211  0.94850  1.0000
  C   C11       1.0  0.53776  0.25844  0.16852  1.0000
  C   C12       1.0  0.46224  0.74156  0.83148  1.0000
  C   C13       1.0  0.46168  0.17242  0.18917  1.0000
  C   C14       1.0  0.53831  0.82758  0.81083  1.0000
  C   C15       1.0  0.43557  0.15619  0.09299  1.0000
  C   C16       1.0  0.56443  0.84381  0.90701  1.0000
  C   C17       1.0  0.48435  0.22695  0.97505  1.0000
  C   C18       1.0  0.51565  0.77305  0.02495  1.0000
  C   C19       1.0  0.38248  0.15443  0.87764  1.0000
  C   C20       1.0  0.61752  0.84557  0.12236  1.0000
  C   C21       1.0  0.35566  0.13810  0.77948  1.0000
  C   C22       1.0  0.64434  0.86191  0.22051  1.0000
  C   C23       1.0  0.42079  0.19526  0.65399  1.0000
  C   C24       1.0  0.57921  0.80475  0.34601  1.0000
  C   C25       1.0  0.83239  0.53513  0.44040  1.0000
  C   C26       1.0  0.16761  0.46487  0.55960  1.0000
  C   C27       1.0  0.82175  0.61205  0.66259  1.0000
  C   C28       1.0  0.17825  0.38795  0.33740  1.0000
  C   C29       1.0  0.85852  0.61075  0.77036  1.0000
  C   C30       1.0  0.14148  0.38925  0.22963  1.0000
  C   C31       1.0  0.40394  0.17028  0.54753  1.0000
  C   C32       1.0  0.59606  0.82972  0.45247  1.0000
  C   C33       1.0  0.26342  0.05483  0.81237  1.0000
  C   C34       1.0  0.73658  0.94517  0.18762  1.0000
  C   C35       1.0  0.19549  0.00017  0.94770  1.0000
  C   C36       1.0  0.80451  0.99983  0.05230  1.0000
  C   C37       1.0  0.84881  0.19629  0.68533  1.0000
  C   C38       1.0  0.15119  0.80371  0.31467  1.0000
  C   C39       1.0  0.96454  0.10086  0.66660  1.0000
  C   C40       1.0  0.03545  0.89914  0.33340  1.0000
  C   C41       1.0  0.95631  0.98500  0.66042  1.0000
  C   C42       1.0  0.04368  0.01500  0.33958  1.0000
  C   C43       1.0  0.82898  0.97310  0.67078  1.0000
  C   C44       1.0  0.17102  0.02690  0.32922  1.0000
  C   C45       1.0  0.71721  0.07205  0.69130  1.0000
  C   C46       1.0  0.28279  0.92795  0.30870  1.0000
  C   C47       1.0  0.07656  0.87735  0.64562  1.0000
  C   C48       1.0  0.92344  0.12265  0.35438  1.0000
  C   C49       1.0  0.08064  0.79986  0.77070  1.0000
  C   C50       1.0  0.91936  0.20014  0.22930  1.0000
  C   C51       1.0  0.29051  0.47839  0.84877  1.0000
  C   C52       1.0  0.70949  0.52161  0.15122  1.0000
  C   C53       1.0  0.18445  0.58272  0.86021  1.0000
  C   C54       1.0  0.81555  0.41728  0.13979  1.0000
  C   C55       1.0  0.18859  0.68202  0.76072  1.0000
  C   C56       1.0  0.81141  0.31798  0.23928  1.0000
  C   C57       1.0  0.30112  0.66557  0.65173  1.0000
  C   C58       1.0  0.69889  0.33443  0.34827  1.0000
  C   C59       1.0  0.40282  0.55863  0.64635  1.0000
  C   C60       1.0  0.59718  0.44137  0.35365  1.0000
  N   N1        1.0  0.61186  0.37412  0.83080  1.0000
  N   N2        1.0  0.38814  0.62587  0.16919  1.0000
  N   N3        1.0  0.46283  0.22270  0.87018  1.0000
  N   N4        1.0  0.53717  0.77730  0.12982  1.0000
  N   N5        1.0  0.72463  0.18326  0.69958  1.0000
  N   N6        1.0  0.27537  0.81674  0.30042  1.0000
  N   N7        1.0  0.40158  0.46522  0.74340  1.0000
  N   N8        1.0  0.59843  0.53478  0.25660  1.0000
  O   O1        1.0  0.67358  0.41630  0.58039  1.0000
  O   O2        1.0  0.32642  0.58369  0.41962  1.0000
  O   O3        1.0  0.50114  0.26863  0.62345  1.0000
  O   O4        1.0  0.49886  0.73137  0.37655  1.0000
  O   O5        1.0  0.85563  0.69201  0.56835  1.0000
  O   O6        1.0  0.14437  0.30798  0.43165  1.0000
  O   O7        1.0  0.23740  0.02583  0.73521  1.0000
  O   O8        1.0  0.76260  0.97417  0.26479  1.0000
