data_image0
_chemical_formula_structural       Bi4H40C20S8N4Cl8
_chemical_formula_sum              "Bi4 H40 C20 S8 N4 Cl8"
_cell_length_a       7.70118
_cell_length_b       9.68623
_cell_length_c       14.7784
_cell_angle_alpha    90.0003
_cell_angle_beta     89.9999
_cell_angle_gamma    93.5231

_space_group_name_H-M_alt    "P 1"
_space_group_IT_number       1

loop_
  _space_group_symop_operation_xyz
  'x, y, z'

loop_
  _atom_site_type_symbol
  _atom_site_label
  _atom_site_symmetry_multiplicity
  _atom_site_fract_x
  _atom_site_fract_y
  _atom_site_fract_z
  _atom_site_occupancy
  Bi  Bi1       1.0  0.76004  0.21715  0.21514  1.0000
  Bi  Bi2       1.0  0.73994  0.78286  0.71513  1.0000
  Bi  Bi3       1.0  0.23993  0.78284  0.78487  1.0000
  Bi  Bi4       1.0  0.26004  0.21715  0.28486  1.0000
  H   H1        1.0  0.30260  0.15601  0.86464  1.0000
  H   H2        1.0  0.19740  0.84398  0.36464  1.0000
  H   H3        1.0  0.69740  0.84399  0.13536  1.0000
  H   H4        1.0  0.80260  0.15602  0.63536  1.0000
  H   H5        1.0  0.29729  0.08577  0.97499  1.0000
  H   H6        1.0  0.20272  0.91422  0.47499  1.0000
  H   H7        1.0  0.70271  0.91423  0.02501  1.0000
  H   H8        1.0  0.79729  0.08578  0.52501  1.0000
  H   H9        1.0  0.15600  0.29705  0.03322  1.0000
  H   H10       1.0  0.34400  0.70295  0.53322  1.0000
  H   H11       1.0  0.84401  0.70295  0.96678  1.0000
  H   H12       1.0  0.65600  0.29706  0.46678  1.0000
  H   H13       1.0  0.15359  0.36556  0.92128  1.0000
  H   H14       1.0  0.34641  0.63444  0.42128  1.0000
  H   H15       1.0  0.84641  0.63444  0.07872  1.0000
  H   H16       1.0  0.65359  0.36557  0.57872  1.0000
  H   H17       1.0  0.03061  0.20945  0.94794  1.0000
  H   H18       1.0  0.46940  0.79055  0.44794  1.0000
  H   H19       1.0  0.96940  0.79055  0.05206  1.0000
  H   H20       1.0  0.53060  0.20945  0.55206  1.0000
  H   H21       1.0  0.43145  0.39252  0.84965  1.0000
  H   H22       1.0  0.06856  0.60747  0.34965  1.0000
  H   H23       1.0  0.56856  0.60748  0.15035  1.0000
  H   H24       1.0  0.93145  0.39253  0.65035  1.0000
  H   H25       1.0  0.62108  0.43464  0.91369  1.0000
  H   H26       1.0  0.87892  0.56536  0.41369  1.0000
  H   H27       1.0  0.37892  0.56536  0.08631  1.0000
  H   H28       1.0  0.12108  0.43464  0.58631  1.0000
  H   H29       1.0  0.76293  0.22799  0.84845  1.0000
  H   H30       1.0  0.73707  0.77201  0.34845  1.0000
  H   H31       1.0  0.23707  0.77201  0.15155  1.0000
  H   H32       1.0  0.26293  0.22799  0.65155  1.0000
  H   H33       1.0  0.57279  0.18575  0.78279  1.0000
  H   H34       1.0  0.92721  0.81424  0.28279  1.0000
  H   H35       1.0  0.42721  0.81425  0.21720  1.0000
  H   H36       1.0  0.07279  0.18576  0.71721  1.0000
  H   H37       1.0  0.69843  0.34323  0.76271  1.0000
  H   H38       1.0  0.80157  0.65677  0.26271  1.0000
  H   H39       1.0  0.30157  0.65678  0.23729  1.0000
  H   H40       1.0  0.19844  0.34323  0.73729  1.0000
  C   C1        1.0  0.55917  0.24184  0.03199  1.0000
  C   C2        1.0  0.94083  0.75816  0.53199  1.0000
  C   C3        1.0  0.44083  0.75816  0.96801  1.0000
  C   C4        1.0  0.05917  0.24184  0.46801  1.0000
  C   C5        1.0  0.30407  0.18298  0.93677  1.0000
  C   C6        1.0  0.19593  0.81701  0.43677  1.0000
  C   C7        1.0  0.69593  0.81702  0.06323  1.0000
  C   C8        1.0  0.80407  0.18299  0.56323  1.0000
  C   C9        1.0  0.15299  0.26984  0.96112  1.0000
  C   C10       1.0  0.34702  0.73016  0.46112  1.0000
  C   C11       1.0  0.84702  0.73016  0.03888  1.0000
  C   C12       1.0  0.65298  0.26984  0.53888  1.0000
  C   C13       1.0  0.54278  0.34851  0.88278  1.0000
  C   C14       1.0  0.95722  0.65149  0.38278  1.0000
  C   C15       1.0  0.45722  0.65149  0.11722  1.0000
  C   C16       1.0  0.04278  0.34851  0.61722  1.0000
  C   C17       1.0  0.65038  0.27078  0.81536  1.0000
  C   C18       1.0  0.84962  0.72921  0.31536  1.0000
  C   C19       1.0  0.34962  0.72922  0.18464  1.0000
  C   C20       1.0  0.15039  0.27078  0.68464  1.0000
  S   S1        1.0  0.48464  0.12159  0.11278  1.0000
  S   S2        1.0  0.01536  0.87841  0.61278  1.0000
  S   S3        1.0  0.51536  0.87841  0.88722  1.0000
  S   S4        1.0  0.98464  0.12159  0.38722  1.0000
  S   S5        1.0  0.75049  0.33821  0.05347  1.0000
  S   S6        1.0  0.74951  0.66179  0.55347  1.0000
  S   S7        1.0  0.24951  0.66179  0.94654  1.0000
  S   S8        1.0  0.25049  0.33821  0.44653  1.0000
  N   N1        1.0  0.47314  0.25673  0.95522  1.0000
  N   N2        1.0  0.02687  0.74327  0.45522  1.0000
  N   N3        1.0  0.52686  0.74327  0.04478  1.0000
  N   N4        1.0  0.97314  0.25673  0.54478  1.0000
  Cl  Cl1       1.0  0.05664  0.41544  0.21439  1.0000
  Cl  Cl2       1.0  0.44337  0.58456  0.71440  1.0000
  Cl  Cl3       1.0  0.94336  0.58456  0.78561  1.0000
  Cl  Cl4       1.0  0.55663  0.41544  0.28560  1.0000
  Cl  Cl5       1.0  0.00790  0.04283  0.16390  1.0000
  Cl  Cl6       1.0  0.49211  0.95716  0.66390  1.0000
  Cl  Cl7       1.0  0.99210  0.95717  0.83611  1.0000
  Cl  Cl8       1.0  0.50790  0.04284  0.33610  1.0000
