data_image0
_chemical_formula_structural       Bi4H40C20S8Br8N4
_chemical_formula_sum              "Bi4 H40 C20 S8 Br8 N4"
_cell_length_a       7.8489
_cell_length_b       9.93193
_cell_length_c       14.7479
_cell_angle_alpha    89.9994
_cell_angle_beta     90.0005
_cell_angle_gamma    91.308

_space_group_name_H-M_alt    "P 1"
_space_group_IT_number       1

loop_
  _space_group_symop_operation_xyz
  'x, y, z'

loop_
  _atom_site_type_symbol
  _atom_site_label
  _atom_site_symmetry_multiplicity
  _atom_site_fract_x
  _atom_site_fract_y
  _atom_site_fract_z
  _atom_site_occupancy
  Bi  Bi1       1.0  0.72983  0.78230  0.28832  1.0000
  Bi  Bi2       1.0  0.77017  0.21771  0.78832  1.0000
  Bi  Bi3       1.0  0.27018  0.21770  0.71169  1.0000
  Bi  Bi4       1.0  0.22983  0.78229  0.21168  1.0000
  H   H1        1.0  0.89243  0.56991  0.58897  1.0000
  H   H2        1.0  0.60758  0.43009  0.08897  1.0000
  H   H3        1.0  0.10757  0.43009  0.41103  1.0000
  H   H4        1.0  0.39242  0.56991  0.91103  1.0000
  H   H5        1.0  0.07543  0.61488  0.65259  1.0000
  H   H6        1.0  0.42458  0.38512  0.15259  1.0000
  H   H7        1.0  0.92458  0.38512  0.34741  1.0000
  H   H8        1.0  0.57542  0.61488  0.84741  1.0000
  H   H9        1.0  0.19186  0.84516  0.63262  1.0000
  H   H10       1.0  0.30815  0.15484  0.13262  1.0000
  H   H11       1.0  0.80814  0.15484  0.36738  1.0000
  H   H12       1.0  0.69185  0.84516  0.86738  1.0000
  H   H13       1.0  0.19751  0.90383  0.51960  1.0000
  H   H14       1.0  0.30249  0.09617  0.01960  1.0000
  H   H15       1.0  0.80250  0.09617  0.48040  1.0000
  H   H16       1.0  0.69751  0.90383  0.98040  1.0000
  H   H17       1.0  0.81147  0.66250  0.73965  1.0000
  H   H18       1.0  0.68854  0.33751  0.23965  1.0000
  H   H19       1.0  0.18854  0.33751  0.26035  1.0000
  H   H20       1.0  0.31146  0.66250  0.76035  1.0000
  H   H21       1.0  0.73923  0.77060  0.65213  1.0000
  H   H22       1.0  0.76077  0.22941  0.15212  1.0000
  H   H23       1.0  0.26077  0.22941  0.34787  1.0000
  H   H24       1.0  0.23923  0.77060  0.84787  1.0000
  H   H25       1.0  0.92346  0.81655  0.71683  1.0000
  H   H26       1.0  0.57655  0.18345  0.21683  1.0000
  H   H27       1.0  0.07655  0.18346  0.28317  1.0000
  H   H28       1.0  0.42345  0.81655  0.78317  1.0000
  H   H29       1.0  0.45886  0.77729  0.55356  1.0000
  H   H30       1.0  0.04114  0.22271  0.05356  1.0000
  H   H31       1.0  0.54115  0.22270  0.44645  1.0000
  H   H32       1.0  0.95886  0.77729  0.94644  1.0000
  H   H33       1.0  0.33791  0.69029  0.46958  1.0000
  H   H34       1.0  0.16209  0.30972  0.96958  1.0000
  H   H35       1.0  0.66210  0.30971  0.53042  1.0000
  H   H36       1.0  0.83791  0.69028  0.03042  1.0000
  H   H37       1.0  0.33697  0.63090  0.58348  1.0000
  H   H38       1.0  0.16303  0.36910  0.08348  1.0000
  H   H39       1.0  0.66302  0.36910  0.41652  1.0000
  H   H40       1.0  0.83697  0.63090  0.91651  1.0000
  C   C1        1.0  0.93752  0.75827  0.46925  1.0000
  C   C2        1.0  0.56248  0.24173  0.96925  1.0000
  C   C3        1.0  0.06248  0.24173  0.53075  1.0000
  C   C4        1.0  0.43752  0.75827  0.03075  1.0000
  C   C5        1.0  0.96334  0.65563  0.61884  1.0000
  C   C6        1.0  0.53666  0.34437  0.11884  1.0000
  C   C7        1.0  0.03666  0.34437  0.38116  1.0000
  C   C8        1.0  0.46334  0.65563  0.88116  1.0000
  C   C9        1.0  0.19092  0.81258  0.56143  1.0000
  C   C10       1.0  0.30908  0.18742  0.06143  1.0000
  C   C11       1.0  0.80908  0.18742  0.43857  1.0000
  C   C12       1.0  0.69092  0.81258  0.93857  1.0000
  C   C13       1.0  0.85293  0.73176  0.68561  1.0000
  C   C14       1.0  0.64708  0.26824  0.18561  1.0000
  C   C15       1.0  0.14708  0.26824  0.31439  1.0000
  C   C16       1.0  0.35292  0.73176  0.81439  1.0000
  C   C17       1.0  0.33914  0.72158  0.54091  1.0000
  C   C18       1.0  0.16087  0.27842  0.04090  1.0000
  C   C19       1.0  0.66086  0.27842  0.45910  1.0000
  C   C20       1.0  0.83913  0.72158  0.95909  1.0000
  S   S1        1.0  0.00275  0.87303  0.38641  1.0000
  S   S2        1.0  0.49725  0.12697  0.88641  1.0000
  S   S3        1.0  0.99726  0.12697  0.61359  1.0000
  S   S4        1.0  0.50275  0.87303  0.11359  1.0000
  S   S5        1.0  0.75154  0.66633  0.45085  1.0000
  S   S6        1.0  0.74847  0.33367  0.95085  1.0000
  S   S7        1.0  0.24846  0.33366  0.54915  1.0000
  S   S8        1.0  0.25153  0.66633  0.04915  1.0000
  Br  Br1       1.0  0.47016  0.96575  0.34190  1.0000
  Br  Br2       1.0  0.02985  0.03423  0.84190  1.0000
  Br  Br3       1.0  0.52985  0.03423  0.65810  1.0000
  Br  Br4       1.0  0.97015  0.96577  0.15810  1.0000
  Br  Br5       1.0  0.93791  0.57631  0.20669  1.0000
  Br  Br6       1.0  0.56209  0.42368  0.70669  1.0000
  Br  Br7       1.0  0.06210  0.42368  0.79331  1.0000
  Br  Br8       1.0  0.43791  0.57632  0.29331  1.0000
  N   N1        1.0  0.02585  0.74360  0.54517  1.0000
  N   N2        1.0  0.47415  0.25640  0.04517  1.0000
  N   N3        1.0  0.97415  0.25640  0.45483  1.0000
  N   N4        1.0  0.52584  0.74360  0.95483  1.0000
