data_image0
_chemical_formula_structural       Co2H24C22N4O8
_chemical_formula_sum              "Co2 H24 C22 N4 O8"
_cell_length_a       7.33764
_cell_length_b       7.81338
_cell_length_c       9.73744
_cell_angle_alpha    86.3002
_cell_angle_beta     84.9555
_cell_angle_gamma    86.1618

_space_group_name_H-M_alt    "P 1"
_space_group_IT_number       1

loop_
  _space_group_symop_operation_xyz
  'x, y, z'

loop_
  _atom_site_type_symbol
  _atom_site_label
  _atom_site_symmetry_multiplicity
  _atom_site_fract_x
  _atom_site_fract_y
  _atom_site_fract_z
  _atom_site_occupancy
  Co  Co1       1.0  0.29157  0.42935  0.45439  1.0000
  Co  Co2       1.0  0.70843  0.57065  0.54561  1.0000
  H   H1        1.0  0.56203  0.64285  0.99125  1.0000
  H   H2        1.0  0.43798  0.35715  0.00875  1.0000
  H   H3        1.0  0.47378  0.77627  0.12173  1.0000
  H   H4        1.0  0.52622  0.22372  0.87827  1.0000
  H   H5        1.0  0.65372  0.92162  0.91007  1.0000
  H   H6        1.0  0.34628  0.07837  0.08993  1.0000
  H   H7        1.0  0.72213  0.97082  0.07201  1.0000
  H   H8        1.0  0.27787  0.02918  0.92799  1.0000
  H   H9        1.0  0.90569  0.68958  0.89217  1.0000
  H   H10       1.0  0.09431  0.31042  0.10782  1.0000
  H   H11       1.0  0.99674  0.89102  0.90535  1.0000
  H   H12       1.0  0.00326  0.10899  0.09465  1.0000
  H   H13       1.0  0.05697  0.82624  0.14426  1.0000
  H   H14       1.0  0.94304  0.17376  0.85575  1.0000
  H   H15       1.0  0.13242  0.64189  0.05767  1.0000
  H   H16       1.0  0.86758  0.35811  0.94233  1.0000
  H   H17       1.0  0.14820  0.13731  0.30026  1.0000
  H   H18       1.0  0.85179  0.86269  0.69974  1.0000
  H   H19       1.0  0.16828  0.79538  0.40237  1.0000
  H   H20       1.0  0.83171  0.20463  0.59764  1.0000
  H   H21       1.0  0.38985  0.10542  0.67888  1.0000
  H   H22       1.0  0.61016  0.89458  0.32111  1.0000
  H   H23       1.0  0.32078  0.80247  0.63037  1.0000
  H   H24       1.0  0.67922  0.19753  0.36963  1.0000
  C   C1        1.0  0.70315  0.61248  0.17585  1.0000
  C   C2        1.0  0.29685  0.38752  0.82415  1.0000
  C   C3        1.0  0.88515  0.61600  0.18818  1.0000
  C   C4        1.0  0.11485  0.38400  0.81182  1.0000
  C   C5        1.0  0.60368  0.72344  0.07065  1.0000
  C   C6        1.0  0.39633  0.27656  0.92935  1.0000
  C   C7        1.0  0.71872  0.86611  0.00165  1.0000
  C   C8        1.0  0.28128  0.13389  0.99835  1.0000
  C   C9        1.0  0.91348  0.79343  0.96213  1.0000
  C   C10       1.0  0.08652  0.20657  0.03787  1.0000
  C   C11       1.0  0.00815  0.72138  0.08893  1.0000
  C   C12       1.0  0.99185  0.27862  0.91107  1.0000
  C   C13       1.0  0.58316  0.49933  0.26911  1.0000
  C   C14       1.0  0.41683  0.50067  0.73089  1.0000
  C   C15       1.0  0.97037  0.51510  0.30288  1.0000
  C   C16       1.0  0.02963  0.48490  0.69712  1.0000
  C   C17       1.0  0.20212  0.07936  0.39340  1.0000
  C   C18       1.0  0.79787  0.92064  0.60660  1.0000
  C   C19       1.0  0.21043  0.91083  0.44282  1.0000
  C   C20       1.0  0.78956  0.08918  0.55718  1.0000
  C   C21       1.0  0.32234  0.07069  0.59125  1.0000
  C   C22       1.0  0.67766  0.92931  0.40875  1.0000
  N   N1        1.0  0.27233  0.17853  0.48699  1.0000
  N   N2        1.0  0.72767  0.82147  0.51301  1.0000
  N   N3        1.0  0.28575  0.90875  0.56774  1.0000
  N   N4        1.0  0.71424  0.09125  0.43226  1.0000
  O   O1        1.0  0.49627  0.57282  0.37449  1.0000
  O   O2        1.0  0.50374  0.42718  0.62550  1.0000
  O   O3        1.0  0.56080  0.34847  0.24074  1.0000
  O   O4        1.0  0.43920  0.65153  0.75925  1.0000
  O   O5        1.0  0.87181  0.44433  0.40378  1.0000
  O   O6        1.0  0.12819  0.55567  0.59622  1.0000
  O   O7        1.0  0.14576  0.50268  0.29569  1.0000
  O   O8        1.0  0.85425  0.49732  0.70430  1.0000
