data_image0
_chemical_formula_structural       InPH12C21O7
_chemical_formula_sum              "In1 P1 H12 C21 O7"
_cell_length_a       8.8337
_cell_length_b       8.85348
_cell_length_c       8.84078
_cell_angle_alpha    107.893
_cell_angle_beta     107.789
_cell_angle_gamma    107.868

_space_group_name_H-M_alt    "P 1"
_space_group_IT_number       1

loop_
  _space_group_symop_operation_xyz
  'x, y, z'

loop_
  _atom_site_type_symbol
  _atom_site_label
  _atom_site_symmetry_multiplicity
  _atom_site_fract_x
  _atom_site_fract_y
  _atom_site_fract_z
  _atom_site_occupancy
  In  In1       1.0  0.21061  0.21033  0.21031  1.0000
  P   P1        1.0  0.82760  0.82765  0.82759  1.0000
  H   H1        1.0  0.73639  0.92853  0.11522  1.0000
  H   H2        1.0  0.11512  0.73680  0.92901  1.0000
  H   H3        1.0  0.92898  0.11500  0.73681  1.0000
  H   H4        1.0  0.54946  0.75203  0.22006  1.0000
  H   H5        1.0  0.21978  0.54956  0.75207  1.0000
  H   H6        1.0  0.75207  0.21955  0.54969  1.0000
  H   H7        1.0  0.43806  0.26891  0.79860  1.0000
  H   H8        1.0  0.79862  0.43767  0.26837  1.0000
  H   H9        1.0  0.26837  0.79870  0.43762  1.0000
  H   H10       1.0  0.62190  0.44220  0.69034  1.0000
  H   H11       1.0  0.69048  0.62176  0.44210  1.0000
  H   H12       1.0  0.44206  0.69069  0.62161  1.0000
  C   C1        1.0  0.69025  0.69537  0.89668  1.0000
  C   C2        1.0  0.89682  0.69039  0.69538  1.0000
  C   C3        1.0  0.69543  0.89681  0.69036  1.0000
  C   C4        1.0  0.67005  0.78425  0.04569  1.0000
  C   C5        1.0  0.04569  0.67028  0.78452  1.0000
  C   C6        1.0  0.78447  0.04560  0.67030  1.0000
  C   C7        1.0  0.56689  0.68665  0.10458  1.0000
  C   C8        1.0  0.10440  0.56700  0.68671  1.0000
  C   C9        1.0  0.68674  0.10427  0.56711  1.0000
  C   C10       1.0  0.48424  0.50089  0.01520  1.0000
  C   C11       1.0  0.01509  0.48414  0.50070  1.0000
  C   C12       1.0  0.50067  0.01508  0.48419  1.0000
  C   C13       1.0  0.50404  0.41300  0.86640  1.0000
  C   C14       1.0  0.86633  0.50380  0.41264  1.0000
  C   C15       1.0  0.41267  0.86642  0.50383  1.0000
  C   C16       1.0  0.60732  0.51023  0.80692  1.0000
  C   C17       1.0  0.80700  0.60717  0.51005  1.0000
  C   C18       1.0  0.51002  0.80713  0.60709  1.0000
  C   C19       1.0  0.37821  0.39733  0.08189  1.0000
  C   C20       1.0  0.08177  0.37805  0.39701  1.0000
  C   C21       1.0  0.39706  0.08170  0.37811  1.0000
  O   O1        1.0  0.30080  0.22784  0.99997  1.0000
  O   O2        1.0  0.00012  0.30058  0.22734  1.0000
  O   O3        1.0  0.22732  0.00000  0.30052  1.0000
  O   O4        1.0  0.36749  0.47794  0.22290  1.0000
  O   O5        1.0  0.22267  0.36735  0.47788  1.0000
  O   O6        1.0  0.47808  0.22249  0.36753  1.0000
  O   O7        1.0  0.98539  0.98541  0.98565  1.0000
