data_image0
_chemical_formula_structural       Hg4H48C52N16O24
_chemical_formula_sum              "Hg4 H48 C52 N16 O24"
_cell_length_a       10.3945
_cell_length_b       10.644
_cell_length_c       14.2119
_cell_angle_alpha    90
_cell_angle_beta     90
_cell_angle_gamma    97.3252

_space_group_name_H-M_alt    "P 1"
_space_group_IT_number       1

loop_
  _space_group_symop_operation_xyz
  'x, y, z'

loop_
  _atom_site_type_symbol
  _atom_site_label
  _atom_site_symmetry_multiplicity
  _atom_site_fract_x
  _atom_site_fract_y
  _atom_site_fract_z
  _atom_site_occupancy
  Hg  Hg1       1.0  0.16185  0.22583  0.24313  1.0000
  Hg  Hg2       1.0  0.33815  0.77417  0.74313  1.0000
  Hg  Hg3       1.0  0.83815  0.77417  0.75687  1.0000
  Hg  Hg4       1.0  0.66185  0.22583  0.25687  1.0000
  H   H1        1.0  0.12606  0.42244  0.90827  1.0000
  H   H2        1.0  0.37394  0.57756  0.40828  1.0000
  H   H3        1.0  0.87394  0.57756  0.09173  1.0000
  H   H4        1.0  0.62606  0.42244  0.59172  1.0000
  H   H5        1.0  0.12555  0.22073  0.81477  1.0000
  H   H6        1.0  0.37445  0.77927  0.31477  1.0000
  H   H7        1.0  0.87445  0.77927  0.18523  1.0000
  H   H8        1.0  0.62555  0.22073  0.68523  1.0000
  H   H9        1.0  0.15008  0.01966  0.90088  1.0000
  H   H10       1.0  0.34992  0.98034  0.40088  1.0000
  H   H11       1.0  0.84992  0.98034  0.09912  1.0000
  H   H12       1.0  0.65008  0.01966  0.59912  1.0000
  H   H13       1.0  0.16932  0.02532  0.07654  1.0000
  H   H14       1.0  0.33068  0.97468  0.57654  1.0000
  H   H15       1.0  0.83069  0.97468  0.92346  1.0000
  H   H16       1.0  0.66932  0.02532  0.42346  1.0000
  H   H17       1.0  0.11559  0.52663  0.06112  1.0000
  H   H18       1.0  0.38441  0.47337  0.56112  1.0000
  H   H19       1.0  0.88441  0.47337  0.93888  1.0000
  H   H20       1.0  0.61559  0.52663  0.43888  1.0000
  H   H21       1.0  0.18543  0.68122  0.16340  1.0000
  H   H22       1.0  0.31457  0.31878  0.66340  1.0000
  H   H23       1.0  0.81457  0.31878  0.83660  1.0000
  H   H24       1.0  0.68543  0.68122  0.33660  1.0000
  H   H25       1.0  0.13176  0.84832  0.27036  1.0000
  H   H26       1.0  0.36824  0.15168  0.77036  1.0000
  H   H27       1.0  0.86824  0.15168  0.72964  1.0000
  H   H28       1.0  0.63176  0.84832  0.22964  1.0000
  H   H29       1.0  0.93024  0.56805  0.45413  1.0000
  H   H30       1.0  0.56976  0.43195  0.95413  1.0000
  H   H31       1.0  0.06976  0.43195  0.54587  1.0000
  H   H32       1.0  0.43024  0.56805  0.04587  1.0000
  H   H33       1.0  0.98576  0.39810  0.34738  1.0000
  H   H34       1.0  0.51424  0.60190  0.84738  1.0000
  H   H35       1.0  0.01424  0.60190  0.65262  1.0000
  H   H36       1.0  0.48576  0.39810  0.15262  1.0000
  H   H37       1.0  0.89493  0.84591  0.42242  1.0000
  H   H38       1.0  0.60507  0.15409  0.92242  1.0000
  H   H39       1.0  0.10507  0.15409  0.57758  1.0000
  H   H40       1.0  0.39493  0.84591  0.07758  1.0000
  H   H41       1.0  0.05982  0.91271  0.42206  1.0000
  H   H42       1.0  0.44018  0.08729  0.92206  1.0000
  H   H43       1.0  0.94018  0.08729  0.57794  1.0000
  H   H44       1.0  0.55982  0.91271  0.07794  1.0000
  H   H45       1.0  0.00191  0.79809  0.50861  1.0000
  H   H46       1.0  0.49809  0.20191  0.00861  1.0000
  H   H47       1.0  0.99809  0.20191  0.49139  1.0000
  H   H48       1.0  0.50191  0.79809  0.99139  1.0000
  C   C1        1.0  0.14021  0.32688  0.04058  1.0000
  C   C2        1.0  0.35979  0.67312  0.54058  1.0000
  C   C3        1.0  0.85979  0.67312  0.95942  1.0000
  C   C4        1.0  0.64021  0.32688  0.45942  1.0000
  C   C5        1.0  0.13329  0.33203  0.94244  1.0000
  C   C6        1.0  0.36671  0.66797  0.44244  1.0000
  C   C7        1.0  0.86671  0.66797  0.05756  1.0000
  C   C8        1.0  0.63329  0.33203  0.55756  1.0000
  C   C9        1.0  0.13468  0.22069  0.89097  1.0000
  C   C10       1.0  0.36532  0.77930  0.39097  1.0000
  C   C11       1.0  0.86532  0.77930  0.10903  1.0000
  C   C12       1.0  0.63468  0.22069  0.60903  1.0000
  C   C13       1.0  0.14654  0.10819  0.93830  1.0000
  C   C14       1.0  0.35346  0.89181  0.43830  1.0000
  C   C15       1.0  0.85346  0.89181  0.06170  1.0000
  C   C16       1.0  0.64654  0.10819  0.56170  1.0000
  C   C17       1.0  0.15682  0.10990  0.03609  1.0000
  C   C18       1.0  0.34318  0.89010  0.53609  1.0000
  C   C19       1.0  0.84318  0.89010  0.96391  1.0000
  C   C20       1.0  0.65682  0.10990  0.46391  1.0000
  C   C21       1.0  0.12406  0.43779  0.09855  1.0000
  C   C22       1.0  0.37594  0.56221  0.59855  1.0000
  C   C23       1.0  0.87594  0.56221  0.90145  1.0000
  C   C24       1.0  0.62406  0.43779  0.40145  1.0000
  C   C25       1.0  0.08737  0.52781  0.24766  1.0000
  C   C26       1.0  0.41263  0.47219  0.74766  1.0000
  C   C27       1.0  0.91263  0.47219  0.75234  1.0000
  C   C28       1.0  0.58737  0.52781  0.25234  1.0000
  C   C29       1.0  0.12816  0.65551  0.22634  1.0000
  C   C30       1.0  0.37184  0.34450  0.72634  1.0000
  C   C31       1.0  0.87184  0.34450  0.77366  1.0000
  C   C32       1.0  0.62816  0.65551  0.27366  1.0000
  C   C33       1.0  0.09780  0.74995  0.28699  1.0000
  C   C34       1.0  0.40220  0.25005  0.78699  1.0000
  C   C35       1.0  0.90220  0.25005  0.71301  1.0000
  C   C36       1.0  0.59780  0.74995  0.21301  1.0000
  C   C37       1.0  0.02591  0.72128  0.36964  1.0000
  C   C38       1.0  0.47409  0.27872  0.86964  1.0000
  C   C39       1.0  0.97409  0.27872  0.63036  1.0000
  C   C40       1.0  0.52591  0.72128  0.13036  1.0000
  C   C41       1.0  0.98582  0.59314  0.39012  1.0000
  C   C42       1.0  0.51418  0.40686  0.89013  1.0000
  C   C43       1.0  0.01418  0.40686  0.60987  1.0000
  C   C44       1.0  0.48582  0.59314  0.10988  1.0000
  C   C45       1.0  0.01728  0.49731  0.33102  1.0000
  C   C46       1.0  0.48272  0.50269  0.83102  1.0000
  C   C47       1.0  0.98272  0.50269  0.66898  1.0000
  C   C48       1.0  0.51728  0.49731  0.16898  1.0000
  C   C49       1.0  0.99468  0.82479  0.43428  1.0000
  C   C50       1.0  0.50532  0.17521  0.93428  1.0000
  C   C51       1.0  0.00532  0.17521  0.56572  1.0000
  C   C52       1.0  0.49468  0.82479  0.06572  1.0000
  N   N1        1.0  0.15281  0.21681  0.08482  1.0000
  N   N2        1.0  0.34719  0.78319  0.58482  1.0000
  N   N3        1.0  0.84719  0.78319  0.91518  1.0000
  N   N4        1.0  0.65281  0.21681  0.41518  1.0000
  N   N5        1.0  0.11238  0.42789  0.18864  1.0000
  N   N6        1.0  0.38762  0.57211  0.68864  1.0000
  N   N7        1.0  0.88762  0.57211  0.81136  1.0000
  N   N8        1.0  0.61238  0.42789  0.31136  1.0000
  N   N9        1.0  0.90346  0.06479  0.27926  1.0000
  N   N10       1.0  0.59654  0.93521  0.77926  1.0000
  N   N11       1.0  0.09654  0.93521  0.72074  1.0000
  N   N12       1.0  0.40346  0.06479  0.22074  1.0000
  N   N13       1.0  0.28694  0.26013  0.42774  1.0000
  N   N14       1.0  0.21306  0.73987  0.92774  1.0000
  N   N15       1.0  0.71306  0.73987  0.57226  1.0000
  N   N16       1.0  0.78694  0.26013  0.07226  1.0000
  O   O1        1.0  0.00118  0.01743  0.24825  1.0000
  O   O2        1.0  0.49882  0.98257  0.74826  1.0000
  O   O3        1.0  0.99882  0.98257  0.75175  1.0000
  O   O4        1.0  0.50118  0.01743  0.25174  1.0000
  O   O5        1.0  0.91511  0.18458  0.29674  1.0000
  O   O6        1.0  0.58489  0.81542  0.79674  1.0000
  O   O7        1.0  0.08489  0.81542  0.70326  1.0000
  O   O8        1.0  0.41511  0.18458  0.20326  1.0000
  O   O9        1.0  0.79686  0.99749  0.29163  1.0000
  O   O10       1.0  0.70314  0.00251  0.79163  1.0000
  O   O11       1.0  0.20314  0.00251  0.70837  1.0000
  O   O12       1.0  0.29686  0.99749  0.20837  1.0000
  O   O13       1.0  0.22701  0.16179  0.38157  1.0000
  O   O14       1.0  0.27299  0.83820  0.88157  1.0000
  O   O15       1.0  0.77299  0.83820  0.61843  1.0000
  O   O16       1.0  0.72701  0.16180  0.11843  1.0000
  O   O17       1.0  0.29277  0.36783  0.39087  1.0000
  O   O18       1.0  0.20723  0.63217  0.89087  1.0000
  O   O19       1.0  0.70723  0.63218  0.60913  1.0000
  O   O20       1.0  0.79277  0.36783  0.10912  1.0000
  O   O21       1.0  0.33400  0.23950  0.50568  1.0000
  O   O22       1.0  0.16601  0.76050  0.00568  1.0000
  O   O23       1.0  0.66601  0.76050  0.49432  1.0000
  O   O24       1.0  0.83400  0.23950  0.99432  1.0000
