data_image0
_chemical_formula_structural       Cu2H20C26N4O8
_chemical_formula_sum              "Cu2 H20 C26 N4 O8"
_cell_length_a       6.68793
_cell_length_b       6.30783
_cell_length_c       14.174
_cell_angle_alpha    90.0036
_cell_angle_beta     98.2152
_cell_angle_gamma    90.0002

_space_group_name_H-M_alt    "P 1"
_space_group_IT_number       1

loop_
  _space_group_symop_operation_xyz
  'x, y, z'

loop_
  _atom_site_type_symbol
  _atom_site_label
  _atom_site_symmetry_multiplicity
  _atom_site_fract_x
  _atom_site_fract_y
  _atom_site_fract_z
  _atom_site_occupancy
  Cu  Cu1       1.0  0.27187  0.69389  0.58443  1.0000
  Cu  Cu2       1.0  0.72816  0.19390  0.41555  1.0000
  H   H1        1.0  0.77943  0.10774  0.58298  1.0000
  H   H2        1.0  0.22061  0.60777  0.41701  1.0000
  H   H3        1.0  0.79316  0.56505  0.76031  1.0000
  H   H4        1.0  0.20689  0.06505  0.23971  1.0000
  H   H5        1.0  0.83064  0.49629  0.93453  1.0000
  H   H6        1.0  0.16933  0.99631  0.06549  1.0000
  H   H7        1.0  0.87475  0.12908  0.99635  1.0000
  H   H8        1.0  0.12520  0.62910  0.00364  1.0000
  H   H9        1.0  0.88793  0.82873  0.88317  1.0000
  H   H10       1.0  0.11201  0.32874  0.11679  1.0000
  H   H11       1.0  0.83996  0.89708  0.70840  1.0000
  H   H12       1.0  0.15999  0.39709  0.29157  1.0000
  H   H13       1.0  0.40601  0.57318  0.78714  1.0000
  H   H14       1.0  0.59403  0.07316  0.21287  1.0000
  H   H15       1.0  0.42992  0.07588  0.97796  1.0000
  H   H16       1.0  0.57003  0.57584  0.02206  1.0000
  H   H17       1.0  0.31916  0.32253  0.84175  1.0000
  H   H18       1.0  0.68080  0.82251  0.15829  1.0000
  H   H19       1.0  0.26792  0.16905  0.67530  1.0000
  H   H20       1.0  0.73208  0.66904  0.32472  1.0000
  C   C1        1.0  0.58429  0.37509  0.57290  1.0000
  C   C2        1.0  0.41573  0.87511  0.42710  1.0000
  C   C3        1.0  0.78230  0.26554  0.61682  1.0000
  C   C4        1.0  0.21773  0.76555  0.38318  1.0000
  C   C5        1.0  0.94838  0.38983  0.57503  1.0000
  C   C6        1.0  0.05167  0.88983  0.42496  1.0000
  C   C7        1.0  0.81255  0.23531  0.72287  1.0000
  C   C8        1.0  0.18747  0.73531  0.27713  1.0000
  C   C9        1.0  0.81377  0.40401  0.78726  1.0000
  C   C10       1.0  0.18625  0.90402  0.21275  1.0000
  C   C11       1.0  0.83661  0.36517  0.88499  1.0000
  C   C12       1.0  0.16337  0.86518  0.11501  1.0000
  C   C13       1.0  0.86262  0.15854  0.92002  1.0000
  C   C14       1.0  0.13735  0.65857  0.07996  1.0000
  C   C15       1.0  0.86626  0.99024  0.85644  1.0000
  C   C16       1.0  0.13370  0.49026  0.14353  1.0000
  C   C17       1.0  0.83942  0.02841  0.75854  1.0000
  C   C18       1.0  0.16056  0.52843  0.24144  1.0000
  C   C19       1.0  0.38483  0.74094  0.80083  1.0000
  C   C20       1.0  0.61518  0.24091  0.19919  1.0000
  C   C21       1.0  0.39730  0.01666  0.90485  1.0000
  C   C22       1.0  0.60267  0.51662  0.09517  1.0000
  C   C23       1.0  0.34062  0.15482  0.82937  1.0000
  C   C24       1.0  0.65937  0.65480  0.17066  1.0000
  C   C25       1.0  0.30986  0.07006  0.73793  1.0000
  C   C26       1.0  0.69014  0.57006  0.26209  1.0000
  N   N1        1.0  0.33174  0.86138  0.72323  1.0000
  N   N2        1.0  0.66829  0.36137  0.27678  1.0000
  N   N3        1.0  0.41866  0.80710  0.89114  1.0000
  N   N4        1.0  0.58133  0.30705  0.10887  1.0000
  O   O1        1.0  0.48755  0.48048  0.62750  1.0000
  O   O2        1.0  0.51247  0.98051  0.37250  1.0000
  O   O3        1.0  0.53361  0.35727  0.48310  1.0000
  O   O4        1.0  0.46642  0.85730  0.51688  1.0000
  O   O5        1.0  0.06901  0.50294  0.63109  1.0000
  O   O6        1.0  0.93103  0.00294  0.36890  1.0000
  O   O7        1.0  0.95098  0.37357  0.48561  1.0000
  O   O8        1.0  0.04904  0.87360  0.51438  1.0000
