data_image0
_chemical_formula_structural       Cd2H24C30S4N4O12
_chemical_formula_sum              "Cd2 H24 C30 S4 N4 O12"
_cell_length_a       8.70314
_cell_length_b       9.67439
_cell_length_c       11.5049
_cell_angle_alpha    66.4335
_cell_angle_beta     77.8219
_cell_angle_gamma    78.2192

_space_group_name_H-M_alt    "P 1"
_space_group_IT_number       1

loop_
  _space_group_symop_operation_xyz
  'x, y, z'

loop_
  _atom_site_type_symbol
  _atom_site_label
  _atom_site_symmetry_multiplicity
  _atom_site_fract_x
  _atom_site_fract_y
  _atom_site_fract_z
  _atom_site_occupancy
  Cd  Cd1       1.0  0.27341  0.52384  0.83918  1.0000
  Cd  Cd2       1.0  0.72659  0.47616  0.16082  1.0000
  H   H1        1.0  0.65113  0.40915  0.84269  1.0000
  H   H2        1.0  0.34886  0.59085  0.15732  1.0000
  H   H3        1.0  0.90824  0.43766  0.69731  1.0000
  H   H4        1.0  0.09176  0.56233  0.30270  1.0000
  H   H5        1.0  0.90177  0.58538  0.45851  1.0000
  H   H6        1.0  0.09823  0.41461  0.54150  1.0000
  H   H7        1.0  0.64463  0.69874  0.38153  1.0000
  H   H8        1.0  0.35537  0.30126  0.61848  1.0000
  H   H9        1.0  0.98217  0.72003  0.67574  1.0000
  H   H10       1.0  0.01783  0.27997  0.32425  1.0000
  H   H11       1.0  0.93306  0.87080  0.45084  1.0000
  H   H12       1.0  0.06694  0.12920  0.54915  1.0000
  H   H13       1.0  0.16577  0.90500  0.27310  1.0000
  H   H14       1.0  0.83423  0.09501  0.72689  1.0000
  H   H15       1.0  0.43440  0.78924  0.32876  1.0000
  H   H16       1.0  0.56560  0.21076  0.67124  1.0000
  H   H17       1.0  0.98436  0.36878  0.93990  1.0000
  H   H18       1.0  0.01564  0.63123  0.06010  1.0000
  H   H19       1.0  0.41128  0.20444  0.90173  1.0000
  H   H20       1.0  0.58871  0.79557  0.09827  1.0000
  H   H21       1.0  0.93966  0.54314  0.87358  1.0000
  H   H22       1.0  0.06034  0.45686  0.12641  1.0000
  H   H23       1.0  0.31298  0.08972  0.89606  1.0000
  H   H24       1.0  0.68703  0.91027  0.10395  1.0000
  C   C1        1.0  0.44825  0.19271  0.20347  1.0000
  C   C2        1.0  0.55175  0.80731  0.79653  1.0000
  C   C3        1.0  0.60751  0.14972  0.19310  1.0000
  C   C4        1.0  0.39249  0.85028  0.80690  1.0000
  C   C5        1.0  0.50397  0.03396  0.43509  1.0000
  C   C6        1.0  0.49603  0.96603  0.56490  1.0000
  C   C7        1.0  0.34975  0.29112  0.10252  1.0000
  C   C8        1.0  0.65025  0.70888  0.89747  1.0000
  C   C9        1.0  0.73183  0.19118  0.07489  1.0000
  C   C10       1.0  0.26818  0.80882  0.92511  1.0000
  C   C11       1.0  0.65504  0.47325  0.74004  1.0000
  C   C12       1.0  0.34495  0.52674  0.25997  1.0000
  C   C13       1.0  0.79800  0.48859  0.65747  1.0000
  C   C14       1.0  0.20199  0.51140  0.34253  1.0000
  C   C15       1.0  0.79348  0.57071  0.52721  1.0000
  C   C16       1.0  0.20652  0.42929  0.47280  1.0000
  C   C17       1.0  0.64837  0.63553  0.48359  1.0000
  C   C18       1.0  0.35164  0.36447  0.51642  1.0000
  C   C19       1.0  0.50913  0.61841  0.57260  1.0000
  C   C20       1.0  0.49087  0.38160  0.42740  1.0000
  C   C21       1.0  0.07977  0.73599  0.59655  1.0000
  C   C22       1.0  0.92023  0.26402  0.40345  1.0000
  C   C23       1.0  0.05287  0.82047  0.47072  1.0000
  C   C24       1.0  0.94713  0.17953  0.52928  1.0000
  C   C25       1.0  0.18167  0.83986  0.37302  1.0000
  C   C26       1.0  0.81834  0.16014  0.62697  1.0000
  C   C27       1.0  0.33276  0.77389  0.40450  1.0000
  C   C28       1.0  0.66724  0.22611  0.59549  1.0000
  C   C29       1.0  0.35130  0.68993  0.53305  1.0000
  C   C30       1.0  0.64870  0.31007  0.46695  1.0000
  S   S1        1.0  0.33926  0.12746  0.35693  1.0000
  S   S2        1.0  0.66074  0.87254  0.64306  1.0000
  S   S3        1.0  0.68363  0.03207  0.33265  1.0000
  S   S4        1.0  0.31637  0.96792  0.66735  1.0000
  N   N1        1.0  0.51461  0.53664  0.69863  1.0000
  N   N2        1.0  0.48539  0.46336  0.30137  1.0000
  N   N3        1.0  0.22494  0.67204  0.62719  1.0000
  N   N4        1.0  0.77506  0.32796  0.37281  1.0000
  O   O1        1.0  0.20198  0.31069  0.13852  1.0000
  O   O2        1.0  0.79802  0.68931  0.86148  1.0000
  O   O3        1.0  0.42096  0.34734  0.98729  1.0000
  O   O4        1.0  0.57903  0.65266  0.01271  1.0000
  O   O5        1.0  0.76412  0.10777  0.01171  1.0000
  O   O6        1.0  0.23589  0.89223  0.98829  1.0000
  O   O7        1.0  0.80005  0.30657  0.05573  1.0000
  O   O8        1.0  0.19995  0.69344  0.94428  1.0000
  O   O9        1.0  0.02567  0.45818  0.86949  1.0000
  O   O10       1.0  0.97433  0.54182  0.13050  1.0000
  O   O11       1.0  0.36042  0.18401  0.84311  1.0000
  O   O12       1.0  0.63958  0.81598  0.15689  1.0000
