data_image0
_chemical_formula_structural       Cd3H46C36N2O26
_chemical_formula_sum              "Cd3 H46 C36 N2 O26"
_cell_length_a       10.9644
_cell_length_b       11.1569
_cell_length_c       11.6857
_cell_angle_alpha    76.2368
_cell_angle_beta     70.6043
_cell_angle_gamma    72.2499

_space_group_name_H-M_alt    "P 1"
_space_group_IT_number       1

loop_
  _space_group_symop_operation_xyz
  'x, y, z'

loop_
  _atom_site_type_symbol
  _atom_site_label
  _atom_site_symmetry_multiplicity
  _atom_site_fract_x
  _atom_site_fract_y
  _atom_site_fract_z
  _atom_site_occupancy
  Cd  Cd1       1.0  0.76356  0.05374  0.92036  1.0000
  Cd  Cd2       1.0  0.23644  0.94626  0.07964  1.0000
  Cd  Cd3       1.0  0.00000  0.50000  1.00000  1.0000
  H   H1        1.0  0.35816  0.91416  0.48398  1.0000
  H   H2        1.0  0.64184  0.08585  0.51602  1.0000
  H   H3        1.0  0.41462  0.69701  0.82799  1.0000
  H   H4        1.0  0.58538  0.30300  0.17201  1.0000
  H   H5        1.0  0.75782  0.72842  0.51305  1.0000
  H   H6        1.0  0.24218  0.27158  0.48696  1.0000
  H   H7        1.0  0.48242  0.03468  0.33421  1.0000
  H   H8        1.0  0.51758  0.96533  0.66578  1.0000
  H   H9        1.0  0.46112  0.90019  0.29320  1.0000
  H   H10       1.0  0.53889  0.09981  0.70681  1.0000
  H   H11       1.0  0.14322  0.91852  0.58265  1.0000
  H   H12       1.0  0.85677  0.08148  0.41735  1.0000
  H   H13       1.0  0.19772  0.02161  0.64105  1.0000
  H   H14       1.0  0.80227  0.97840  0.35895  1.0000
  H   H15       1.0  0.57636  0.51261  0.86618  1.0000
  H   H16       1.0  0.42364  0.48739  0.13383  1.0000
  H   H17       1.0  0.56662  0.65235  0.91938  1.0000
  H   H18       1.0  0.43339  0.34765  0.08062  1.0000
  H   H19       1.0  0.82570  0.27910  0.71901  1.0000
  H   H20       1.0  0.17430  0.72090  0.28099  1.0000
  H   H21       1.0  0.72623  0.44977  0.57151  1.0000
  H   H22       1.0  0.27377  0.55022  0.42849  1.0000
  H   H23       1.0  0.34377  0.37142  0.77417  1.0000
  H   H24       1.0  0.65623  0.62856  0.22583  1.0000
  H   H25       1.0  0.45903  0.20564  0.91694  1.0000
  H   H26       1.0  0.54098  0.79434  0.08306  1.0000
  H   H27       1.0  0.47131  0.61119  0.56806  1.0000
  H   H28       1.0  0.52867  0.38881  0.43195  1.0000
  H   H29       1.0  0.35840  0.51832  0.59049  1.0000
  H   H30       1.0  0.64159  0.48166  0.40952  1.0000
  H   H31       1.0  0.75447  0.81087  0.89815  1.0000
  H   H32       1.0  0.24553  0.18913  0.10184  1.0000
  H   H33       1.0  0.61690  0.90199  0.87384  1.0000
  H   H34       1.0  0.38310  0.09800  0.12616  1.0000
  H   H35       1.0  0.79448  0.26883  0.99686  1.0000
  H   H36       1.0  0.20552  0.73118  0.00314  1.0000
  H   H37       1.0  0.89431  0.14596  0.04576  1.0000
  H   H38       1.0  0.10569  0.85405  0.95423  1.0000
  H   H39       1.0  0.06235  0.22192  0.04592  1.0000
  H   H40       1.0  0.93765  0.77808  0.95407  1.0000
  H   H41       1.0  0.16016  0.23478  0.91629  1.0000
  H   H42       1.0  0.83984  0.76522  0.08370  1.0000
  H   H43       1.0  0.21891  0.57889  0.87751  1.0000
  H   H44       1.0  0.78110  0.42112  0.12248  1.0000
  H   H45       1.0  0.13714  0.65784  0.78378  1.0000
  H   H46       1.0  0.86285  0.34217  0.21622  1.0000
  C   C1        1.0  0.56387  0.82476  0.48507  1.0000
  C   C2        1.0  0.43613  0.17524  0.51493  1.0000
  C   C3        1.0  0.42501  0.85580  0.53769  1.0000
  C   C4        1.0  0.57499  0.14420  0.46231  1.0000
  C   C5        1.0  0.37496  0.80822  0.66133  1.0000
  C   C6        1.0  0.62504  0.19179  0.33867  1.0000
  C   C7        1.0  0.45866  0.73249  0.73276  1.0000
  C   C8        1.0  0.54134  0.26751  0.26725  1.0000
  C   C9        1.0  0.59673  0.70542  0.67840  1.0000
  C   C10       1.0  0.40327  0.29458  0.32160  1.0000
  C   C11       1.0  0.65031  0.75064  0.55442  1.0000
  C   C12       1.0  0.34968  0.24936  0.44558  1.0000
  C   C13       1.0  0.53608  0.94647  0.29456  1.0000
  C   C14       1.0  0.46392  0.05353  0.70544  1.0000
  C   C15       1.0  0.61443  0.98163  0.16306  1.0000
  C   C16       1.0  0.38558  0.01837  0.83694  1.0000
  C   C17       1.0  0.15551  0.93794  0.66587  1.0000
  C   C18       1.0  0.84449  0.06206  0.33413  1.0000
  C   C19       1.0  0.01873  0.97115  0.75654  1.0000
  C   C20       1.0  0.98126  0.02886  0.24346  1.0000
  C   C21       1.0  0.63465  0.57851  0.86324  1.0000
  C   C22       1.0  0.36535  0.42149  0.13676  1.0000
  C   C23       1.0  0.74420  0.50915  0.92536  1.0000
  C   C24       1.0  0.25580  0.49085  0.07464  1.0000
  C   C25       1.0  0.71919  0.30339  0.72826  1.0000
  C   C26       1.0  0.28081  0.69661  0.27174  1.0000
  C   C27       1.0  0.66303  0.39681  0.64564  1.0000
  C   C28       1.0  0.33697  0.60319  0.35436  1.0000
  C   C29       1.0  0.52637  0.42168  0.65806  1.0000
  C   C30       1.0  0.47362  0.57831  0.34194  1.0000
  C   C31       1.0  0.45087  0.35382  0.75912  1.0000
  C   C32       1.0  0.54913  0.64617  0.24088  1.0000
  C   C33       1.0  0.51407  0.26232  0.83879  1.0000
  C   C34       1.0  0.48594  0.73767  0.16121  1.0000
  C   C35       1.0  0.46485  0.51566  0.56546  1.0000
  C   C36       1.0  0.53514  0.48433  0.43454  1.0000
  N   N1        1.0  0.64636  0.23516  0.82247  1.0000
  N   N2        1.0  0.35365  0.76483  0.17753  1.0000
  O   O1        1.0  0.62275  0.86383  0.36407  1.0000
  O   O2        1.0  0.37725  0.13618  0.63593  1.0000
  O   O3        1.0  0.24042  0.83073  0.72006  1.0000
  O   O4        1.0  0.75958  0.16928  0.27994  1.0000
  O   O5        1.0  0.68757  0.63471  0.74045  1.0000
  O   O6        1.0  0.31243  0.36529  0.25955  1.0000
  O   O7        1.0  0.73829  0.93173  0.12527  1.0000
  O   O8        1.0  0.26171  0.06827  0.87473  1.0000
  O   O9        1.0  0.54819  0.06290  0.09442  1.0000
  O   O10       1.0  0.45181  0.93710  0.90558  1.0000
  O   O11       1.0  0.93276  0.06047  0.71851  1.0000
  O   O12       1.0  0.06724  0.93955  0.28149  1.0000
  O   O13       1.0  0.99665  0.90979  0.86665  1.0000
  O   O14       1.0  0.00335  0.09021  0.13334  1.0000
  O   O15       1.0  0.70853  0.42943  0.02100  1.0000
  O   O16       1.0  0.29147  0.57058  0.97900  1.0000
  O   O17       1.0  0.85529  0.53799  0.88462  1.0000
  O   O18       1.0  0.14471  0.46201  0.11538  1.0000
  O   O19       1.0  0.71496  0.89369  0.85652  1.0000
  O   O20       1.0  0.28503  0.10630  0.14348  1.0000
  O   O21       1.0  0.85192  0.18446  0.97791  1.0000
  O   O22       1.0  0.14808  0.81555  0.02208  1.0000
  O   O23       1.0  0.11546  0.28032  0.98763  1.0000
  O   O24       1.0  0.88455  0.71968  0.01237  1.0000
  O   O25       1.0  0.16068  0.57233  0.82847  1.0000
  O   O26       1.0  0.83932  0.42767  0.17153  1.0000
