data_image0
_chemical_formula_structural       Sr4H36C36S4N4O20
_chemical_formula_sum              "Sr4 H36 C36 S4 N4 O20"
_cell_length_a       5.98954
_cell_length_b       11.3786
_cell_length_c       17.1103
_cell_angle_alpha    89.9992
_cell_angle_beta     90.0005
_cell_angle_gamma    91.9477

_space_group_name_H-M_alt    "P 1"
_space_group_IT_number       1

loop_
  _space_group_symop_operation_xyz
  'x, y, z'

loop_
  _atom_site_type_symbol
  _atom_site_label
  _atom_site_symmetry_multiplicity
  _atom_site_fract_x
  _atom_site_fract_y
  _atom_site_fract_z
  _atom_site_occupancy
  Sr  Sr1       1.0  0.78239  0.09852  0.50064  1.0000
  Sr  Sr2       1.0  0.71761  0.40148  0.00064  1.0000
  Sr  Sr3       1.0  0.21760  0.90149  0.49935  1.0000
  Sr  Sr4       1.0  0.28241  0.59852  0.99936  1.0000
  H   H1        1.0  0.33914  0.75410  0.67862  1.0000
  H   H2        1.0  0.16087  0.74589  0.17862  1.0000
  H   H3        1.0  0.66085  0.24589  0.32139  1.0000
  H   H4        1.0  0.83913  0.25410  0.82139  1.0000
  H   H5        1.0  0.38975  0.64217  0.81347  1.0000
  H   H6        1.0  0.11025  0.85782  0.31347  1.0000
  H   H7        1.0  0.61026  0.35783  0.18653  1.0000
  H   H8        1.0  0.88975  0.14217  0.68653  1.0000
  H   H9        1.0  0.20896  0.32470  0.48582  1.0000
  H   H10       1.0  0.29102  0.17530  0.98583  1.0000
  H   H11       1.0  0.79104  0.67530  0.51417  1.0000
  H   H12       1.0  0.70897  0.82470  0.01418  1.0000
  H   H13       1.0  0.04491  0.49663  0.28878  1.0000
  H   H14       1.0  0.45507  0.00338  0.78878  1.0000
  H   H15       1.0  0.95508  0.50337  0.71122  1.0000
  H   H16       1.0  0.54492  0.99663  0.21122  1.0000
  H   H17       1.0  0.81795  0.43904  0.34720  1.0000
  H   H18       1.0  0.68204  0.06097  0.84720  1.0000
  H   H19       1.0  0.18205  0.56096  0.65280  1.0000
  H   H20       1.0  0.31796  0.93904  0.15280  1.0000
  H   H21       1.0  0.93257  0.58431  0.36440  1.0000
  H   H22       1.0  0.56742  0.91570  0.86440  1.0000
  H   H23       1.0  0.06743  0.41569  0.63560  1.0000
  H   H24       1.0  0.43258  0.08431  0.13560  1.0000
  H   H25       1.0  0.42306  0.48955  0.34160  1.0000
  H   H26       1.0  0.07694  0.01045  0.84159  1.0000
  H   H27       1.0  0.57696  0.51045  0.65840  1.0000
  H   H28       1.0  0.92306  0.98955  0.15841  1.0000
  H   H29       1.0  0.35832  0.58705  0.41948  1.0000
  H   H30       1.0  0.14167  0.91296  0.91948  1.0000
  H   H31       1.0  0.64168  0.41295  0.58052  1.0000
  H   H32       1.0  0.85834  0.08704  0.08052  1.0000
  H   H33       1.0  0.46112  0.44349  0.44017  1.0000
  H   H34       1.0  0.03888  0.05651  0.94017  1.0000
  H   H35       1.0  0.53889  0.55652  0.55983  1.0000
  H   H36       1.0  0.96112  0.94348  0.05983  1.0000
  C   C1        1.0  0.71507  0.89544  0.62186  1.0000
  C   C2        1.0  0.78494  0.60457  0.12186  1.0000
  C   C3        1.0  0.28491  0.10457  0.37815  1.0000
  C   C4        1.0  0.21508  0.39543  0.87814  1.0000
  C   C5        1.0  0.68462  0.81636  0.68980  1.0000
  C   C6        1.0  0.81539  0.68364  0.18980  1.0000
  C   C7        1.0  0.31539  0.18364  0.31020  1.0000
  C   C8        1.0  0.18462  0.31635  0.81020  1.0000
  C   C9        1.0  0.49228  0.75457  0.71284  1.0000
  C   C10       1.0  0.00772  0.74543  0.21284  1.0000
  C   C11       1.0  0.50772  0.24543  0.28716  1.0000
  C   C12       1.0  0.99228  0.25457  0.78716  1.0000
  C   C13       1.0  0.51967  0.69509  0.78441  1.0000
  C   C14       1.0  0.98032  0.80490  0.28441  1.0000
  C   C15       1.0  0.48034  0.30490  0.21559  1.0000
  C   C16       1.0  0.01967  0.19510  0.71559  1.0000
  C   C17       1.0  0.73216  0.71305  0.81550  1.0000
  C   C18       1.0  0.76782  0.78695  0.31550  1.0000
  C   C19       1.0  0.26784  0.28695  0.18450  1.0000
  C   C20       1.0  0.23216  0.21305  0.68450  1.0000
  C   C21       1.0  0.82005  0.67456  0.89227  1.0000
  C   C22       1.0  0.67994  0.82543  0.39227  1.0000
  C   C23       1.0  0.17997  0.32543  0.10773  1.0000
  C   C24       1.0  0.32004  0.17458  0.60773  1.0000
  C   C25       1.0  0.06940  0.35622  0.45006  1.0000
  C   C26       1.0  0.43060  0.14377  0.95006  1.0000
  C   C27       1.0  0.93064  0.64378  0.54994  1.0000
  C   C28       1.0  0.56940  0.85623  0.04994  1.0000
  C   C29       1.0  0.97122  0.49401  0.34758  1.0000
  C   C30       1.0  0.52877  0.00600  0.84757  1.0000
  C   C31       1.0  0.02878  0.50599  0.65242  1.0000
  C   C32       1.0  0.47123  0.99401  0.15242  1.0000
  C   C33       1.0  0.35567  0.49429  0.40119  1.0000
  C   C34       1.0  0.14430  0.00571  0.90119  1.0000
  C   C35       1.0  0.64433  0.50571  0.59881  1.0000
  C   C36       1.0  0.85569  0.99429  0.09881  1.0000
  S   S1        1.0  0.89916  0.79976  0.75529  1.0000
  S   S2        1.0  0.60083  0.70024  0.25528  1.0000
  S   S3        1.0  0.10083  0.20024  0.24471  1.0000
  S   S4        1.0  0.39916  0.29976  0.74472  1.0000
  N   N1        1.0  0.12873  0.44476  0.40217  1.0000
  N   N2        1.0  0.37125  0.05524  0.90216  1.0000
  N   N3        1.0  0.87127  0.55523  0.59783  1.0000
  N   N4        1.0  0.62875  0.94477  0.09784  1.0000
  O   O1        1.0  0.54142  0.92625  0.58522  1.0000
  O   O2        1.0  0.95859  0.57376  0.08522  1.0000
  O   O3        1.0  0.45855  0.07376  0.41478  1.0000
  O   O4        1.0  0.04143  0.42625  0.91478  1.0000
  O   O5        1.0  0.91209  0.93274  0.60466  1.0000
  O   O6        1.0  0.58792  0.56725  0.10466  1.0000
  O   O7        1.0  0.08789  0.06727  0.39534  1.0000
  O   O8        1.0  0.41209  0.43274  0.89534  1.0000
  O   O9        1.0  0.68182  0.62568  0.93977  1.0000
  O   O10       1.0  0.81817  0.87433  0.43977  1.0000
  O   O11       1.0  0.31820  0.37432  0.06023  1.0000
  O   O12       1.0  0.18181  0.12569  0.56023  1.0000
  O   O13       1.0  0.02663  0.69605  0.90558  1.0000
  O   O14       1.0  0.47335  0.80395  0.40557  1.0000
  O   O15       1.0  0.97338  0.30395  0.09442  1.0000
  O   O16       1.0  0.52663  0.19605  0.59443  1.0000
  O   O17       1.0  0.87678  0.31014  0.45521  1.0000
  O   O18       1.0  0.62322  0.18985  0.95522  1.0000
  O   O19       1.0  0.12323  0.68985  0.54478  1.0000
  O   O20       1.0  0.37678  0.81015  0.04479  1.0000
