data_image0
_chemical_formula_structural       Cd3H42C34N2O26
_chemical_formula_sum              "Cd3 H42 C34 N2 O26"
_cell_length_a       10.0509
_cell_length_b       11.4095
_cell_length_c       10.6138
_cell_angle_alpha    73.4557
_cell_angle_beta     79.1297
_cell_angle_gamma    73.5827

_space_group_name_H-M_alt    "P 1"
_space_group_IT_number       1

loop_
  _space_group_symop_operation_xyz
  'x, y, z'

loop_
  _atom_site_type_symbol
  _atom_site_label
  _atom_site_symmetry_multiplicity
  _atom_site_fract_x
  _atom_site_fract_y
  _atom_site_fract_z
  _atom_site_occupancy
  Cd  Cd1       1.0  0.18055  0.19367  0.41106  1.0000
  Cd  Cd2       1.0  0.81944  0.80633  0.58894  1.0000
  Cd  Cd3       1.0  0.00000  0.00000  0.99999  1.0000
  H   H1        1.0  0.57632  0.61048  0.55842  1.0000
  H   H2        1.0  0.42367  0.38952  0.44158  1.0000
  H   H3        1.0  0.18884  0.57637  0.80479  1.0000
  H   H4        1.0  0.81116  0.42364  0.19522  1.0000
  H   H5        1.0  0.52992  0.24428  0.79517  1.0000
  H   H6        1.0  0.47007  0.75573  0.20483  1.0000
  H   H7        1.0  0.79405  0.51651  0.57990  1.0000
  H   H8        1.0  0.20595  0.48350  0.42010  1.0000
  H   H9        1.0  0.74999  0.47027  0.44941  1.0000
  H   H10       1.0  0.24999  0.52975  0.55058  1.0000
  H   H11       1.0  0.41422  0.77124  0.45112  1.0000
  H   H12       1.0  0.58578  0.22876  0.54888  1.0000
  H   H13       1.0  0.48811  0.80677  0.57187  1.0000
  H   H14       1.0  0.51189  0.19323  0.42813  1.0000
  H   H15       1.0  0.07780  0.43166  0.84025  1.0000
  H   H16       1.0  0.92219  0.56836  0.15975  1.0000
  H   H17       1.0  0.12097  0.42575  0.99794  1.0000
  H   H18       1.0  0.87903  0.57426  0.00208  1.0000
  H   H19       1.0  0.45827  0.15497  0.20967  1.0000
  H   H20       1.0  0.54174  0.84502  0.79033  1.0000
  H   H21       1.0  0.60853  0.27866  0.05058  1.0000
  H   H22       1.0  0.39149  0.72134  0.94943  1.0000
  H   H23       1.0  0.27409  0.61298  0.07325  1.0000
  H   H24       1.0  0.72591  0.38701  0.92675  1.0000
  H   H25       1.0  0.13929  0.47299  0.23385  1.0000
  H   H26       1.0  0.86071  0.52700  0.76615  1.0000
  H   H27       1.0  0.95423  0.09484  0.36336  1.0000
  H   H28       1.0  0.04578  0.90515  0.63663  1.0000
  H   H29       1.0  0.00759  0.18542  0.23175  1.0000
  H   H30       1.0  0.99241  0.81457  0.76825  1.0000
  H   H31       1.0  0.31256  0.17160  0.65652  1.0000
  H   H32       1.0  0.68744  0.82841  0.34348  1.0000
  H   H33       1.0  0.15659  0.24581  0.63768  1.0000
  H   H34       1.0  0.84340  0.75419  0.36232  1.0000
  H   H35       1.0  0.11571  0.97693  0.23155  1.0000
  H   H36       1.0  0.88429  0.02307  0.76844  1.0000
  H   H37       1.0  0.10409  0.83894  0.24376  1.0000
  H   H38       1.0  0.89592  0.16106  0.75622  1.0000
  H   H39       1.0  0.80876  0.06888  0.23126  1.0000
  H   H40       1.0  0.19124  0.93112  0.76874  1.0000
  H   H41       1.0  0.85367  0.17984  0.12059  1.0000
  H   H42       1.0  0.14632  0.82015  0.87941  1.0000
  C   C1        1.0  0.56712  0.42266  0.67549  1.0000
  C   C2        1.0  0.43287  0.57734  0.32451  1.0000
  C   C3        1.0  0.51337  0.55284  0.62983  1.0000
  C   C4        1.0  0.48662  0.44717  0.37017  1.0000
  C   C5        1.0  0.37700  0.60461  0.67931  1.0000
  C   C6        1.0  0.62300  0.39540  0.32069  1.0000
  C   C7        1.0  0.29342  0.53041  0.76820  1.0000
  C   C8        1.0  0.70658  0.46960  0.23180  1.0000
  C   C9        1.0  0.34833  0.40026  0.80507  1.0000
  C   C10       1.0  0.65166  0.59975  0.19493  1.0000
  C   C11       1.0  0.48606  0.34519  0.76152  1.0000
  C   C12       1.0  0.51392  0.65481  0.23849  1.0000
  C   C13       1.0  0.78824  0.43508  0.54680  1.0000
  C   C14       1.0  0.21176  0.56493  0.45320  1.0000
  C   C15       1.0  0.93414  0.35010  0.53681  1.0000
  C   C16       1.0  0.06586  0.64989  0.46318  1.0000
  C   C17       1.0  0.38921  0.80645  0.54139  1.0000
  C   C18       1.0  0.61079  0.19355  0.45862  1.0000
  C   C19       1.0  0.30493  0.94132  0.50755  1.0000
  C   C20       1.0  0.69507  0.05867  0.49245  1.0000
  C   C21       1.0  0.13097  0.36977  0.92635  1.0000
  C   C22       1.0  0.86903  0.63024  0.07365  1.0000
  C   C23       1.0  0.05780  0.26313  0.98699  1.0000
  C   C24       1.0  0.94220  0.73687  0.01302  1.0000
  C   C25       1.0  0.42183  0.25706  0.17641  1.0000
  C   C26       1.0  0.57819  0.74293  0.82360  1.0000
  C   C27       1.0  0.50540  0.32849  0.08618  1.0000
  C   C28       1.0  0.49461  0.67151  0.91383  1.0000
  C   C29       1.0  0.45646  0.45997  0.04643  1.0000
  C   C30       1.0  0.54355  0.54001  0.95357  1.0000
  C   C31       1.0  0.32094  0.51225  0.09950  1.0000
  C   C32       1.0  0.67907  0.48775  0.90051  1.0000
  C   C33       1.0  0.24380  0.43464  0.18933  1.0000
  C   C34       1.0  0.75622  0.56535  0.81067  1.0000
  N   N1        1.0  0.29331  0.30886  0.22903  1.0000
  N   N2        1.0  0.70670  0.69113  0.77097  1.0000
  O   O1        1.0  0.70147  0.36254  0.63983  1.0000
  O   O2        1.0  0.29852  0.63746  0.36018  1.0000
  O   O3        1.0  0.31352  0.73083  0.64326  1.0000
  O   O4        1.0  0.68648  0.26917  0.35674  1.0000
  O   O5        1.0  0.27394  0.31818  0.88585  1.0000
  O   O6        1.0  0.72607  0.68182  0.11415  1.0000
  O   O7        1.0  0.97762  0.26853  0.63903  1.0000
  O   O8        1.0  0.02237  0.73146  0.36097  1.0000
  O   O9        1.0  0.00587  0.36844  0.42301  1.0000
  O   O10       1.0  0.99412  0.63157  0.57696  1.0000
  O   O11       1.0  0.36019  0.01459  0.41122  1.0000
  O   O12       1.0  0.63981  0.98541  0.58877  1.0000
  O   O13       1.0  0.18722  0.97803  0.57331  1.0000
  O   O14       1.0  0.81279  0.02198  0.42668  1.0000
  O   O15       1.0  0.96038  0.28059  0.08189  1.0000
  O   O16       1.0  0.03960  0.71941  0.91812  1.0000
  O   O17       1.0  0.09508  0.16947  0.93673  1.0000
  O   O18       1.0  0.90491  0.83055  0.06327  1.0000
  O   O19       1.0  0.04020  0.11888  0.31149  1.0000
  O   O20       1.0  0.95980  0.88111  0.68850  1.0000
  O   O21       1.0  0.25511  0.23730  0.59428  1.0000
  O   O22       1.0  0.74489  0.76271  0.40571  1.0000
  O   O23       1.0  0.13276  0.91315  0.18049  1.0000
  O   O24       1.0  0.86725  0.08685  0.81950  1.0000
  O   O25       1.0  0.81281  0.10575  0.13515  1.0000
  O   O26       1.0  0.18719  0.89424  0.86485  1.0000
