data_image0
_chemical_formula_structural       Ag8H24C32N8O24
_chemical_formula_sum              "Ag8 H24 C32 N8 O24"
_cell_length_a       7.37966
_cell_length_b       10.8448
_cell_length_c       13.6483
_cell_angle_alpha    89.9997
_cell_angle_beta     102.533
_cell_angle_gamma    90.0003

_space_group_name_H-M_alt    "P 1"
_space_group_IT_number       1

loop_
  _space_group_symop_operation_xyz
  'x, y, z'

loop_
  _atom_site_type_symbol
  _atom_site_label
  _atom_site_symmetry_multiplicity
  _atom_site_fract_x
  _atom_site_fract_y
  _atom_site_fract_z
  _atom_site_occupancy
  Ag  Ag1       1.0  0.19670  0.47112  0.49068  1.0000
  Ag  Ag2       1.0  0.30330  0.97112  0.50932  1.0000
  Ag  Ag3       1.0  0.80331  0.52887  0.50932  1.0000
  Ag  Ag4       1.0  0.69669  0.02887  0.49068  1.0000
  Ag  Ag5       1.0  0.51054  0.20939  0.58867  1.0000
  Ag  Ag6       1.0  0.98946  0.70939  0.41133  1.0000
  Ag  Ag7       1.0  0.48946  0.79061  0.41133  1.0000
  Ag  Ag8       1.0  0.01054  0.29061  0.58867  1.0000
  H   H1        1.0  0.75500  0.89228  0.80446  1.0000
  H   H2        1.0  0.74501  0.39227  0.19554  1.0000
  H   H3        1.0  0.24500  0.10772  0.19553  1.0000
  H   H4        1.0  0.25499  0.60773  0.80446  1.0000
  H   H5        1.0  0.87702  0.56939  0.99161  1.0000
  H   H6        1.0  0.62298  0.06940  0.00839  1.0000
  H   H7        1.0  0.12299  0.43062  0.00839  1.0000
  H   H8        1.0  0.37702  0.93061  0.99161  1.0000
  H   H9        1.0  0.91426  0.79430  0.96674  1.0000
  H   H10       1.0  0.58575  0.29431  0.03327  1.0000
  H   H11       1.0  0.08574  0.20570  0.03326  1.0000
  H   H12       1.0  0.41426  0.70570  0.96673  1.0000
  H   H13       1.0  0.52745  0.03549  0.72338  1.0000
  H   H14       1.0  0.97255  0.53548  0.27662  1.0000
  H   H15       1.0  0.47254  0.96451  0.27662  1.0000
  H   H16       1.0  0.02745  0.46451  0.72338  1.0000
  H   H17       1.0  0.71853  0.11933  0.75867  1.0000
  H   H18       1.0  0.78147  0.61933  0.24133  1.0000
  H   H19       1.0  0.28146  0.88067  0.24133  1.0000
  H   H20       1.0  0.21853  0.38067  0.75867  1.0000
  H   H21       1.0  0.52289  0.16896  0.78642  1.0000
  H   H22       1.0  0.97711  0.66896  0.21357  1.0000
  H   H23       1.0  0.47711  0.83104  0.21357  1.0000
  H   H24       1.0  0.02289  0.33104  0.78643  1.0000
  C   C1        1.0  0.74090  0.79396  0.81680  1.0000
  C   C2        1.0  0.75909  0.29395  0.18320  1.0000
  C   C3        1.0  0.25910  0.20605  0.18320  1.0000
  C   C4        1.0  0.24091  0.70605  0.81680  1.0000
  C   C5        1.0  0.81190  0.61347  0.92116  1.0000
  C   C6        1.0  0.68810  0.11347  0.07884  1.0000
  C   C7        1.0  0.18811  0.38653  0.07884  1.0000
  C   C8        1.0  0.31190  0.88653  0.92116  1.0000
  C   C9        1.0  0.70367  0.54478  0.84356  1.0000
  C   C10       1.0  0.79632  0.04478  0.15644  1.0000
  C   C11       1.0  0.29634  0.45522  0.15644  1.0000
  C   C12       1.0  0.20367  0.95522  0.84356  1.0000
  C   C13       1.0  0.61766  0.59559  0.75076  1.0000
  C   C14       1.0  0.88233  0.09559  0.24925  1.0000
  C   C15       1.0  0.38235  0.40441  0.24924  1.0000
  C   C16       1.0  0.11766  0.90441  0.75076  1.0000
  C   C17       1.0  0.83000  0.73954  0.90699  1.0000
  C   C18       1.0  0.66999  0.23954  0.09301  1.0000
  C   C19       1.0  0.17000  0.26047  0.09300  1.0000
  C   C20       1.0  0.33000  0.76046  0.90699  1.0000
  C   C21       1.0  0.51719  0.51545  0.66543  1.0000
  C   C22       1.0  0.98281  0.01544  0.33457  1.0000
  C   C23       1.0  0.48282  0.48455  0.33457  1.0000
  C   C24       1.0  0.01719  0.98456  0.66543  1.0000
  C   C25       1.0  0.63776  0.72303  0.73863  1.0000
  C   C26       1.0  0.86223  0.22303  0.26138  1.0000
  C   C27       1.0  0.36224  0.27697  0.26137  1.0000
  C   C28       1.0  0.13777  0.77697  0.73863  1.0000
  C   C29       1.0  0.55235  0.78366  0.64062  1.0000
  C   C30       1.0  0.94765  0.28366  0.35939  1.0000
  C   C31       1.0  0.44765  0.21633  0.35938  1.0000
  C   C32       1.0  0.05235  0.71634  0.64062  1.0000
  N   N1        1.0  0.67852  0.41409  0.86149  1.0000
  N   N2        1.0  0.82148  0.91409  0.13850  1.0000
  N   N3        1.0  0.32148  0.58591  0.13851  1.0000
  N   N4        1.0  0.17852  0.08591  0.86149  1.0000
  N   N5        1.0  0.57774  0.12406  0.73374  1.0000
  N   N6        1.0  0.92226  0.62405  0.26626  1.0000
  N   N7        1.0  0.42226  0.87594  0.26626  1.0000
  N   N8        1.0  0.07774  0.37594  0.73374  1.0000
  O   O1        1.0  0.34498  0.53917  0.63543  1.0000
  O   O2        1.0  0.15502  0.03917  0.36456  1.0000
  O   O3        1.0  0.65503  0.46083  0.36456  1.0000
  O   O4        1.0  0.84498  0.96083  0.63544  1.0000
  O   O5        1.0  0.81573  0.35346  0.90457  1.0000
  O   O6        1.0  0.68426  0.85346  0.09542  1.0000
  O   O7        1.0  0.18428  0.64655  0.09543  1.0000
  O   O8        1.0  0.31574  0.14655  0.90458  1.0000
  O   O9        1.0  0.61140  0.43436  0.63281  1.0000
  O   O10       1.0  0.88860  0.93436  0.36719  1.0000
  O   O11       1.0  0.38860  0.56563  0.36719  1.0000
  O   O12       1.0  0.11140  0.06564  0.63281  1.0000
  O   O13       1.0  0.51963  0.36960  0.83411  1.0000
  O   O14       1.0  0.98036  0.86961  0.16588  1.0000
  O   O15       1.0  0.48038  0.63041  0.16590  1.0000
  O   O16       1.0  0.01964  0.13040  0.83411  1.0000
  O   O17       1.0  0.57358  0.72809  0.56199  1.0000
  O   O18       1.0  0.92642  0.22808  0.43801  1.0000
  O   O19       1.0  0.42643  0.27191  0.43801  1.0000
  O   O20       1.0  0.07357  0.77191  0.56199  1.0000
  O   O21       1.0  0.46588  0.88377  0.64573  1.0000
  O   O22       1.0  0.03413  0.38376  0.35428  1.0000
  O   O23       1.0  0.53412  0.11623  0.35427  1.0000
  O   O24       1.0  0.96587  0.61624  0.64573  1.0000
