data_image0
_chemical_formula_structural       Cu4H44C74N8O18
_chemical_formula_sum              "Cu4 H44 C74 N8 O18"
_cell_length_a       11.3721
_cell_length_b       12.5508
_cell_length_c       14.9365
_cell_angle_alpha    80.0736
_cell_angle_beta     67.6251
_cell_angle_gamma    63.062

_space_group_name_H-M_alt    "P 1"
_space_group_IT_number       1

loop_
  _space_group_symop_operation_xyz
  'x, y, z'

loop_
  _atom_site_type_symbol
  _atom_site_label
  _atom_site_symmetry_multiplicity
  _atom_site_fract_x
  _atom_site_fract_y
  _atom_site_fract_z
  _atom_site_occupancy
  Cu  Cu1       1.0  0.31616  0.33730  0.01029  1.0000
  Cu  Cu2       1.0  0.66364  0.66268  0.98977  1.0000
  Cu  Cu3       1.0  0.07634  0.83747  0.48968  1.0000
  Cu  Cu4       1.0  0.40352  0.16264  0.51020  1.0000
  H   H1        1.0  0.21169  0.28359  0.21905  1.0000
  H   H2        1.0  0.71419  0.71643  0.78102  1.0000
  H   H3        1.0  0.18068  0.78342  0.28104  1.0000
  H   H4        1.0  0.24525  0.21658  0.71892  1.0000
  H   H5        1.0  0.01596  0.23974  0.33421  1.0000
  H   H6        1.0  0.58992  0.76013  0.66578  1.0000
  H   H7        1.0  0.10002  0.73952  0.16596  1.0000
  H   H8        1.0  0.00567  0.26030  0.83407  1.0000
  H   H9        1.0  0.85098  0.31279  0.10060  1.0000
  H   H10       1.0  0.26419  0.68725  0.89941  1.0000
  H   H11       1.0  0.70130  0.81297  0.39962  1.0000
  H   H12       1.0  0.91392  0.18711  0.60039  1.0000
  H   H13       1.0  0.05614  0.34581  0.99554  1.0000
  H   H14       1.0  0.39734  0.65419  0.00449  1.0000
  H   H15       1.0  0.80153  0.84604  0.50458  1.0000
  H   H16       1.0  0.15212  0.15410  0.49539  1.0000
  H   H17       1.0  0.69312  0.10533  0.50601  1.0000
  H   H18       1.0  0.30467  0.89455  0.49390  1.0000
  H   H19       1.0  0.94914  0.60530  0.99411  1.0000
  H   H20       1.0  0.54856  0.39464  0.00594  1.0000
  H   H21       1.0  0.89614  0.14030  0.39965  1.0000
  H   H22       1.0  0.43636  0.85932  0.60029  1.0000
  H   H23       1.0  0.04565  0.64037  0.10054  1.0000
  H   H24       1.0  0.78651  0.35970  0.89949  1.0000
  H   H25       1.0  0.65731  0.33650  0.20930  1.0000
  H   H26       1.0  0.20259  0.66384  0.79081  1.0000
  H   H27       1.0  0.61643  0.83646  0.29083  1.0000
  H   H28       1.0  0.74370  0.16368  0.70912  1.0000
  H   H29       1.0  0.46524  0.28634  0.32296  1.0000
  H   H30       1.0  0.07415  0.71406  0.67703  1.0000
  H   H31       1.0  0.53813  0.78641  0.17704  1.0000
  H   H32       1.0  0.50156  0.21369  0.82291  1.0000
  H   H33       1.0  0.16169  0.43809  0.32520  1.0000
  H   H34       1.0  0.92495  0.56156  0.67490  1.0000
  H   H35       1.0  0.23673  0.93824  0.17480  1.0000
  H   H36       1.0  0.34994  0.06149  0.82505  1.0000
  H   H37       1.0  0.46315  0.63296  0.31267  1.0000
  H   H38       1.0  0.40865  0.36721  0.68765  1.0000
  H   H39       1.0  0.52590  0.13288  0.18740  1.0000
  H   H40       1.0  0.84633  0.86764  0.81243  1.0000
  H   H41       1.0  0.30455  0.59816  0.47027  1.0000
  H   H42       1.0  0.37302  0.40173  0.52998  1.0000
  H   H43       1.0  0.52480  0.09819  0.02980  1.0000
  H   H44       1.0  0.65297  0.90197  0.97004  1.0000
  C   C1        1.0  0.12914  0.28876  0.19633  1.0000
  C   C2        1.0  0.61413  0.71118  0.80370  1.0000
  C   C3        1.0  0.07536  0.78868  0.30378  1.0000
  C   C4        1.0  0.16792  0.21132  0.69618  1.0000
  C   C5        1.0  0.01804  0.26508  0.26033  1.0000
  C   C6        1.0  0.54344  0.73475  0.73966  1.0000
  C   C7        1.0  0.02820  0.76500  0.23983  1.0000
  C   C8        1.0  0.03314  0.23493  0.76016  1.0000
  C   C9        1.0  0.91398  0.27113  0.22834  1.0000
  C   C10       1.0  0.41342  0.72866  0.77164  1.0000
  C   C11       1.0  0.89207  0.77116  0.27186  1.0000
  C   C12       1.0  0.93519  0.22878  0.72816  1.0000
  C   C13       1.0  0.92796  0.30338  0.13139  1.0000
  C   C14       1.0  0.36262  0.69655  0.86861  1.0000
  C   C15       1.0  0.80907  0.80353  0.36880  1.0000
  C   C16       1.0  0.98146  0.19652  0.63121  1.0000
  C   C17       1.0  0.04349  0.32380  0.07115  1.0000
  C   C18       1.0  0.43832  0.67615  0.92887  1.0000
  C   C19       1.0  0.86445  0.82396  0.42899  1.0000
  C   C20       1.0  0.11743  0.17612  0.57099  1.0000
  C   C21       1.0  0.68849  0.15505  0.43945  1.0000
  C   C22       1.0  0.28310  0.84487  0.56046  1.0000
  C   C23       1.0  0.87788  0.65511  0.06062  1.0000
  C   C24       1.0  0.59360  0.34493  0.93936  1.0000
  C   C25       1.0  0.80278  0.17721  0.37904  1.0000
  C   C26       1.0  0.35919  0.82253  0.62088  1.0000
  C   C27       1.0  0.93167  0.67734  0.12108  1.0000
  C   C28       1.0  0.73004  0.32280  0.87889  1.0000
  C   C29       1.0  0.79580  0.24381  0.29394  1.0000
  C   C30       1.0  0.33344  0.75612  0.70607  1.0000
  C   C31       1.0  0.83956  0.74386  0.20623  1.0000
  C   C32       1.0  0.78964  0.25624  0.79375  1.0000
  C   C33       1.0  0.67159  0.28344  0.27358  1.0000
  C   C34       1.0  0.22824  0.71677  0.72648  1.0000
  C   C35       1.0  0.69501  0.78345  0.22653  1.0000
  C   C36       1.0  0.70497  0.21667  0.77343  1.0000
  C   C37       1.0  0.56227  0.25697  0.33722  1.0000
  C   C38       1.0  0.15618  0.74329  0.66278  1.0000
  C   C39       1.0  0.64941  0.75706  0.16280  1.0000
  C   C40       1.0  0.56924  0.24306  0.83714  1.0000
  C   C41       1.0  0.23056  0.47855  0.32120  1.0000
  C   C42       1.0  0.03024  0.52124  0.67894  1.0000
  C   C43       1.0  0.30171  0.97859  0.17879  1.0000
  C   C44       1.0  0.45928  0.02125  0.82102  1.0000
  C   C45       1.0  0.32144  0.49623  0.23234  1.0000
  C   C46       1.0  0.04989  0.50371  0.76781  1.0000
  C   C47       1.0  0.30372  0.99628  0.26764  1.0000
  C   C48       1.0  0.56780  0.00371  0.73217  1.0000
  C   C49       1.0  0.40672  0.55157  0.22926  1.0000
  C   C50       1.0  0.18739  0.44851  0.77095  1.0000
  C   C51       1.0  0.38602  0.05152  0.27076  1.0000
  C   C52       1.0  0.70841  0.94869  0.72909  1.0000
  C   C53       1.0  0.39968  0.58773  0.31526  1.0000
  C   C54       1.0  0.30255  0.41229  0.68500  1.0000
  C   C55       1.0  0.46493  0.08773  0.18481  1.0000
  C   C56       1.0  0.73760  0.91264  0.81505  1.0000
  C   C57       1.0  0.31007  0.56819  0.40397  1.0000
  C   C58       1.0  0.28220  0.43165  0.59625  1.0000
  C   C59       1.0  0.46399  0.06822  0.09608  1.0000
  C   C60       1.0  0.62847  0.93194  0.90377  1.0000
  C   C61       1.0  0.22406  0.51402  0.40774  1.0000
  C   C62       1.0  0.14579  0.48571  0.59245  1.0000
  C   C63       1.0  0.38179  0.01402  0.09227  1.0000
  C   C64       1.0  0.48830  0.98584  0.90755  1.0000
  C   C65       1.0  0.11833  0.49985  0.50008  1.0000
  C   C66       1.0  0.36849  0.99982  0.99990  1.0000
  C   C67       1.0  0.31776  0.46787  0.13975  1.0000
  C   C68       1.0  0.92529  0.53204  0.86037  1.0000
  C   C69       1.0  0.20739  0.96809  0.36021  1.0000
  C   C70       1.0  0.53575  0.03194  0.63962  1.0000
  C   C71       1.0  0.51268  0.56380  0.13492  1.0000
  C   C72       1.0  0.21129  0.43618  0.86527  1.0000
  C   C73       1.0  0.39763  0.06369  0.36511  1.0000
  C   C74       1.0  0.82657  0.93644  0.63478  1.0000
  N   N1        1.0  0.14348  0.31670  0.10243  1.0000
  N   N2        1.0  0.56249  0.68325  0.89761  1.0000
  N   N3        1.0  0.99577  0.81677  0.39766  1.0000
  N   N4        1.0  0.21026  0.18331  0.60229  1.0000
  N   N5        1.0  0.56932  0.19410  0.41964  1.0000
  N   N6        1.0  0.18301  0.80602  0.58028  1.0000
  N   N7        1.0  0.73892  0.69417  0.08037  1.0000
  N   N8        1.0  0.51346  0.30587  0.91962  1.0000
  O   O1        1.0  0.35536  0.35664  0.12498  1.0000
  O   O2        1.0  0.83679  0.64325  0.87504  1.0000
  O   O3        1.0  0.23014  0.85686  0.37501  1.0000
  O   O4        1.0  0.46215  0.14317  0.62484  1.0000
  O   O5        1.0  0.27775  0.55163  0.08387  1.0000
  O   O6        1.0  0.91324  0.44834  0.91637  1.0000
  O   O7        1.0  0.11154  0.05186  0.41612  1.0000
  O   O8        1.0  0.57938  0.94816  0.58379  1.0000
  O   O9        1.0  0.61079  0.47106  0.09056  1.0000
  O   O10       1.0  0.17242  0.52884  0.90968  1.0000
  O   O11       1.0  0.45149  0.97100  0.40946  1.0000
  O   O12       1.0  0.83217  0.02913  0.59046  1.0000
  O   O13       1.0  0.49580  0.67151  0.10648  1.0000
  O   O14       1.0  0.27369  0.32842  0.89364  1.0000
  O   O15       1.0  0.35223  0.17143  0.39356  1.0000
  O   O16       1.0  0.91723  0.82869  0.60632  1.0000
  O   O17       1.0  0.00956  0.49995  0.50006  1.0000
  O   O18       1.0  0.25982  0.99965  0.99990  1.0000
