data_image0
_chemical_formula_structural       Hg6H48C28S4N20Cl8
_chemical_formula_sum              "Hg6 H48 C28 S4 N20 Cl8"
_cell_length_a       7.62
_cell_length_b       8.87738
_cell_length_c       18.4157
_cell_angle_alpha    90.0002
_cell_angle_beta     90.0002
_cell_angle_gamma    102.033

_space_group_name_H-M_alt    "P 1"
_space_group_IT_number       1

loop_
  _space_group_symop_operation_xyz
  'x, y, z'

loop_
  _atom_site_type_symbol
  _atom_site_label
  _atom_site_symmetry_multiplicity
  _atom_site_fract_x
  _atom_site_fract_y
  _atom_site_fract_z
  _atom_site_occupancy
  Hg  Hg1       1.0  0.50000  0.49999  0.50000  1.0000
  Hg  Hg2       1.0  0.00001  0.00000  1.00000  1.0000
  Hg  Hg3       1.0  0.62954  0.04034  0.24441  1.0000
  Hg  Hg4       1.0  0.87046  0.45966  0.74441  1.0000
  Hg  Hg5       1.0  0.37045  0.95966  0.75559  1.0000
  Hg  Hg6       1.0  0.12955  0.54034  0.25559  1.0000
  H   H1        1.0  0.55219  0.71398  0.33906  1.0000
  H   H2        1.0  0.94781  0.78601  0.83906  1.0000
  H   H3        1.0  0.44781  0.28602  0.66094  1.0000
  H   H4        1.0  0.05219  0.21398  0.16094  1.0000
  H   H5        1.0  0.58034  0.85813  0.40816  1.0000
  H   H6        1.0  0.91967  0.64187  0.90816  1.0000
  H   H7        1.0  0.41966  0.14187  0.59184  1.0000
  H   H8        1.0  0.08033  0.35813  0.09184  1.0000
  H   H9        1.0  0.90390  0.52944  0.40903  1.0000
  H   H10       1.0  0.59610  0.97056  0.90903  1.0000
  H   H11       1.0  0.09610  0.47056  0.59097  1.0000
  H   H12       1.0  0.40390  0.02944  0.09097  1.0000
  H   H13       1.0  0.73840  0.52358  0.34011  1.0000
  H   H14       1.0  0.76160  0.97641  0.84011  1.0000
  H   H15       1.0  0.26160  0.47642  0.65989  1.0000
  H   H16       1.0  0.23840  0.02359  0.15989  1.0000
  H   H17       1.0  0.93855  0.72405  0.50262  1.0000
  H   H18       1.0  0.56146  0.77595  0.00262  1.0000
  H   H19       1.0  0.06146  0.27595  0.49738  1.0000
  H   H20       1.0  0.43854  0.22405  0.99738  1.0000
  H   H21       1.0  0.80310  0.86590  0.50148  1.0000
  H   H22       1.0  0.69690  0.63411  0.00148  1.0000
  H   H23       1.0  0.19690  0.13410  0.49852  1.0000
  H   H24       1.0  0.30310  0.36589  0.99852  1.0000
  H   H25       1.0  0.78193  0.72308  0.24674  1.0000
  H   H26       1.0  0.71807  0.77692  0.74674  1.0000
  H   H27       1.0  0.21807  0.27692  0.75327  1.0000
  H   H28       1.0  0.28193  0.22309  0.25326  1.0000
  H   H29       1.0  0.97834  0.87238  0.24857  1.0000
  H   H30       1.0  0.52166  0.62761  0.74857  1.0000
  H   H31       1.0  0.02165  0.12761  0.75144  1.0000
  H   H32       1.0  0.47834  0.37239  0.25143  1.0000
  H   H33       1.0  0.84637  0.06127  0.41046  1.0000
  H   H34       1.0  0.65363  0.43873  0.91047  1.0000
  H   H35       1.0  0.15363  0.93873  0.58954  1.0000
  H   H36       1.0  0.34637  0.56127  0.08953  1.0000
  H   H37       1.0  0.01597  0.06846  0.34303  1.0000
  H   H38       1.0  0.48403  0.43154  0.84303  1.0000
  H   H39       1.0  0.98403  0.93154  0.65697  1.0000
  H   H40       1.0  0.51597  0.56846  0.15697  1.0000
  H   H41       1.0  0.19964  0.87998  0.34300  1.0000
  H   H42       1.0  0.30036  0.62003  0.84300  1.0000
  H   H43       1.0  0.80036  0.12002  0.65700  1.0000
  H   H44       1.0  0.69964  0.37997  0.15700  1.0000
  H   H45       1.0  0.16698  0.73169  0.41018  1.0000
  H   H46       1.0  0.33302  0.76832  0.91018  1.0000
  H   H47       1.0  0.83302  0.26831  0.58981  1.0000
  H   H48       1.0  0.66698  0.23169  0.08981  1.0000
  C   C1        1.0  0.65033  0.78817  0.37408  1.0000
  C   C2        1.0  0.84968  0.71184  0.87408  1.0000
  C   C3        1.0  0.34967  0.21183  0.62592  1.0000
  C   C4        1.0  0.15033  0.28816  0.12592  1.0000
  C   C5        1.0  0.83471  0.60007  0.37492  1.0000
  C   C6        1.0  0.66530  0.89993  0.87492  1.0000
  C   C7        1.0  0.16529  0.39993  0.62508  1.0000
  C   C8        1.0  0.33470  0.10007  0.12508  1.0000
  C   C9        1.0  0.87281  0.79549  0.46744  1.0000
  C   C10       1.0  0.62719  0.70452  0.96744  1.0000
  C   C11       1.0  0.12719  0.20451  0.53256  1.0000
  C   C12       1.0  0.37281  0.29548  0.03256  1.0000
  C   C13       1.0  0.87852  0.79694  0.28238  1.0000
  C   C14       1.0  0.62148  0.70306  0.78239  1.0000
  C   C15       1.0  0.12148  0.20306  0.71762  1.0000
  C   C16       1.0  0.37852  0.29695  0.21762  1.0000
  C   C17       1.0  0.91745  0.99144  0.37671  1.0000
  C   C18       1.0  0.58256  0.50856  0.87671  1.0000
  C   C19       1.0  0.08256  0.00856  0.62329  1.0000
  C   C20       1.0  0.41745  0.49144  0.12329  1.0000
  C   C21       1.0  0.09969  0.80460  0.37680  1.0000
  C   C22       1.0  0.40031  0.69541  0.87680  1.0000
  C   C23       1.0  0.90031  0.19541  0.62320  1.0000
  C   C24       1.0  0.59969  0.30459  0.12320  1.0000
  C   C25       1.0  0.52771  0.17498  0.40298  1.0000
  C   C26       1.0  0.97229  0.32501  0.90298  1.0000
  C   C27       1.0  0.47227  0.82500  0.59702  1.0000
  C   C28       1.0  0.02771  0.67500  0.09702  1.0000
  S   S1        1.0  0.63812  0.26125  0.47297  1.0000
  S   S2        1.0  0.86189  0.23874  0.97297  1.0000
  S   S3        1.0  0.36188  0.73874  0.52702  1.0000
  S   S4        1.0  0.13810  0.76125  0.02702  1.0000
  N   N1        1.0  0.78353  0.89221  0.32795  1.0000
  N   N2        1.0  0.71647  0.60779  0.82795  1.0000
  N   N3        1.0  0.21647  0.10779  0.67205  1.0000
  N   N4        1.0  0.28353  0.39221  0.17205  1.0000
  N   N5        1.0  0.74002  0.69264  0.42086  1.0000
  N   N6        1.0  0.75998  0.80736  0.92086  1.0000
  N   N7        1.0  0.25997  0.30736  0.57914  1.0000
  N   N8        1.0  0.24002  0.19264  0.07914  1.0000
  N   N9        1.0  0.96973  0.70098  0.32862  1.0000
  N   N10       1.0  0.53027  0.79903  0.82862  1.0000
  N   N11       1.0  0.03027  0.29902  0.67138  1.0000
  N   N12       1.0  0.46973  0.20098  0.17138  1.0000
  N   N13       1.0  0.00698  0.89694  0.42278  1.0000
  N   N14       1.0  0.49302  0.60306  0.92278  1.0000
  N   N15       1.0  0.99302  0.10305  0.57722  1.0000
  N   N16       1.0  0.50698  0.39694  0.07722  1.0000
  N   N17       1.0  0.45317  0.10573  0.35297  1.0000
  N   N18       1.0  0.04683  0.39427  0.85297  1.0000
  N   N19       1.0  0.54683  0.89427  0.64703  1.0000
  N   N20       1.0  0.95318  0.60573  0.14703  1.0000
  Cl  Cl1       1.0  0.27382  0.46150  0.38128  1.0000
  Cl  Cl2       1.0  0.22618  0.03850  0.88128  1.0000
  Cl  Cl3       1.0  0.72618  0.53850  0.61872  1.0000
  Cl  Cl4       1.0  0.77382  0.96150  0.11872  1.0000
  Cl  Cl5       1.0  0.87260  0.29139  0.27553  1.0000
  Cl  Cl6       1.0  0.62739  0.20861  0.77554  1.0000
  Cl  Cl7       1.0  0.12740  0.70861  0.72447  1.0000
  Cl  Cl8       1.0  0.37261  0.79139  0.22446  1.0000
