data_image0
_chemical_formula_structural       Zn2H32C16S4N12O4
_chemical_formula_sum              "Zn2 H32 C16 S4 N12 O4"
_cell_length_a       7.69369
_cell_length_b       7.69372
_cell_length_c       12.4192
_cell_angle_alpha    102.883
_cell_angle_beta     102.883
_cell_angle_gamma    101.261

_space_group_name_H-M_alt    "P 1"
_space_group_IT_number       1

loop_
  _space_group_symop_operation_xyz
  'x, y, z'

loop_
  _atom_site_type_symbol
  _atom_site_label
  _atom_site_symmetry_multiplicity
  _atom_site_fract_x
  _atom_site_fract_y
  _atom_site_fract_z
  _atom_site_occupancy
  Zn  Zn1       1.0  0.50000  0.50000  0.50000  1.0000
  Zn  Zn2       1.0  0.50000  0.50000  1.00000  1.0000
  H   H1        1.0  0.59409  0.59991  0.28183  1.0000
  H   H2        1.0  0.40009  0.40590  0.21817  1.0000
  H   H3        1.0  0.40590  0.40009  0.71817  1.0000
  H   H4        1.0  0.59991  0.59410  0.78183  1.0000
  H   H5        1.0  0.89608  0.11535  0.17964  1.0000
  H   H6        1.0  0.88465  0.10392  0.32036  1.0000
  H   H7        1.0  0.10392  0.88465  0.82036  1.0000
  H   H8        1.0  0.11535  0.89608  0.67965  1.0000
  H   H9        1.0  0.27169  0.65828  0.37969  1.0000
  H   H10       1.0  0.34172  0.72831  0.12032  1.0000
  H   H11       1.0  0.72831  0.34171  0.62031  1.0000
  H   H12       1.0  0.65829  0.27169  0.87969  1.0000
  H   H13       1.0  0.13902  0.45683  0.34589  1.0000
  H   H14       1.0  0.54317  0.86098  0.15411  1.0000
  H   H15       1.0  0.86098  0.54316  0.65411  1.0000
  H   H16       1.0  0.45683  0.13902  0.84589  1.0000
  H   H17       1.0  0.86084  0.36518  0.45442  1.0000
  H   H18       1.0  0.63482  0.13916  0.04558  1.0000
  H   H19       1.0  0.13916  0.63482  0.54558  1.0000
  H   H20       1.0  0.36519  0.86084  0.95442  1.0000
  H   H21       1.0  0.85918  0.57890  0.41836  1.0000
  H   H22       1.0  0.42110  0.14082  0.08163  1.0000
  H   H23       1.0  0.14082  0.42110  0.58164  1.0000
  H   H24       1.0  0.57890  0.85917  0.91836  1.0000
  H   H25       1.0  0.89213  0.39833  0.12694  1.0000
  H   H26       1.0  0.60167  0.10787  0.37305  1.0000
  H   H27       1.0  0.10787  0.60167  0.87306  1.0000
  H   H28       1.0  0.39832  0.89213  0.62694  1.0000
  H   H29       1.0  0.87840  0.59706  0.22857  1.0000
  H   H30       1.0  0.40295  0.12159  0.27143  1.0000
  H   H31       1.0  0.12160  0.40294  0.77143  1.0000
  H   H32       1.0  0.59705  0.87840  0.72857  1.0000
  C   C1        1.0  0.73990  0.90629  0.54114  1.0000
  C   C2        1.0  0.09371  0.26010  0.95886  1.0000
  C   C3        1.0  0.26009  0.09372  0.45886  1.0000
  C   C4        1.0  0.90630  0.73991  0.04114  1.0000
  C   C5        1.0  0.55074  0.44926  0.25000  1.0000
  C   C6        1.0  0.44926  0.55074  0.75000  1.0000
  C   C7        1.0  0.81560  0.42779  0.38558  1.0000
  C   C8        1.0  0.57221  0.18440  0.11442  1.0000
  C   C9        1.0  0.18440  0.57221  0.61442  1.0000
  C   C10       1.0  0.42779  0.81560  0.88558  1.0000
  C   C11       1.0  0.83323  0.44587  0.19745  1.0000
  C   C12       1.0  0.55413  0.16677  0.30254  1.0000
  C   C13       1.0  0.16677  0.55413  0.80255  1.0000
  C   C14       1.0  0.44587  0.83323  0.69746  1.0000
  C   C15       1.0  0.83676  0.16324  0.25000  1.0000
  C   C16       1.0  0.16324  0.83676  0.75001  1.0000
  S   S1        1.0  0.87378  0.11282  0.59153  1.0000
  S   S2        1.0  0.88718  0.12622  0.90847  1.0000
  S   S3        1.0  0.12621  0.88718  0.40847  1.0000
  S   S4        1.0  0.11281  0.87378  0.09153  1.0000
  N   N1        1.0  0.64389  0.75330  0.50422  1.0000
  N   N2        1.0  0.24669  0.35611  0.99578  1.0000
  N   N3        1.0  0.35609  0.24668  0.49577  1.0000
  N   N4        1.0  0.75330  0.64389  0.00422  1.0000
  N   N5        1.0  0.89914  0.36694  0.29243  1.0000
  N   N6        1.0  0.63307  0.10086  0.20757  1.0000
  N   N7        1.0  0.10086  0.63307  0.70757  1.0000
  N   N8        1.0  0.36694  0.89913  0.79243  1.0000
  N   N9        1.0  0.61178  0.37061  0.34604  1.0000
  N   N10       1.0  0.62939  0.38822  0.15395  1.0000
  N   N11       1.0  0.38822  0.62939  0.65396  1.0000
  N   N12       1.0  0.37061  0.61178  0.84605  1.0000
  O   O1        1.0  0.27334  0.52830  0.37241  1.0000
  O   O2        1.0  0.47170  0.72667  0.12759  1.0000
  O   O3        1.0  0.72666  0.47169  0.62759  1.0000
  O   O4        1.0  0.52830  0.27333  0.87241  1.0000
