data_image0
_chemical_formula_structural       Zn4H28C36S4N8O12F4
_chemical_formula_sum              "Zn4 H28 C36 S4 N8 O12 F4"
_cell_length_a       6.10213
_cell_length_b       8.08837
_cell_length_c       23.226
_cell_angle_alpha    87.1611
_cell_angle_beta     82.4658
_cell_angle_gamma    67.8684

_space_group_name_H-M_alt    "P 1"
_space_group_IT_number       1

loop_
  _space_group_symop_operation_xyz
  'x, y, z'

loop_
  _atom_site_type_symbol
  _atom_site_label
  _atom_site_symmetry_multiplicity
  _atom_site_fract_x
  _atom_site_fract_y
  _atom_site_fract_z
  _atom_site_occupancy
  Zn  Zn1       1.0  0.48400  0.62629  0.75098  1.0000
  Zn  Zn2       1.0  0.86368  0.37321  0.24901  1.0000
  Zn  Zn3       1.0  0.98456  0.12616  0.74923  1.0000
  Zn  Zn4       1.0  0.86105  0.87363  0.25066  1.0000
  H   H1        1.0  0.70481  0.72372  0.15338  1.0000
  H   H2        1.0  0.58110  0.27577  0.84641  1.0000
  H   H3        1.0  0.60748  0.22592  0.34698  1.0000
  H   H4        1.0  0.17654  0.77509  0.65323  1.0000
  H   H5        1.0  0.89411  0.62106  0.93181  1.0000
  H   H6        1.0  0.44902  0.37795  0.06811  1.0000
  H   H7        1.0  0.57497  0.12119  0.56850  1.0000
  H   H8        1.0  0.26222  0.87990  0.43185  1.0000
  H   H9        1.0  0.86898  0.58580  0.82759  1.0000
  H   H10       1.0  0.28556  0.41252  0.17236  1.0000
  H   H11       1.0  0.44544  0.08553  0.67267  1.0000
  H   H12       1.0  0.20306  0.91480  0.32754  1.0000
  H   H13       1.0  0.13117  0.79265  0.85264  1.0000
  H   H14       1.0  0.77772  0.20727  0.14739  1.0000
  H   H15       1.0  0.73282  0.29231  0.64741  1.0000
  H   H16       1.0  0.67189  0.70784  0.35231  1.0000
  H   H17       1.0  0.12355  0.84262  0.95886  1.0000
  H   H18       1.0  0.92532  0.15763  0.04115  1.0000
  H   H19       1.0  0.83174  0.34249  0.54123  1.0000
  H   H20       1.0  0.71324  0.65810  0.45857  1.0000
  H   H21       1.0  0.06999  0.59251  0.73750  1.0000
  H   H22       1.0  0.40240  0.40728  0.26249  1.0000
  H   H23       1.0  0.55732  0.09214  0.76250  1.0000
  H   H24       1.0  0.41298  0.90767  0.23756  1.0000
  H   H25       1.0  0.24177  0.40796  0.76595  1.0000
  H   H26       1.0  0.41822  0.59179  0.23399  1.0000
  H   H27       1.0  0.75752  0.90735  0.73409  1.0000
  H   H28       1.0  0.40070  0.09223  0.26606  1.0000
  C   C1        1.0  0.19174  0.81719  0.16173  1.0000
  C   C2        1.0  0.16954  0.18270  0.83829  1.0000
  C   C3        1.0  0.10312  0.31765  0.33844  1.0000
  C   C4        1.0  0.75651  0.68249  0.66158  1.0000
  C   C5        1.0  0.37660  0.77915  0.11056  1.0000
  C   C6        1.0  0.26565  0.22066  0.88942  1.0000
  C   C7        1.0  0.23671  0.27992  0.38964  1.0000
  C   C8        1.0  0.90308  0.72073  0.61039  1.0000
  C   C9        1.0  0.61603  0.73831  0.11468  1.0000
  C   C10       1.0  0.46852  0.26134  0.88518  1.0000
  C   C11       1.0  0.48001  0.23976  0.38562  1.0000
  C   C12       1.0  0.10188  0.76129  0.61451  1.0000
  C   C13       1.0  0.51001  0.74870  0.01679  1.0000
  C   C14       1.0  0.27567  0.25134  0.98315  1.0000
  C   C15       1.0  0.27611  0.24890  0.48344  1.0000
  C   C16       1.0  0.00552  0.75196  0.51663  1.0000
  C   C17       1.0  0.50847  0.73394  0.95448  1.0000
  C   C18       1.0  0.19769  0.26593  0.04547  1.0000
  C   C19       1.0  0.21209  0.23384  0.54572  1.0000
  C   C20       1.0  0.98930  0.76692  0.45432  1.0000
  C   C21       1.0  0.72004  0.66378  0.91631  1.0000
  C   C22       1.0  0.30191  0.33547  0.08362  1.0000
  C   C23       1.0  0.38544  0.16371  0.58393  1.0000
  C   C24       1.0  0.13116  0.83703  0.41625  1.0000
  C   C25       1.0  0.70790  0.64152  0.85813  1.0000
  C   C26       1.0  0.20998  0.35732  0.14184  1.0000
  C   C27       1.0  0.31506  0.14129  0.64209  1.0000
  C   C28       1.0  0.09751  0.85907  0.35803  1.0000
  C   C29       1.0  0.29508  0.75569  0.87250  1.0000
  C   C30       1.0  0.92465  0.24405  0.12753  1.0000
  C   C31       1.0  0.91668  0.25535  0.62763  1.0000
  C   C32       1.0  0.79870  0.74488  0.37221  1.0000
  C   C33       1.0  0.29162  0.78303  0.93118  1.0000
  C   C34       1.0  0.00656  0.21697  0.06883  1.0000
  C   C35       1.0  0.97196  0.28271  0.56897  1.0000
  C   C36       1.0  0.82181  0.71775  0.43092  1.0000
  S   S1        1.0  0.77248  0.71025  0.04750  1.0000
  S   S2        1.0  0.53041  0.28950  0.95230  1.0000
  S   S3        1.0  0.56907  0.21154  0.45285  1.0000
  S   S4        1.0  0.23018  0.78961  0.54733  1.0000
  N   N1        1.0  0.31922  0.78471  0.05517  1.0000
  N   N2        1.0  0.15870  0.21546  0.94484  1.0000
  N   N3        1.0  0.12388  0.28475  0.44500  1.0000
  N   N4        1.0  0.85064  0.71595  0.55501  1.0000
  N   N5        1.0  0.49902  0.68518  0.83647  1.0000
  N   N6        1.0  0.02292  0.31398  0.16355  1.0000
  N   N7        1.0  0.08456  0.18493  0.66369  1.0000
  N   N8        1.0  0.93266  0.81521  0.33627  1.0000
  O   O1        1.0  0.97390  0.86875  0.15560  1.0000
  O   O2        1.0  0.99685  0.13142  0.84444  1.0000
  O   O3        1.0  0.87927  0.36868  0.34446  1.0000
  O   O4        1.0  0.58980  0.63127  0.65555  1.0000
  O   O5        1.0  0.26159  0.79620  0.21290  1.0000
  O   O6        1.0  0.26948  0.20350  0.78709  1.0000
  O   O7        1.0  0.22427  0.29693  0.28728  1.0000
  O   O8        1.0  0.80605  0.70295  0.71275  1.0000
  O   O9        1.0  0.21097  0.53686  0.75897  1.0000
  O   O10       1.0  0.50921  0.46294  0.24103  1.0000
  O   O11       1.0  0.72029  0.03597  0.74134  1.0000
  O   O12       1.0  0.49878  0.96352  0.25884  1.0000
  F   F1        1.0  0.72146  0.37434  0.76195  1.0000
  F   F2        1.0  0.86015  0.62514  0.23777  1.0000
  F   F3        1.0  0.23420  0.87471  0.73830  1.0000
  F   F4        1.0  0.84897  0.12500  0.26172  1.0000
