data_image0
_chemical_formula_structural       Cd2H24C32N12
_chemical_formula_sum              "Cd2 H24 C32 N12"
_cell_length_a       8.3585
_cell_length_b       9.42724
_cell_length_c       10.5946
_cell_angle_alpha    77.1691
_cell_angle_beta     84.428
_cell_angle_gamma    71.9359

_space_group_name_H-M_alt    "P 1"
_space_group_IT_number       1

loop_
  _space_group_symop_operation_xyz
  'x, y, z'

loop_
  _atom_site_type_symbol
  _atom_site_label
  _atom_site_symmetry_multiplicity
  _atom_site_fract_x
  _atom_site_fract_y
  _atom_site_fract_z
  _atom_site_occupancy
  Cd  Cd1       1.0  0.73927  0.50351  0.56689  1.0000
  Cd  Cd2       1.0  0.26073  0.49649  0.43311  1.0000
  H   H1        1.0  0.43957  0.46270  0.80793  1.0000
  H   H2        1.0  0.56044  0.53728  0.19207  1.0000
  H   H3        1.0  0.41320  0.31123  0.03227  1.0000
  H   H4        1.0  0.58681  0.68876  0.96773  1.0000
  H   H5        1.0  0.67886  0.13321  0.13934  1.0000
  H   H6        1.0  0.32115  0.86678  0.86067  1.0000
  H   H7        1.0  0.95477  0.12198  0.02188  1.0000
  H   H8        1.0  0.04524  0.87803  0.97813  1.0000
  H   H9        1.0  0.20993  0.17146  0.92447  1.0000
  H   H10       1.0  0.79008  0.82854  0.07552  1.0000
  H   H11       1.0  0.39575  0.27584  0.71457  1.0000
  H   H12       1.0  0.60425  0.72416  0.28542  1.0000
  H   H13       1.0  0.98684  0.64020  0.70922  1.0000
  H   H14       1.0  0.01316  0.35980  0.29077  1.0000
  H   H15       1.0  0.97663  0.86973  0.79442  1.0000
  H   H16       1.0  0.02337  0.13027  0.20559  1.0000
  H   H17       1.0  0.69697  0.07415  0.79956  1.0000
  H   H18       1.0  0.30303  0.92586  0.20044  1.0000
  H   H19       1.0  0.44685  0.04103  0.71200  1.0000
  H   H20       1.0  0.55315  0.95897  0.28800  1.0000
  H   H21       1.0  0.22171  0.00920  0.61394  1.0000
  H   H22       1.0  0.77828  0.99080  0.38607  1.0000
  H   H23       1.0  0.07444  0.84827  0.49798  1.0000
  H   H24       1.0  0.92555  0.15173  0.50203  1.0000
  C   C1        1.0  0.55039  0.38492  0.85940  1.0000
  C   C2        1.0  0.44961  0.61507  0.14060  1.0000
  C   C3        1.0  0.53601  0.30035  0.98362  1.0000
  C   C4        1.0  0.46399  0.69964  0.01638  1.0000
  C   C5        1.0  0.68350  0.20261  0.04291  1.0000
  C   C6        1.0  0.31650  0.79739  0.95710  1.0000
  C   C7        1.0  0.83748  0.19595  0.97790  1.0000
  C   C8        1.0  0.16252  0.80406  0.02210  1.0000
  C   C9        1.0  0.84226  0.28696  0.85394  1.0000
  C   C10       1.0  0.15775  0.71305  0.14607  1.0000
  C   C11       1.0  0.00045  0.29261  0.78494  1.0000
  C   C12       1.0  0.99955  0.70739  0.21506  1.0000
  C   C13       1.0  0.16638  0.23660  0.82966  1.0000
  C   C14       1.0  0.83362  0.76340  0.17034  1.0000
  C   C15       1.0  0.26176  0.28940  0.72472  1.0000
  C   C16       1.0  0.73824  0.71060  0.27527  1.0000
  C   C17       1.0  0.86942  0.73194  0.71245  1.0000
  C   C18       1.0  0.13058  0.26806  0.28754  1.0000
  C   C19       1.0  0.86241  0.85921  0.76149  1.0000
  C   C20       1.0  0.13759  0.14079  0.23851  1.0000
  C   C21       1.0  0.70797  0.97218  0.76276  1.0000
  C   C22       1.0  0.29203  0.02783  0.23723  1.0000
  C   C23       1.0  0.56853  0.95438  0.71401  1.0000
  C   C24       1.0  0.43147  0.04562  0.28599  1.0000
  C   C25       1.0  0.58567  0.82440  0.66393  1.0000
  C   C26       1.0  0.41433  0.17561  0.33607  1.0000
  C   C27       1.0  0.44449  0.80188  0.60847  1.0000
  C   C28       1.0  0.55551  0.19812  0.39153  1.0000
  C   C29       1.0  0.27758  0.89736  0.59046  1.0000
  C   C30       1.0  0.72242  0.10263  0.40955  1.0000
  C   C31       1.0  0.20205  0.81758  0.53093  1.0000
  C   C32       1.0  0.79794  0.18242  0.46907  1.0000
  N   N1        1.0  0.69815  0.37754  0.79551  1.0000
  N   N2        1.0  0.30185  0.62246  0.20449  1.0000
  N   N3        1.0  0.00106  0.37159  0.66084  1.0000
  N   N4        1.0  0.99894  0.62841  0.33917  1.0000
  N   N5        1.0  0.16075  0.36975  0.62444  1.0000
  N   N6        1.0  0.83925  0.63025  0.37556  1.0000
  N   N7        1.0  0.73546  0.71487  0.66495  1.0000
  N   N8        1.0  0.26455  0.28514  0.33505  1.0000
  N   N9        1.0  0.46380  0.67352  0.56266  1.0000
  N   N10       1.0  0.53620  0.32648  0.43734  1.0000
  N   N11       1.0  0.31540  0.68360  0.51507  1.0000
  N   N12       1.0  0.68460  0.31640  0.48493  1.0000
