data_image0
_chemical_formula_structural       Cd4H36C68N8O16
_chemical_formula_sum              "Cd4 H36 C68 N8 O16"
_cell_length_a       7.60825
_cell_length_b       9.84051
_cell_length_c       20.0507
_cell_angle_alpha    90.0001
_cell_angle_beta     90.0001
_cell_angle_gamma    112.403

_space_group_name_H-M_alt    "P 1"
_space_group_IT_number       1

loop_
  _space_group_symop_operation_xyz
  'x, y, z'

loop_
  _atom_site_type_symbol
  _atom_site_label
  _atom_site_symmetry_multiplicity
  _atom_site_fract_x
  _atom_site_fract_y
  _atom_site_fract_z
  _atom_site_occupancy
  Cd  Cd1       1.0  0.76335  0.02973  0.93137  1.0000
  Cd  Cd2       1.0  0.23665  0.47027  0.43137  1.0000
  Cd  Cd3       1.0  0.23665  0.97027  0.06863  1.0000
  Cd  Cd4       1.0  0.76335  0.52972  0.56863  1.0000
  H   H1        1.0  0.07520  0.86681  0.91334  1.0000
  H   H2        1.0  0.92480  0.63319  0.41334  1.0000
  H   H3        1.0  0.92480  0.13320  0.08666  1.0000
  H   H4        1.0  0.07521  0.36680  0.58666  1.0000
  H   H5        1.0  0.23677  0.78519  0.82451  1.0000
  H   H6        1.0  0.76323  0.71482  0.32450  1.0000
  H   H7        1.0  0.76324  0.21482  0.17550  1.0000
  H   H8        1.0  0.23677  0.28518  0.67550  1.0000
  H   H9        1.0  0.15658  0.81447  0.70298  1.0000
  H   H10       1.0  0.84343  0.68554  0.20298  1.0000
  H   H11       1.0  0.84342  0.18553  0.29702  1.0000
  H   H12       1.0  0.15657  0.31446  0.79702  1.0000
  H   H13       1.0  0.96628  0.89415  0.62228  1.0000
  H   H14       1.0  0.03373  0.60586  0.12228  1.0000
  H   H15       1.0  0.03372  0.10584  0.37772  1.0000
  H   H16       1.0  0.96628  0.39415  0.87773  1.0000
  H   H17       1.0  0.73503  0.01049  0.60069  1.0000
  H   H18       1.0  0.26496  0.48951  0.10069  1.0000
  H   H19       1.0  0.26496  0.98951  0.39931  1.0000
  H   H20       1.0  0.73504  0.51049  0.89931  1.0000
  H   H21       1.0  0.51722  0.12992  0.64491  1.0000
  H   H22       1.0  0.48277  0.37008  0.14491  1.0000
  H   H23       1.0  0.48278  0.87008  0.35509  1.0000
  H   H24       1.0  0.51722  0.62992  0.85509  1.0000
  H   H25       1.0  0.37371  0.20232  0.74428  1.0000
  H   H26       1.0  0.62628  0.29768  0.24428  1.0000
  H   H27       1.0  0.62629  0.79768  0.25572  1.0000
  H   H28       1.0  0.37371  0.70231  0.75572  1.0000
  H   H29       1.0  0.47376  0.15787  0.85930  1.0000
  H   H30       1.0  0.52624  0.34213  0.35930  1.0000
  H   H31       1.0  0.52624  0.84213  0.14070  1.0000
  H   H32       1.0  0.47376  0.65787  0.64070  1.0000
  H   H33       1.0  0.81001  0.51135  0.04261  1.0000
  H   H34       1.0  0.18999  0.98865  0.54261  1.0000
  H   H35       1.0  0.18999  0.48865  0.95739  1.0000
  H   H36       1.0  0.81001  0.01135  0.45739  1.0000
  C   C1        1.0  0.04068  0.87606  0.86124  1.0000
  C   C2        1.0  0.95932  0.62395  0.36124  1.0000
  C   C3        1.0  0.95932  0.12394  0.13876  1.0000
  C   C4        1.0  0.04069  0.37605  0.63876  1.0000
  C   C5        1.0  0.13242  0.83067  0.81012  1.0000
  C   C6        1.0  0.86758  0.66934  0.31012  1.0000
  C   C7        1.0  0.86758  0.16934  0.18987  1.0000
  C   C8        1.0  0.13242  0.33066  0.68988  1.0000
  C   C9        1.0  0.08940  0.84797  0.74452  1.0000
  C   C10       1.0  0.91061  0.65204  0.24451  1.0000
  C   C11       1.0  0.91060  0.15203  0.25549  1.0000
  C   C12       1.0  0.08940  0.34796  0.75549  1.0000
  C   C13       1.0  0.95640  0.91261  0.73009  1.0000
  C   C14       1.0  0.04360  0.58739  0.23009  1.0000
  C   C15       1.0  0.04360  0.08739  0.26991  1.0000
  C   C16       1.0  0.95640  0.41261  0.76991  1.0000
  C   C17       1.0  0.90460  0.93382  0.66339  1.0000
  C   C18       1.0  0.09539  0.56619  0.16339  1.0000
  C   C19       1.0  0.09539  0.06618  0.33661  1.0000
  C   C20       1.0  0.90461  0.43381  0.83661  1.0000
  C   C21       1.0  0.77525  0.99652  0.65160  1.0000
  C   C22       1.0  0.22475  0.50349  0.15160  1.0000
  C   C23       1.0  0.22475  0.00348  0.34840  1.0000
  C   C24       1.0  0.77525  0.49651  0.84840  1.0000
  C   C25       1.0  0.68750  0.04264  0.70533  1.0000
  C   C26       1.0  0.31250  0.45736  0.20533  1.0000
  C   C27       1.0  0.31250  0.95735  0.29467  1.0000
  C   C28       1.0  0.68750  0.54264  0.79467  1.0000
  C   C29       1.0  0.55500  0.10982  0.69545  1.0000
  C   C30       1.0  0.44499  0.39018  0.19544  1.0000
  C   C31       1.0  0.44500  0.89018  0.30455  1.0000
  C   C32       1.0  0.55500  0.60982  0.80456  1.0000
  C   C33       1.0  0.47661  0.15111  0.75016  1.0000
  C   C34       1.0  0.52338  0.34889  0.25016  1.0000
  C   C35       1.0  0.52339  0.84889  0.24984  1.0000
  C   C36       1.0  0.47661  0.65111  0.74983  1.0000
  C   C37       1.0  0.53098  0.12671  0.81458  1.0000
  C   C38       1.0  0.46902  0.37329  0.31457  1.0000
  C   C39       1.0  0.46902  0.87330  0.18543  1.0000
  C   C40       1.0  0.53098  0.62670  0.68543  1.0000
  C   C41       1.0  0.73468  0.02246  0.77232  1.0000
  C   C42       1.0  0.26532  0.47754  0.27232  1.0000
  C   C43       1.0  0.26532  0.97754  0.22768  1.0000
  C   C44       1.0  0.73468  0.52246  0.72768  1.0000
  C   C45       1.0  0.87113  0.95554  0.78505  1.0000
  C   C46       1.0  0.12887  0.54446  0.28505  1.0000
  C   C47       1.0  0.12887  0.04446  0.21495  1.0000
  C   C48       1.0  0.87113  0.45554  0.71495  1.0000
  C   C49       1.0  0.80254  0.77928  0.03565  1.0000
  C   C50       1.0  0.19746  0.72072  0.53565  1.0000
  C   C51       1.0  0.19746  0.22072  0.96435  1.0000
  C   C52       1.0  0.80254  0.27928  0.46435  1.0000
  C   C53       1.0  0.64289  0.63654  0.01747  1.0000
  C   C54       1.0  0.35712  0.86346  0.51747  1.0000
  C   C55       1.0  0.35712  0.36347  0.98253  1.0000
  C   C56       1.0  0.64288  0.13654  0.48253  1.0000
  C   C57       1.0  0.46711  0.63130  0.99270  1.0000
  C   C58       1.0  0.53289  0.86870  0.49270  1.0000
  C   C59       1.0  0.53289  0.36871  0.00730  1.0000
  C   C60       1.0  0.46711  0.13129  0.50730  1.0000
  C   C61       1.0  0.41672  0.76535  0.98660  1.0000
  C   C62       1.0  0.58329  0.73465  0.48661  1.0000
  C   C63       1.0  0.58329  0.23466  0.01339  1.0000
  C   C64       1.0  0.41671  0.26535  0.51340  1.0000
  C   C65       1.0  0.67207  0.50494  0.02438  1.0000
  C   C66       1.0  0.32793  0.99506  0.52438  1.0000
  C   C67       1.0  0.32793  0.49507  0.97562  1.0000
  C   C68       1.0  0.67207  0.00494  0.47562  1.0000
  N   N1        1.0  0.91342  0.93537  0.84913  1.0000
  N   N2        1.0  0.08657  0.56463  0.34913  1.0000
  N   N3        1.0  0.08657  0.06463  0.15087  1.0000
  N   N4        1.0  0.91343  0.43537  0.65088  1.0000
  N   N5        1.0  0.65648  0.06503  0.82486  1.0000
  N   N6        1.0  0.34352  0.43497  0.32486  1.0000
  N   N7        1.0  0.34353  0.93497  0.17514  1.0000
  N   N8        1.0  0.65647  0.56502  0.67514  1.0000
  O   O1        1.0  0.78575  0.90043  0.02271  1.0000
  O   O2        1.0  0.21426  0.59957  0.52271  1.0000
  O   O3        1.0  0.21426  0.09957  0.97729  1.0000
  O   O4        1.0  0.78574  0.40043  0.47728  1.0000
  O   O5        1.0  0.94656  0.76893  0.06397  1.0000
  O   O6        1.0  0.05344  0.73107  0.56397  1.0000
  O   O7        1.0  0.05343  0.23107  0.93603  1.0000
  O   O8        1.0  0.94656  0.26893  0.43603  1.0000
  O   O9        1.0  0.44804  0.83482  0.93180  1.0000
  O   O10       1.0  0.55197  0.66518  0.43179  1.0000
  O   O11       1.0  0.55197  0.16519  0.06821  1.0000
  O   O12       1.0  0.44804  0.33481  0.56820  1.0000
  O   O13       1.0  0.33646  0.79024  0.03801  1.0000
  O   O14       1.0  0.66355  0.70977  0.53800  1.0000
  O   O15       1.0  0.66354  0.20977  0.96200  1.0000
  O   O16       1.0  0.33646  0.29023  0.46199  1.0000
