data_image0
_chemical_formula_structural       Cu4H44C36N8Cl4O8
_chemical_formula_sum              "Cu4 H44 C36 N8 Cl4 O8"
_cell_length_a       7.47655
_cell_length_b       8.5865
_cell_length_c       17.9439
_cell_angle_alpha    103.842
_cell_angle_beta     96.7356
_cell_angle_gamma    90.0172

_space_group_name_H-M_alt    "P 1"
_space_group_IT_number       1

loop_
  _space_group_symop_operation_xyz
  'x, y, z'

loop_
  _atom_site_type_symbol
  _atom_site_label
  _atom_site_symmetry_multiplicity
  _atom_site_fract_x
  _atom_site_fract_y
  _atom_site_fract_z
  _atom_site_occupancy
  Cu  Cu1       1.0  0.65850  0.28824  0.29741  1.0000
  Cu  Cu2       1.0  0.34164  0.99135  0.70277  1.0000
  Cu  Cu3       1.0  0.22078  0.46406  0.29730  1.0000
  Cu  Cu4       1.0  0.77951  0.16620  0.70243  1.0000
  H   H1        1.0  0.59116  0.12024  0.16449  1.0000
  H   H2        1.0  0.40881  0.95634  0.83576  1.0000
  H   H3        1.0  0.57818  0.17939  0.44021  1.0000
  H   H4        1.0  0.42142  0.73956  0.56012  1.0000
  H   H5        1.0  0.61598  0.92244  0.48253  1.0000
  H   H6        1.0  0.38308  0.44034  0.51781  1.0000
  H   H7        1.0  0.72503  0.68115  0.38883  1.0000
  H   H8        1.0  0.27390  0.29287  0.61156  1.0000
  H   H9        1.0  0.80028  0.71394  0.26120  1.0000
  H   H10       1.0  0.19904  0.45353  0.73922  1.0000
  H   H11       1.0  0.94231  0.01238  0.22208  1.0000
  H   H12       1.0  0.05739  0.79126  0.77816  1.0000
  H   H13       1.0  0.76265  0.88924  0.16412  1.0000
  H   H14       1.0  0.23677  0.72588  0.83617  1.0000
  H   H15       1.0  0.96897  0.23481  0.19019  1.0000
  H   H16       1.0  0.03108  0.04519  0.80999  1.0000
  H   H17       1.0  0.88873  0.04915  0.06207  1.0000
  H   H18       1.0  0.11122  0.98853  0.93830  1.0000
  H   H19       1.0  0.90695  0.24749  0.05016  1.0000
  H   H20       1.0  0.09346  0.19878  0.94991  1.0000
  H   H21       1.0  0.69055  0.15654  0.04419  1.0000
  H   H22       1.0  0.30968  0.11350  0.95592  1.0000
  H   H23       1.0  0.45538  0.56862  0.23227  1.0000
  H   H24       1.0  0.54502  0.33582  0.76764  1.0000
  H   H25       1.0  0.12798  0.65217  0.45218  1.0000
  H   H26       1.0  0.87230  0.19972  0.54762  1.0000
  H   H27       1.0  0.11469  0.94627  0.51626  1.0000
  H   H28       1.0  0.88507  0.42979  0.48350  1.0000
  H   H29       1.0  0.16780  0.14682  0.43748  1.0000
  H   H30       1.0  0.83133  0.70887  0.56226  1.0000
  H   H31       1.0  0.23291  0.04741  0.30205  1.0000
  H   H32       1.0  0.76647  0.74483  0.69767  1.0000
  H   H33       1.0  0.11169  0.70938  0.18698  1.0000
  H   H34       1.0  0.88883  0.52184  0.81274  1.0000
  H   H35       1.0  0.32921  0.80403  0.20189  1.0000
  H   H36       1.0  0.67128  0.60154  0.79798  1.0000
  H   H37       1.0  0.12712  0.44751  0.12745  1.0000
  H   H38       1.0  0.87369  0.31948  0.87218  1.0000
  H   H39       1.0  0.31748  0.59807  0.06447  1.0000
  H   H40       1.0  0.68372  0.53284  0.93535  1.0000
  H   H41       1.0  0.33762  0.39002  0.02451  1.0000
  H   H42       1.0  0.66347  0.36470  0.97528  1.0000
  H   H43       1.0  0.51385  0.49812  0.09226  1.0000
  H   H44       1.0  0.48716  0.40526  0.90761  1.0000
  C   C1        1.0  0.63074  0.07315  0.40388  1.0000
  C   C2        1.0  0.36873  0.66972  0.59647  1.0000
  C   C3        1.0  0.65127  0.92929  0.42614  1.0000
  C   C4        1.0  0.34788  0.50364  0.57422  1.0000
  C   C5        1.0  0.71308  0.79754  0.37469  1.0000
  C   C6        1.0  0.28598  0.42341  0.62568  1.0000
  C   C7        1.0  0.75498  0.81489  0.30341  1.0000
  C   C8        1.0  0.24433  0.51218  0.69697  1.0000
  C   C9        1.0  0.73621  0.96361  0.28574  1.0000
  C   C10       1.0  0.26336  0.67856  0.71460  1.0000
  C   C11       1.0  0.79466  0.99460  0.21293  1.0000
  C   C12       1.0  0.20502  0.78246  0.78736  1.0000
  C   C13       1.0  0.83100  0.23578  0.16089  1.0000
  C   C14       1.0  0.16905  0.07560  0.83925  1.0000
  C   C15       1.0  0.77777  0.41243  0.18234  1.0000
  C   C16       1.0  0.22227  0.23070  0.81771  1.0000
  C   C17       1.0  0.82827  0.16774  0.07420  1.0000
  C   C18       1.0  0.17189  0.09474  0.92599  1.0000
  C   C19       1.0  0.15115  0.74523  0.42210  1.0000
  C   C20       1.0  0.84893  0.32277  0.57767  1.0000
  C   C21       1.0  0.14376  0.90791  0.45661  1.0000
  C   C22       1.0  0.85600  0.45094  0.54315  1.0000
  C   C23       1.0  0.17298  0.01810  0.41317  1.0000
  C   C24       1.0  0.82642  0.60444  0.58658  1.0000
  C   C25       1.0  0.20847  0.96291  0.33683  1.0000
  C   C26       1.0  0.79107  0.62557  0.66292  1.0000
  C   C27       1.0  0.21383  0.79810  0.30593  1.0000
  C   C28       1.0  0.78626  0.49166  0.69385  1.0000
  C   C29       1.0  0.24314  0.72443  0.22329  1.0000
  C   C30       1.0  0.75729  0.50056  0.77650  1.0000
  C   C31       1.0  0.27488  0.44643  0.14186  1.0000
  C   C32       1.0  0.72590  0.30386  0.85786  1.0000
  C   C33       1.0  0.31519  0.28000  0.15748  1.0000
  C   C34       1.0  0.68549  0.12183  0.84226  1.0000
  C   C35       1.0  0.36716  0.48571  0.07728  1.0000
  C   C36       1.0  0.63387  0.40768  0.92253  1.0000
  N   N1        1.0  0.67295  0.08990  0.33528  1.0000
  N   N2        1.0  0.32671  0.75523  0.66504  1.0000
  N   N3        1.0  0.71684  0.14202  0.19718  1.0000
  N   N4        1.0  0.28316  0.94553  0.80306  1.0000
  N   N5        1.0  0.18579  0.69229  0.34866  1.0000
  N   N6        1.0  0.81448  0.34320  0.65114  1.0000
  N   N7        1.0  0.31717  0.56387  0.21729  1.0000
  N   N8        1.0  0.68330  0.34594  0.78249  1.0000
  Cl  Cl1       1.0  0.51449  0.44333  0.39093  1.0000
  Cl  Cl2       1.0  0.48496  0.05294  0.60898  1.0000
  Cl  Cl3       1.0  0.01971  0.35393  0.35668  1.0000
  Cl  Cl4       1.0  0.97980  0.99656  0.64282  1.0000
  O   O1        1.0  0.67397  0.45149  0.23716  1.0000
  O   O2        1.0  0.32610  0.21487  0.76287  1.0000
  O   O3        1.0  0.83628  0.51110  0.14968  1.0000
  O   O4        1.0  0.16372  0.36199  0.85032  1.0000
  O   O5        1.0  0.27493  0.26114  0.22361  1.0000
  O   O6        1.0  0.72536  0.03683  0.77606  1.0000
  O   O7        1.0  0.37947  0.17194  0.10929  1.0000
  O   O8        1.0  0.62143  0.06205  0.89056  1.0000
