data_image0
_chemical_formula_structural       Cu4H36C32N8Cl4O8
_chemical_formula_sum              "Cu4 H36 C32 N8 Cl4 O8"
_cell_length_a       7.21193
_cell_length_b       8.86765
_cell_length_c       15.6395
_cell_angle_alpha    104.195
_cell_angle_beta     97.6384
_cell_angle_gamma    89.8244

_space_group_name_H-M_alt    "P 1"
_space_group_IT_number       1

loop_
  _space_group_symop_operation_xyz
  'x, y, z'

loop_
  _atom_site_type_symbol
  _atom_site_label
  _atom_site_symmetry_multiplicity
  _atom_site_fract_x
  _atom_site_fract_y
  _atom_site_fract_z
  _atom_site_occupancy
  Cu  Cu1       1.0  0.16692  0.21889  0.28483  1.0000
  Cu  Cu2       1.0  0.83280  0.78112  0.71528  1.0000
  Cu  Cu3       1.0  0.66649  0.03658  0.28619  1.0000
  Cu  Cu4       1.0  0.33319  0.96351  0.71389  1.0000
  H   H1        1.0  0.86011  0.27421  0.20821  1.0000
  H   H2        1.0  0.13982  0.72584  0.79176  1.0000
  H   H3        1.0  0.36095  0.91442  0.20879  1.0000
  H   H4        1.0  0.63898  0.08553  0.79115  1.0000
  H   H5        1.0  0.33796  0.47451  0.44516  1.0000
  H   H6        1.0  0.66193  0.52541  0.55494  1.0000
  H   H7        1.0  0.35257  0.76595  0.48055  1.0000
  H   H8        1.0  0.64754  0.23395  0.51950  1.0000
  H   H9        1.0  0.21344  0.89853  0.36189  1.0000
  H   H10       1.0  0.78674  0.10137  0.63814  1.0000
  H   H11       1.0  0.06635  0.73347  0.21509  1.0000
  H   H12       1.0  0.93387  0.26646  0.78494  1.0000
  H   H13       1.0  0.93119  0.46539  0.13217  1.0000
  H   H14       1.0  0.06895  0.53466  0.86786  1.0000
  H   H15       1.0  0.15649  0.38535  0.12260  1.0000
  H   H16       1.0  0.84358  0.61460  0.87744  1.0000
  H   H17       1.0  0.06779  0.14047  0.06093  1.0000
  H   H18       1.0  0.93222  0.85950  0.93910  1.0000
  H   H19       1.0  0.82787  0.11596  0.06808  1.0000
  H   H20       1.0  0.17210  0.88398  0.93194  1.0000
  H   H21       1.0  0.83259  0.92141  0.44873  1.0000
  H   H22       1.0  0.16730  0.07872  0.55128  1.0000
  H   H23       1.0  0.85796  0.66159  0.48265  1.0000
  H   H24       1.0  0.14215  0.33854  0.51733  1.0000
  H   H25       1.0  0.72439  0.42395  0.36360  1.0000
  H   H26       1.0  0.27575  0.57616  0.63638  1.0000
  H   H27       1.0  0.57384  0.46152  0.21714  1.0000
  H   H28       1.0  0.42629  0.53858  0.78285  1.0000
  H   H29       1.0  0.65973  0.72894  0.12470  1.0000
  H   H30       1.0  0.34028  0.27108  0.87530  1.0000
  H   H31       1.0  0.43473  0.65724  0.13381  1.0000
  H   H32       1.0  0.56528  0.34273  0.86619  1.0000
  H   H33       1.0  0.32973  0.95118  0.06862  1.0000
  H   H34       1.0  0.67016  0.04880  0.93132  1.0000
  H   H35       1.0  0.57005  0.91914  0.06200  1.0000
  H   H36       1.0  0.42995  0.08087  0.93798  1.0000
  C   C1        1.0  0.27888  0.53818  0.39709  1.0000
  C   C2        1.0  0.72110  0.46172  0.60298  1.0000
  C   C3        1.0  0.28678  0.69968  0.41551  1.0000
  C   C4        1.0  0.71331  0.30021  0.58454  1.0000
  C   C5        1.0  0.20991  0.77199  0.34976  1.0000
  C   C6        1.0  0.79022  0.22790  0.65029  1.0000
  C   C7        1.0  0.12842  0.68032  0.26767  1.0000
  C   C8        1.0  0.87168  0.31961  0.73238  1.0000
  C   C9        1.0  0.12594  0.51917  0.25359  1.0000
  C   C10       1.0  0.87412  0.48076  0.74646  1.0000
  C   C11       1.0  0.04643  0.41096  0.16634  1.0000
  C   C12       1.0  0.95364  0.58902  0.83369  1.0000
  C   C13       1.0  0.96827  0.12738  0.10655  1.0000
  C   C14       1.0  0.03170  0.87259  0.89347  1.0000
  C   C15       1.0  0.01457  0.97949  0.13801  1.0000
  C   C16       1.0  0.98538  0.02046  0.86201  1.0000
  C   C17       1.0  0.77748  0.81616  0.39976  1.0000
  C   C18       1.0  0.22247  0.18398  0.60025  1.0000
  C   C19       1.0  0.79018  0.67017  0.41766  1.0000
  C   C20       1.0  0.20989  0.32997  0.58233  1.0000
  C   C21       1.0  0.71701  0.54027  0.35181  1.0000
  C   C22       1.0  0.28305  0.45985  0.64818  1.0000
  C   C23       1.0  0.63410  0.56061  0.26972  1.0000
  C   C24       1.0  0.36595  0.43951  0.73028  1.0000
  C   C25       1.0  0.62803  0.70956  0.25574  1.0000
  C   C26       1.0  0.37192  0.29056  0.74427  1.0000
  C   C27       1.0  0.54905  0.74150  0.16808  1.0000
  C   C28       1.0  0.45092  0.25853  0.83190  1.0000
  C   C29       1.0  0.46999  0.97256  0.10724  1.0000
  C   C30       1.0  0.52992  0.02742  0.89271  1.0000
  C   C31       1.0  0.51591  0.14769  0.13824  1.0000
  C   C32       1.0  0.48391  0.85233  0.86171  1.0000
  N   N1        1.0  0.19997  0.44989  0.31790  1.0000
  N   N2        1.0  0.79995  0.55002  0.68217  1.0000
  N   N3        1.0  0.98630  0.26354  0.18268  1.0000
  N   N4        1.0  0.01366  0.73646  0.81732  1.0000
  N   N5        1.0  0.69889  0.83510  0.32032  1.0000
  N   N6        1.0  0.30100  0.16505  0.67970  1.0000
  N   N7        1.0  0.48756  0.90291  0.18366  1.0000
  N   N8        1.0  0.51235  0.09707  0.81628  1.0000
  Cl  Cl1       1.0  0.40381  0.16206  0.38097  1.0000
  Cl  Cl2       1.0  0.59661  0.83760  0.61883  1.0000
  Cl  Cl3       1.0  0.90638  0.17385  0.38127  1.0000
  Cl  Cl4       1.0  0.09399  0.82633  0.61851  1.0000
  O   O1        1.0  0.12627  0.00047  0.21308  1.0000
  O   O2        1.0  0.87349  0.99947  0.78697  1.0000
  O   O3        1.0  0.95452  0.84962  0.09197  1.0000
  O   O4        1.0  0.04552  0.15033  0.90799  1.0000
  O   O5        1.0  0.62648  0.19203  0.21364  1.0000
  O   O6        1.0  0.37316  0.80803  0.78634  1.0000
  O   O7        1.0  0.45669  0.23724  0.09159  1.0000
  O   O8        1.0  0.54319  0.76271  0.90830  1.0000
