data_image0
_chemical_formula_structural       Cd4H40C64N32O4
_chemical_formula_sum              "Cd4 H40 C64 N32 O4"
_cell_length_a       7.72189
_cell_length_b       12.8584
_cell_length_c       18.405
_cell_angle_alpha    90
_cell_angle_beta     90.0001
_cell_angle_gamma    92.4214

_space_group_name_H-M_alt    "P 1"
_space_group_IT_number       1

loop_
  _space_group_symop_operation_xyz
  'x, y, z'

loop_
  _atom_site_type_symbol
  _atom_site_label
  _atom_site_symmetry_multiplicity
  _atom_site_fract_x
  _atom_site_fract_y
  _atom_site_fract_z
  _atom_site_occupancy
  Cd  Cd1       1.0  0.62691  0.55606  0.70973  1.0000
  Cd  Cd2       1.0  0.37309  0.94394  0.20973  1.0000
  Cd  Cd3       1.0  0.37309  0.44394  0.29027  1.0000
  Cd  Cd4       1.0  0.62691  0.05606  0.79027  1.0000
  H   H1        1.0  0.48726  0.45279  0.59761  1.0000
  H   H2        1.0  0.51274  0.04721  0.09761  1.0000
  H   H3        1.0  0.51273  0.54722  0.40239  1.0000
  H   H4        1.0  0.48726  0.95278  0.90239  1.0000
  H   H5        1.0  0.51555  0.54921  0.54714  1.0000
  H   H6        1.0  0.48445  0.95079  0.04714  1.0000
  H   H7        1.0  0.48444  0.45080  0.45287  1.0000
  H   H8        1.0  0.51556  0.04920  0.95287  1.0000
  H   H9        1.0  0.64061  0.75378  0.79730  1.0000
  H   H10       1.0  0.35938  0.74623  0.29730  1.0000
  H   H11       1.0  0.35938  0.24623  0.20270  1.0000
  H   H12       1.0  0.64063  0.25377  0.70270  1.0000
  H   H13       1.0  0.73734  0.82907  0.91623  1.0000
  H   H14       1.0  0.26265  0.67093  0.41623  1.0000
  H   H15       1.0  0.26266  0.17093  0.08377  1.0000
  H   H16       1.0  0.73735  0.32907  0.58377  1.0000
  H   H17       1.0  0.79996  0.70997  0.01840  1.0000
  H   H18       1.0  0.20003  0.79003  0.51840  1.0000
  H   H19       1.0  0.20003  0.29003  0.98160  1.0000
  H   H20       1.0  0.79998  0.20997  0.48160  1.0000
  H   H21       1.0  0.86176  0.60358  0.09595  1.0000
  H   H22       1.0  0.13824  0.89642  0.59595  1.0000
  H   H23       1.0  0.13823  0.39642  0.90406  1.0000
  H   H24       1.0  0.86177  0.10358  0.40405  1.0000
  H   H25       1.0  0.91833  0.46264  0.18472  1.0000
  H   H26       1.0  0.08167  0.03736  0.68473  1.0000
  H   H27       1.0  0.08166  0.53736  0.81528  1.0000
  H   H28       1.0  0.91834  0.96264  0.31528  1.0000
  H   H29       1.0  0.84253  0.27914  0.15263  1.0000
  H   H30       1.0  0.15747  0.22086  0.65263  1.0000
  H   H31       1.0  0.15747  0.72086  0.84738  1.0000
  H   H32       1.0  0.84253  0.77914  0.34737  1.0000
  H   H33       1.0  0.63516  0.27147  0.92140  1.0000
  H   H34       1.0  0.36484  0.22854  0.42140  1.0000
  H   H35       1.0  0.36485  0.72854  0.07860  1.0000
  H   H36       1.0  0.63514  0.77146  0.57860  1.0000
  H   H37       1.0  0.58358  0.39847  0.82374  1.0000
  H   H38       1.0  0.41643  0.10153  0.32375  1.0000
  H   H39       1.0  0.41643  0.60153  0.17626  1.0000
  H   H40       1.0  0.58357  0.89847  0.67626  1.0000
  C   C1        1.0  0.97045  0.40045  0.72412  1.0000
  C   C2        1.0  0.02956  0.09956  0.22412  1.0000
  C   C3        1.0  0.02956  0.59956  0.27588  1.0000
  C   C4        1.0  0.97046  0.90044  0.77588  1.0000
  C   C5        1.0  0.26629  0.39693  0.71726  1.0000
  C   C6        1.0  0.73371  0.10307  0.21727  1.0000
  C   C7        1.0  0.73370  0.60308  0.28273  1.0000
  C   C8        1.0  0.26630  0.89692  0.78273  1.0000
  C   C9        1.0  0.98795  0.68056  0.65523  1.0000
  C   C10       1.0  0.01205  0.81945  0.15523  1.0000
  C   C11       1.0  0.01204  0.31945  0.34477  1.0000
  C   C12       1.0  0.98796  0.18056  0.84477  1.0000
  C   C13       1.0  0.28488  0.68326  0.65919  1.0000
  C   C14       1.0  0.71512  0.81674  0.15920  1.0000
  C   C15       1.0  0.71512  0.31674  0.34081  1.0000
  C   C16       1.0  0.28489  0.18326  0.84080  1.0000
  C   C17       1.0  0.66455  0.70320  0.84346  1.0000
  C   C18       1.0  0.33544  0.79680  0.34346  1.0000
  C   C19       1.0  0.33545  0.29680  0.15654  1.0000
  C   C20       1.0  0.66456  0.20320  0.65654  1.0000
  C   C21       1.0  0.71944  0.74508  0.91027  1.0000
  C   C22       1.0  0.28055  0.75492  0.41027  1.0000
  C   C23       1.0  0.28056  0.25491  0.08973  1.0000
  C   C24       1.0  0.71945  0.24508  0.58973  1.0000
  C   C25       1.0  0.75316  0.67813  0.96682  1.0000
  C   C26       1.0  0.24683  0.82187  0.46682  1.0000
  C   C27       1.0  0.24684  0.32187  0.03318  1.0000
  C   C28       1.0  0.75317  0.17813  0.53318  1.0000
  C   C29       1.0  0.72718  0.56980  0.95730  1.0000
  C   C30       1.0  0.27282  0.93020  0.45731  1.0000
  C   C31       1.0  0.27282  0.43020  0.04270  1.0000
  C   C32       1.0  0.72718  0.06980  0.54269  1.0000
  C   C33       1.0  0.66667  0.53342  0.88823  1.0000
  C   C34       1.0  0.33333  0.96658  0.38823  1.0000
  C   C35       1.0  0.33333  0.46658  0.11177  1.0000
  C   C36       1.0  0.66667  0.03342  0.61177  1.0000
  C   C37       1.0  0.76071  0.49486  0.01373  1.0000
  C   C38       1.0  0.23929  0.00514  0.51373  1.0000
  C   C39       1.0  0.23930  0.50514  0.98627  1.0000
  C   C40       1.0  0.76070  0.99486  0.48627  1.0000
  C   C41       1.0  0.83025  0.52249  0.08228  1.0000
  C   C42       1.0  0.16975  0.97751  0.58229  1.0000
  C   C43       1.0  0.16975  0.47751  0.91772  1.0000
  C   C44       1.0  0.83025  0.02248  0.41771  1.0000
  C   C45       1.0  0.86071  0.44484  0.13197  1.0000
  C   C46       1.0  0.13929  0.05516  0.63197  1.0000
  C   C47       1.0  0.13929  0.55516  0.86803  1.0000
  C   C48       1.0  0.86071  0.94484  0.36803  1.0000
  C   C49       1.0  0.81945  0.34058  0.11337  1.0000
  C   C50       1.0  0.18055  0.15941  0.61338  1.0000
  C   C51       1.0  0.18055  0.65941  0.88663  1.0000
  C   C52       1.0  0.81944  0.84059  0.38663  1.0000
  C   C53       1.0  0.72612  0.38676  0.99974  1.0000
  C   C54       1.0  0.27388  0.11324  0.49974  1.0000
  C   C55       1.0  0.27389  0.61324  0.00026  1.0000
  C   C56       1.0  0.72611  0.88676  0.50026  1.0000
  C   C57       1.0  0.66009  0.35445  0.93036  1.0000
  C   C58       1.0  0.33990  0.14555  0.43036  1.0000
  C   C59       1.0  0.33991  0.64555  0.06964  1.0000
  C   C60       1.0  0.66008  0.85445  0.56964  1.0000
  C   C61       1.0  0.63260  0.42465  0.87643  1.0000
  C   C62       1.0  0.36740  0.07535  0.37643  1.0000
  C   C63       1.0  0.36740  0.57535  0.12357  1.0000
  C   C64       1.0  0.63260  0.92465  0.62357  1.0000
  N   N1        1.0  0.83077  0.43124  0.71504  1.0000
  N   N2        1.0  0.16924  0.06876  0.21504  1.0000
  N   N3        1.0  0.16924  0.56876  0.28496  1.0000
  N   N4        1.0  0.83077  0.93124  0.78496  1.0000
  N   N5        1.0  0.11695  0.35886  0.73728  1.0000
  N   N6        1.0  0.88305  0.14114  0.23728  1.0000
  N   N7        1.0  0.88305  0.64114  0.26272  1.0000
  N   N8        1.0  0.11695  0.85886  0.76272  1.0000
  N   N9        1.0  0.40945  0.42332  0.70080  1.0000
  N   N10       1.0  0.59056  0.07669  0.20081  1.0000
  N   N11       1.0  0.59056  0.57669  0.29919  1.0000
  N   N12       1.0  0.40945  0.92331  0.79919  1.0000
  N   N13       1.0  0.84409  0.67241  0.67649  1.0000
  N   N14       1.0  0.15591  0.82759  0.17649  1.0000
  N   N15       1.0  0.15590  0.32759  0.32351  1.0000
  N   N16       1.0  0.84409  0.17241  0.82351  1.0000
  N   N17       1.0  0.13949  0.69336  0.62588  1.0000
  N   N18       1.0  0.86050  0.80664  0.12589  1.0000
  N   N19       1.0  0.86050  0.30664  0.37412  1.0000
  N   N20       1.0  0.13950  0.19336  0.87411  1.0000
  N   N21       1.0  0.42565  0.67748  0.68359  1.0000
  N   N22       1.0  0.57433  0.82252  0.18359  1.0000
  N   N23       1.0  0.57434  0.32252  0.31641  1.0000
  N   N24       1.0  0.42566  0.17748  0.81640  1.0000
  N   N25       1.0  0.64053  0.60109  0.83236  1.0000
  N   N26       1.0  0.35946  0.89892  0.33236  1.0000
  N   N27       1.0  0.35947  0.39892  0.16764  1.0000
  N   N28       1.0  0.64054  0.10108  0.66764  1.0000
  N   N29       1.0  0.75395  0.31101  0.04962  1.0000
  N   N30       1.0  0.24605  0.18899  0.54962  1.0000
  N   N31       1.0  0.24606  0.68899  0.95038  1.0000
  N   N32       1.0  0.75393  0.81101  0.45038  1.0000
  O   O1        1.0  0.57779  0.49732  0.57426  1.0000
  O   O2        1.0  0.42222  0.00268  0.07426  1.0000
  O   O3        1.0  0.42220  0.50268  0.42573  1.0000
  O   O4        1.0  0.57779  0.99732  0.92573  1.0000
