data_image0
_chemical_formula_structural       Zn4H40C64N32O4
_chemical_formula_sum              "Zn4 H40 C64 N32 O4"
_cell_length_a       7.37953
_cell_length_b       12.7471
_cell_length_c       18.4665
_cell_angle_alpha    90.0002
_cell_angle_beta     89.9999
_cell_angle_gamma    93.6321

_space_group_name_H-M_alt    "P 1"
_space_group_IT_number       1

loop_
  _space_group_symop_operation_xyz
  'x, y, z'

loop_
  _atom_site_type_symbol
  _atom_site_label
  _atom_site_symmetry_multiplicity
  _atom_site_fract_x
  _atom_site_fract_y
  _atom_site_fract_z
  _atom_site_occupancy
  Zn  Zn1       1.0  0.63283  0.55817  0.71952  1.0000
  Zn  Zn2       1.0  0.36719  0.94182  0.21944  1.0000
  Zn  Zn3       1.0  0.36717  0.44193  0.28018  1.0000
  Zn  Zn4       1.0  0.63285  0.05806  0.78010  1.0000
  H   H1        1.0  0.50569  0.46288  0.59987  1.0000
  H   H2        1.0  0.49424  0.03711  0.09988  1.0000
  H   H3        1.0  0.49420  0.53715  0.40013  1.0000
  H   H4        1.0  0.50573  0.96282  0.90014  1.0000
  H   H5        1.0  0.54396  0.54697  0.53997  1.0000
  H   H6        1.0  0.45606  0.95340  0.03972  1.0000
  H   H7        1.0  0.45575  0.45157  0.45903  1.0000
  H   H8        1.0  0.54439  0.04877  0.95877  1.0000
  H   H9        1.0  0.64070  0.75282  0.79370  1.0000
  H   H10       1.0  0.35934  0.74719  0.29370  1.0000
  H   H11       1.0  0.35940  0.24715  0.20625  1.0000
  H   H12       1.0  0.64062  0.25287  0.70624  1.0000
  H   H13       1.0  0.72551  0.83187  0.91398  1.0000
  H   H14       1.0  0.27455  0.66813  0.41397  1.0000
  H   H15       1.0  0.27473  0.16808  0.08597  1.0000
  H   H16       1.0  0.72532  0.33192  0.58596  1.0000
  H   H17       1.0  0.78815  0.71383  0.01665  1.0000
  H   H18       1.0  0.21186  0.78617  0.51664  1.0000
  H   H19       1.0  0.21183  0.28621  0.98332  1.0000
  H   H20       1.0  0.78818  0.21380  0.48331  1.0000
  H   H21       1.0  0.85040  0.60969  0.09487  1.0000
  H   H22       1.0  0.14960  0.89031  0.59486  1.0000
  H   H23       1.0  0.14953  0.39031  0.90512  1.0000
  H   H24       1.0  0.85047  0.10969  0.40512  1.0000
  H   H25       1.0  0.91403  0.47003  0.18416  1.0000
  H   H26       1.0  0.08599  0.02996  0.68416  1.0000
  H   H27       1.0  0.08592  0.52994  0.81581  1.0000
  H   H28       1.0  0.91407  0.97004  0.31581  1.0000
  H   H29       1.0  0.85228  0.28261  0.15145  1.0000
  H   H30       1.0  0.14773  0.21738  0.65145  1.0000
  H   H31       1.0  0.14770  0.71736  0.84852  1.0000
  H   H32       1.0  0.85230  0.78264  0.34852  1.0000
  H   H33       1.0  0.64694  0.26736  0.91928  1.0000
  H   H34       1.0  0.35307  0.23265  0.41928  1.0000
  H   H35       1.0  0.35310  0.73269  0.08068  1.0000
  H   H36       1.0  0.64692  0.76732  0.58068  1.0000
  H   H37       1.0  0.59146  0.39336  0.82108  1.0000
  H   H38       1.0  0.40853  0.10665  0.32108  1.0000
  H   H39       1.0  0.40858  0.60669  0.17888  1.0000
  H   H40       1.0  0.59143  0.89332  0.67888  1.0000
  C   C1        1.0  0.96672  0.40703  0.72203  1.0000
  C   C2        1.0  0.03332  0.09298  0.22203  1.0000
  C   C3        1.0  0.03316  0.59294  0.27798  1.0000
  C   C4        1.0  0.96691  0.90707  0.77798  1.0000
  C   C5        1.0  0.27512  0.40567  0.71483  1.0000
  C   C6        1.0  0.72490  0.09436  0.21487  1.0000
  C   C7        1.0  0.72468  0.59420  0.28532  1.0000
  C   C8        1.0  0.27537  0.90583  0.78536  1.0000
  C   C9        1.0  0.98832  0.67609  0.66023  1.0000
  C   C10       1.0  0.01165  0.82387  0.16024  1.0000
  C   C11       1.0  0.01182  0.32403  0.33980  1.0000
  C   C12       1.0  0.98816  0.17593  0.83981  1.0000
  C   C13       1.0  0.29693  0.67813  0.66351  1.0000
  C   C14       1.0  0.70309  0.82185  0.16353  1.0000
  C   C15       1.0  0.70311  0.32196  0.33655  1.0000
  C   C16       1.0  0.29688  0.17802  0.83657  1.0000
  C   C17       1.0  0.66357  0.70293  0.84032  1.0000
  C   C18       1.0  0.33646  0.79709  0.34031  1.0000
  C   C19       1.0  0.33652  0.29704  0.15962  1.0000
  C   C20       1.0  0.66351  0.20298  0.65961  1.0000
  C   C21       1.0  0.71229  0.74681  0.90758  1.0000
  C   C22       1.0  0.28774  0.75320  0.40756  1.0000
  C   C23       1.0  0.28781  0.25317  0.09238  1.0000
  C   C24       1.0  0.71221  0.24684  0.59237  1.0000
  C   C25       1.0  0.74541  0.68039  0.96459  1.0000
  C   C26       1.0  0.25460  0.81960  0.46458  1.0000
  C   C27       1.0  0.25461  0.31961  0.03539  1.0000
  C   C28       1.0  0.74541  0.18040  0.53538  1.0000
  C   C29       1.0  0.72436  0.57064  0.95493  1.0000
  C   C30       1.0  0.27565  0.92937  0.45492  1.0000
  C   C31       1.0  0.27563  0.42938  0.04504  1.0000
  C   C32       1.0  0.72438  0.07063  0.54503  1.0000
  C   C33       1.0  0.66868  0.53188  0.88540  1.0000
  C   C34       1.0  0.33130  0.96812  0.38540  1.0000
  C   C35       1.0  0.33132  0.46814  0.11455  1.0000
  C   C36       1.0  0.66869  0.03187  0.61455  1.0000
  C   C37       1.0  0.75900  0.49648  0.01187  1.0000
  C   C38       1.0  0.24100  0.00353  0.51186  1.0000
  C   C39       1.0  0.24095  0.50354  0.98811  1.0000
  C   C40       1.0  0.75907  0.99647  0.48811  1.0000
  C   C41       1.0  0.82455  0.52695  0.08103  1.0000
  C   C42       1.0  0.17546  0.97305  0.58102  1.0000
  C   C43       1.0  0.17539  0.47305  0.91895  1.0000
  C   C44       1.0  0.82462  0.02695  0.41895  1.0000
  C   C45       1.0  0.85863  0.45006  0.13100  1.0000
  C   C46       1.0  0.14138  0.04994  0.63100  1.0000
  C   C47       1.0  0.14131  0.54991  0.86897  1.0000
  C   C48       1.0  0.85870  0.95008  0.36898  1.0000
  C   C49       1.0  0.82518  0.34364  0.11214  1.0000
  C   C50       1.0  0.17483  0.15635  0.61214  1.0000
  C   C51       1.0  0.17478  0.65633  0.88783  1.0000
  C   C52       1.0  0.82523  0.84366  0.38783  1.0000
  C   C53       1.0  0.73142  0.38657  0.99779  1.0000
  C   C54       1.0  0.26858  0.11344  0.49778  1.0000
  C   C55       1.0  0.26855  0.61345  0.00219  1.0000
  C   C56       1.0  0.73146  0.88656  0.50219  1.0000
  C   C57       1.0  0.66804  0.35171  0.92814  1.0000
  C   C58       1.0  0.33196  0.14831  0.42814  1.0000
  C   C59       1.0  0.33196  0.64834  0.07183  1.0000
  C   C60       1.0  0.66806  0.85167  0.57183  1.0000
  C   C61       1.0  0.63843  0.42133  0.87391  1.0000
  C   C62       1.0  0.36157  0.07868  0.37390  1.0000
  C   C63       1.0  0.36159  0.57869  0.12606  1.0000
  C   C64       1.0  0.63841  0.92133  0.62606  1.0000
  N   N1        1.0  0.82367  0.44242  0.71892  1.0000
  N   N2        1.0  0.17634  0.05756  0.21892  1.0000
  N   N3        1.0  0.17626  0.55762  0.28105  1.0000
  N   N4        1.0  0.82377  0.94237  0.78105  1.0000
  N   N5        1.0  0.11740  0.36078  0.72792  1.0000
  N   N6        1.0  0.88265  0.13925  0.22793  1.0000
  N   N7        1.0  0.88234  0.63907  0.27213  1.0000
  N   N8        1.0  0.11774  0.86097  0.77214  1.0000
  N   N9        1.0  0.42554  0.43896  0.70362  1.0000
  N   N10       1.0  0.57449  0.06107  0.20367  1.0000
  N   N11       1.0  0.57432  0.56093  0.29667  1.0000
  N   N12       1.0  0.42575  0.93911  0.79672  1.0000
  N   N13       1.0  0.83924  0.66120  0.68219  1.0000
  N   N14       1.0  0.16073  0.83874  0.18222  1.0000
  N   N15       1.0  0.16098  0.33909  0.31794  1.0000
  N   N16       1.0  0.83898  0.16084  0.81798  1.0000
  N   N17       1.0  0.14651  0.69656  0.63144  1.0000
  N   N18       1.0  0.85349  0.80344  0.13143  1.0000
  N   N19       1.0  0.85360  0.30342  0.36851  1.0000
  N   N20       1.0  0.14638  0.19659  0.86849  1.0000
  N   N21       1.0  0.44124  0.66476  0.68801  1.0000
  N   N22       1.0  0.55881  0.83520  0.18806  1.0000
  N   N23       1.0  0.55868  0.33545  0.31221  1.0000
  N   N24       1.0  0.44136  0.16450  0.81227  1.0000
  N   N25       1.0  0.64413  0.59928  0.82897  1.0000
  N   N26       1.0  0.35587  0.90074  0.32895  1.0000
  N   N27       1.0  0.35590  0.40071  0.17097  1.0000
  N   N28       1.0  0.64410  0.09931  0.67096  1.0000
  N   N29       1.0  0.76302  0.31151  0.04791  1.0000
  N   N30       1.0  0.23698  0.18848  0.54792  1.0000
  N   N31       1.0  0.23692  0.68848  0.95205  1.0000
  N   N32       1.0  0.76308  0.81152  0.45206  1.0000
  O   O1        1.0  0.60105  0.49267  0.56759  1.0000
  O   O2        1.0  0.39856  0.00698  0.06788  1.0000
  O   O3        1.0  0.40032  0.50844  0.43352  1.0000
  O   O4        1.0  0.59917  0.99117  0.93384  1.0000
