data_image0
_chemical_formula_structural       Sb4As4H64C56S8
_chemical_formula_sum              "Sb4 As4 H64 C56 S8"
_cell_length_a       9.54553
_cell_length_b       9.74002
_cell_length_c       17.287
_cell_angle_alpha    90
_cell_angle_beta     94.6081
_cell_angle_gamma    89.9999

_space_group_name_H-M_alt    "P 1"
_space_group_IT_number       1

loop_
  _space_group_symop_operation_xyz
  'x, y, z'

loop_
  _atom_site_type_symbol
  _atom_site_label
  _atom_site_symmetry_multiplicity
  _atom_site_fract_x
  _atom_site_fract_y
  _atom_site_fract_z
  _atom_site_occupancy
  Sb  Sb1       1.0  0.21110  0.64368  0.32918  1.0000
  Sb  Sb2       1.0  0.28889  0.14368  0.17082  1.0000
  Sb  Sb3       1.0  0.78890  0.35632  0.67082  1.0000
  Sb  Sb4       1.0  0.71111  0.85632  0.82918  1.0000
  As  As1       1.0  0.44696  0.33669  0.35275  1.0000
  As  As2       1.0  0.05304  0.83669  0.14725  1.0000
  As  As3       1.0  0.55305  0.66331  0.64725  1.0000
  As  As4       1.0  0.94696  0.16330  0.85275  1.0000
  H   H1        1.0  0.70531  0.30467  0.34792  1.0000
  H   H2        1.0  0.79469  0.80467  0.15208  1.0000
  H   H3        1.0  0.29469  0.69533  0.65208  1.0000
  H   H4        1.0  0.20531  0.19533  0.84792  1.0000
  H   H5        1.0  0.66529  0.35926  0.44329  1.0000
  H   H6        1.0  0.83471  0.85927  0.05671  1.0000
  H   H7        1.0  0.33471  0.64073  0.55672  1.0000
  H   H8        1.0  0.16529  0.14073  0.94328  1.0000
  H   H9        1.0  0.66267  0.48233  0.36539  1.0000
  H   H10       1.0  0.83733  0.98233  0.13461  1.0000
  H   H11       1.0  0.33733  0.51767  0.63461  1.0000
  H   H12       1.0  0.16268  0.01766  0.86539  1.0000
  H   H13       1.0  0.48916  0.08018  0.34107  1.0000
  H   H14       1.0  0.01084  0.58018  0.15893  1.0000
  H   H15       1.0  0.51084  0.91982  0.65893  1.0000
  H   H16       1.0  0.98916  0.41982  0.84107  1.0000
  H   H17       1.0  0.45074  0.13048  0.43783  1.0000
  H   H18       1.0  0.04926  0.63048  0.06217  1.0000
  H   H19       1.0  0.54926  0.86952  0.56218  1.0000
  H   H20       1.0  0.95075  0.36952  0.93783  1.0000
  H   H21       1.0  0.31091  0.11546  0.36191  1.0000
  H   H22       1.0  0.18909  0.61546  0.13809  1.0000
  H   H23       1.0  0.68909  0.88454  0.63809  1.0000
  H   H24       1.0  0.81092  0.38454  0.86191  1.0000
  H   H25       1.0  0.50306  0.66410  0.43881  1.0000
  H   H26       1.0  0.99693  0.16410  0.06118  1.0000
  H   H27       1.0  0.49694  0.33591  0.56119  1.0000
  H   H28       1.0  0.00307  0.83590  0.93881  1.0000
  H   H29       1.0  0.74118  0.75500  0.42665  1.0000
  H   H30       1.0  0.75881  0.25500  0.07335  1.0000
  H   H31       1.0  0.25881  0.24501  0.57335  1.0000
  H   H32       1.0  0.24120  0.74500  0.92665  1.0000
  H   H33       1.0  0.79809  0.87701  0.30584  1.0000
  H   H34       1.0  0.70190  0.37702  0.19416  1.0000
  H   H35       1.0  0.20191  0.12298  0.69416  1.0000
  H   H36       1.0  0.29809  0.62297  0.80584  1.0000
  H   H37       1.0  0.60832  0.91206  0.19893  1.0000
  H   H38       1.0  0.89168  0.41206  0.30107  1.0000
  H   H39       1.0  0.39169  0.08794  0.80107  1.0000
  H   H40       1.0  0.10832  0.58794  0.69893  1.0000
  H   H41       1.0  0.37059  0.82249  0.21109  1.0000
  H   H42       1.0  0.12940  0.32248  0.28891  1.0000
  H   H43       1.0  0.62941  0.17752  0.78891  1.0000
  H   H44       1.0  0.87059  0.67752  0.71108  1.0000
  H   H45       1.0  0.31511  0.89998  0.43667  1.0000
  H   H46       1.0  0.18489  0.40000  0.06333  1.0000
  H   H47       1.0  0.68488  0.10001  0.56333  1.0000
  H   H48       1.0  0.81511  0.60001  0.93667  1.0000
  H   H49       1.0  0.24291  0.01151  0.55608  1.0000
  H   H50       1.0  0.25709  0.51152  0.94391  1.0000
  H   H51       1.0  0.75709  0.98848  0.44391  1.0000
  H   H52       1.0  0.74291  0.48848  0.05609  1.0000
  H   H53       1.0  0.04491  0.91560  0.62469  1.0000
  H   H54       1.0  0.45509  0.41559  0.87531  1.0000
  H   H55       1.0  0.95509  0.08441  0.37531  1.0000
  H   H56       1.0  0.54491  0.58440  0.12469  1.0000
  H   H57       1.0  0.91783  0.70737  0.57139  1.0000
  H   H58       1.0  0.58217  0.20737  0.92861  1.0000
  H   H59       1.0  0.08216  0.29264  0.42861  1.0000
  H   H60       1.0  0.41784  0.79263  0.07139  1.0000
  H   H61       1.0  0.98749  0.59783  0.45189  1.0000
  H   H62       1.0  0.51250  0.09783  0.04811  1.0000
  H   H63       1.0  0.01250  0.40218  0.54811  1.0000
  H   H64       1.0  0.48750  0.90217  0.95189  1.0000
  C   C1        1.0  0.41903  0.73649  0.32587  1.0000
  C   C2        1.0  0.08097  0.23649  0.17412  1.0000
  C   C3        1.0  0.58097  0.26352  0.67413  1.0000
  C   C4        1.0  0.91903  0.76352  0.82587  1.0000
  C   C5        1.0  0.52457  0.72011  0.38633  1.0000
  C   C6        1.0  0.97542  0.22011  0.11367  1.0000
  C   C7        1.0  0.47543  0.27989  0.61367  1.0000
  C   C8        1.0  0.02458  0.77989  0.88633  1.0000
  C   C9        1.0  0.66004  0.77059  0.37922  1.0000
  C   C10       1.0  0.83995  0.27059  0.12077  1.0000
  C   C11       1.0  0.33995  0.22941  0.62078  1.0000
  C   C12       1.0  0.16006  0.72941  0.87922  1.0000
  C   C13       1.0  0.69169  0.83917  0.31166  1.0000
  C   C14       1.0  0.80830  0.33918  0.18834  1.0000
  C   C15       1.0  0.30831  0.16082  0.68834  1.0000
  C   C16       1.0  0.19170  0.66082  0.81166  1.0000
  C   C17       1.0  0.58618  0.85769  0.25174  1.0000
  C   C18       1.0  0.91382  0.35769  0.24826  1.0000
  C   C19       1.0  0.41382  0.14231  0.74826  1.0000
  C   C20       1.0  0.08618  0.64231  0.75174  1.0000
  C   C21       1.0  0.45118  0.80590  0.25864  1.0000
  C   C22       1.0  0.04882  0.30589  0.24136  1.0000
  C   C23       1.0  0.54882  0.19410  0.74136  1.0000
  C   C24       1.0  0.95118  0.69412  0.75864  1.0000
  C   C25       1.0  0.15682  0.74136  0.43601  1.0000
  C   C26       1.0  0.34317  0.24136  0.06399  1.0000
  C   C27       1.0  0.84317  0.25864  0.56399  1.0000
  C   C28       1.0  0.65683  0.75864  0.93601  1.0000
  C   C29       1.0  0.22766  0.85796  0.46605  1.0000
  C   C30       1.0  0.27234  0.35797  0.03394  1.0000
  C   C31       1.0  0.77234  0.14204  0.53394  1.0000
  C   C32       1.0  0.72766  0.64203  0.96605  1.0000
  C   C33       1.0  0.18726  0.92061  0.53350  1.0000
  C   C34       1.0  0.31274  0.42061  0.96650  1.0000
  C   C35       1.0  0.81274  0.07939  0.46650  1.0000
  C   C36       1.0  0.68725  0.57939  0.03350  1.0000
  C   C37       1.0  0.07637  0.86685  0.57193  1.0000
  C   C38       1.0  0.42362  0.36685  0.92807  1.0000
  C   C39       1.0  0.92362  0.13316  0.42807  1.0000
  C   C40       1.0  0.57638  0.63315  0.07193  1.0000
  C   C41       1.0  0.00536  0.75038  0.54241  1.0000
  C   C42       1.0  0.49465  0.25037  0.95760  1.0000
  C   C43       1.0  0.99464  0.24963  0.45759  1.0000
  C   C44       1.0  0.50536  0.74963  0.04241  1.0000
  C   C45       1.0  0.04482  0.68835  0.47452  1.0000
  C   C46       1.0  0.45517  0.18835  0.02548  1.0000
  C   C47       1.0  0.95517  0.31165  0.52548  1.0000
  C   C48       1.0  0.54483  0.81165  0.97451  1.0000
  C   C49       1.0  0.64367  0.37537  0.38080  1.0000
  C   C50       1.0  0.85633  0.87537  0.11920  1.0000
  C   C51       1.0  0.35633  0.62463  0.61920  1.0000
  C   C52       1.0  0.14368  0.12463  0.88080  1.0000
  C   C53       1.0  0.42152  0.14253  0.37549  1.0000
  C   C54       1.0  0.07848  0.64253  0.12452  1.0000
  C   C55       1.0  0.57848  0.85747  0.62452  1.0000
  C   C56       1.0  0.92152  0.35747  0.87549  1.0000
  S   S1        1.0  0.31671  0.44774  0.42896  1.0000
  S   S2        1.0  0.18329  0.94774  0.07104  1.0000
  S   S3        1.0  0.68328  0.55226  0.57104  1.0000
  S   S4        1.0  0.81671  0.05226  0.92896  1.0000
  S   S5        1.0  0.09498  0.88484  0.26908  1.0000
  S   S6        1.0  0.40502  0.38483  0.23092  1.0000
  S   S7        1.0  0.90502  0.11516  0.73092  1.0000
  S   S8        1.0  0.59499  0.61516  0.76908  1.0000
