data_image0
_chemical_formula_structural       Zn6H48C56O28
_chemical_formula_sum              "Zn6 H48 C56 O28"
_cell_length_a       10.6628
_cell_length_b       10.9166
_cell_length_c       16.2679
_cell_angle_alpha    106.201
_cell_angle_beta     90.0042
_cell_angle_gamma    119.241

_space_group_name_H-M_alt    "P 1"
_space_group_IT_number       1

loop_
  _space_group_symop_operation_xyz
  'x, y, z'

loop_
  _atom_site_type_symbol
  _atom_site_label
  _atom_site_symmetry_multiplicity
  _atom_site_fract_x
  _atom_site_fract_y
  _atom_site_fract_z
  _atom_site_occupancy
  Zn  Zn1       1.0  0.72918  0.13429  0.90983  1.0000
  Zn  Zn2       1.0  0.59500  0.86575  0.59013  1.0000
  Zn  Zn3       1.0  0.27082  0.86571  0.09017  1.0000
  Zn  Zn4       1.0  0.40500  0.13425  0.40987  1.0000
  Zn  Zn5       1.0  1.00000  0.50000  1.00000  1.0000
  Zn  Zn6       1.0  0.50000  0.50000  0.50000  1.0000
  H   H1        1.0  0.90251  0.03649  0.68224  1.0000
  H   H2        1.0  0.86593  0.96349  0.81792  1.0000
  H   H3        1.0  0.09749  0.96351  0.31776  1.0000
  H   H4        1.0  0.13407  0.03651  0.18208  1.0000
  H   H5        1.0  0.05486  0.02183  0.56790  1.0000
  H   H6        1.0  0.03304  0.97813  0.93219  1.0000
  H   H7        1.0  0.94514  0.97817  0.43210  1.0000
  H   H8        1.0  0.96696  0.02186  0.06781  1.0000
  H   H9        1.0  0.39678  0.46534  0.70641  1.0000
  H   H10       1.0  0.93153  0.53475  0.79355  1.0000
  H   H11       1.0  0.60322  0.53466  0.29359  1.0000
  H   H12       1.0  0.06847  0.46525  0.20645  1.0000
  H   H13       1.0  0.24663  0.47641  0.82502  1.0000
  H   H14       1.0  0.77019  0.52369  0.67501  1.0000
  H   H15       1.0  0.75337  0.52359  0.17498  1.0000
  H   H16       1.0  0.22981  0.47631  0.32499  1.0000
  H   H17       1.0  0.75158  0.63693  0.96886  1.0000
  H   H18       1.0  0.11452  0.36292  0.53106  1.0000
  H   H19       1.0  0.24842  0.36307  0.03114  1.0000
  H   H20       1.0  0.88548  0.63708  0.46894  1.0000
  H   H21       1.0  0.39013  0.23367  0.98726  1.0000
  H   H22       1.0  0.15663  0.76631  0.51274  1.0000
  H   H23       1.0  0.60987  0.76633  0.01274  1.0000
  H   H24       1.0  0.84337  0.23369  0.48726  1.0000
  H   H25       1.0  0.61119  0.87720  0.78308  1.0000
  H   H26       1.0  0.73398  0.12284  0.71692  1.0000
  H   H27       1.0  0.38881  0.12280  0.21692  1.0000
  H   H28       1.0  0.26602  0.87716  0.28308  1.0000
  H   H29       1.0  0.43989  0.73219  0.86647  1.0000
  H   H30       1.0  0.70770  0.26776  0.63349  1.0000
  H   H31       1.0  0.56011  0.26781  0.13353  1.0000
  H   H32       1.0  0.29230  0.73224  0.36651  1.0000
  H   H33       1.0  0.42616  0.89179  0.91242  1.0000
  H   H34       1.0  0.53436  0.10813  0.58750  1.0000
  H   H35       1.0  0.57384  0.10821  0.08758  1.0000
  H   H36       1.0  0.46564  0.89187  0.41250  1.0000
  H   H37       1.0  0.32593  0.87011  0.76619  1.0000
  H   H38       1.0  0.45571  0.12977  0.73371  1.0000
  H   H39       1.0  0.67407  0.12990  0.23381  1.0000
  H   H40       1.0  0.54430  0.87023  0.26629  1.0000
  H   H41       1.0  0.21941  0.70079  0.78910  1.0000
  H   H42       1.0  0.51853  0.29910  0.71080  1.0000
  H   H43       1.0  0.78059  0.29921  0.21090  1.0000
  H   H44       1.0  0.48147  0.70090  0.28920  1.0000
  H   H45       1.0  0.34724  0.71439  0.71746  1.0000
  H   H46       1.0  0.63274  0.28551  0.78245  1.0000
  H   H47       1.0  0.65276  0.28561  0.28254  1.0000
  H   H48       1.0  0.36726  0.71449  0.21755  1.0000
  C   C1        1.0  0.06561  0.25812  0.75988  1.0000
  C   C2        1.0  0.80737  0.74188  0.74020  1.0000
  C   C3        1.0  0.93439  0.74188  0.24012  1.0000
  C   C4        1.0  0.19263  0.25812  0.25979  1.0000
  C   C5        1.0  0.01073  0.13005  0.68746  1.0000
  C   C6        1.0  0.88057  0.86991  0.81265  1.0000
  C   C7        1.0  0.98927  0.86995  0.31254  1.0000
  C   C8        1.0  0.11943  0.13009  0.18735  1.0000
  C   C9        1.0  0.09561  0.12167  0.62367  1.0000
  C   C10       1.0  0.97391  0.87832  0.87641  1.0000
  C   C11       1.0  0.90439  0.87834  0.37633  1.0000
  C   C12       1.0  0.02609  0.12168  0.12359  1.0000
  C   C13       1.0  0.23474  0.24299  0.63078  1.0000
  C   C14       1.0  0.99178  0.75704  0.86925  1.0000
  C   C15       1.0  0.76526  0.75700  0.36922  1.0000
  C   C16       1.0  0.00822  0.24296  0.13075  1.0000
  C   C17       1.0  0.28909  0.37187  0.70288  1.0000
  C   C18       1.0  0.91725  0.62819  0.79713  1.0000
  C   C19       1.0  0.71091  0.62813  0.29712  1.0000
  C   C20       1.0  0.08275  0.37181  0.20287  1.0000
  C   C21       1.0  0.20589  0.37872  0.76775  1.0000
  C   C22       1.0  0.82713  0.62134  0.73229  1.0000
  C   C23       1.0  0.79411  0.62128  0.23225  1.0000
  C   C24       1.0  0.17287  0.37866  0.26771  1.0000
  C   C25       1.0  0.97859  0.26649  0.83061  1.0000
  C   C26       1.0  0.71206  0.73356  0.66945  1.0000
  C   C27       1.0  0.02141  0.73351  0.16939  1.0000
  C   C28       1.0  0.28794  0.26644  0.33055  1.0000
  C   C29       1.0  0.32570  0.23841  0.56174  1.0000
  C   C30       1.0  0.08738  0.76165  0.93829  1.0000
  C   C31       1.0  0.67430  0.76159  0.43826  1.0000
  C   C32       1.0  0.91262  0.23835  0.06171  1.0000
  C   C33       1.0  0.57931  0.42850  0.97570  1.0000
  C   C34       1.0  0.15082  0.57140  0.52424  1.0000
  C   C35       1.0  0.42069  0.57150  0.02430  1.0000
  C   C36       1.0  0.84918  0.42860  0.47576  1.0000
  C   C37       1.0  0.64135  0.57845  0.98259  1.0000
  C   C38       1.0  0.06284  0.42147  0.51735  1.0000
  C   C39       1.0  0.35865  0.42155  0.01741  1.0000
  C   C40       1.0  0.93716  0.57853  0.48264  1.0000
  C   C41       1.0  0.43739  0.35024  0.99317  1.0000
  C   C42       1.0  0.08724  0.64974  0.50682  1.0000
  C   C43       1.0  0.56261  0.64976  0.00683  1.0000
  C   C44       1.0  0.91276  0.35026  0.49318  1.0000
  C   C45       1.0  0.66576  0.35419  0.95007  1.0000
  C   C46       1.0  0.31160  0.64567  0.54987  1.0000
  C   C47       1.0  0.33424  0.64581  0.04993  1.0000
  C   C48       1.0  0.68840  0.35433  0.45013  1.0000
  C   C49       1.0  0.44188  0.82645  0.85301  1.0000
  C   C50       1.0  0.61538  0.17349  0.64694  1.0000
  C   C51       1.0  0.55812  0.17355  0.14699  1.0000
  C   C52       1.0  0.38462  0.82651  0.35306  1.0000
  C   C53       1.0  0.32730  0.77571  0.77683  1.0000
  C   C54       1.0  0.55150  0.22421  0.72309  1.0000
  C   C55       1.0  0.67270  0.22429  0.22317  1.0000
  C   C56       1.0  0.44850  0.77579  0.27691  1.0000
  O   O1        1.0  0.04361  0.35692  0.90472  1.0000
  O   O2        1.0  0.68668  0.64317  0.59534  1.0000
  O   O3        1.0  0.95639  0.64308  0.09528  1.0000
  O   O4        1.0  0.31332  0.35683  0.40466  1.0000
  O   O5        1.0  0.83843  0.17467  0.81161  1.0000
  O   O6        1.0  0.66377  0.82541  0.68840  1.0000
  O   O7        1.0  0.16157  0.82533  0.18839  1.0000
  O   O8        1.0  0.33623  0.17459  0.31160  1.0000
  O   O9        1.0  0.44866  0.35280  0.56909  1.0000
  O   O10       1.0  0.09596  0.64727  0.93094  1.0000
  O   O11       1.0  0.55133  0.64720  0.43091  1.0000
  O   O12       1.0  0.90404  0.35273  0.06906  1.0000
  O   O13       1.0  0.27514  0.11719  0.49779  1.0000
  O   O14       1.0  0.15799  0.88284  0.00227  1.0000
  O   O15       1.0  0.72486  0.88281  0.50221  1.0000
  O   O16       1.0  0.84201  0.11716  0.99773  1.0000
  O   O17       1.0  0.79251  0.42633  0.93307  1.0000
  O   O18       1.0  0.36615  0.57352  0.56691  1.0000
  O   O19       1.0  0.20749  0.57367  0.06693  1.0000
  O   O20       1.0  0.63385  0.42648  0.43309  1.0000
  O   O21       1.0  0.60352  0.21609  0.94462  1.0000
  O   O22       1.0  0.38750  0.78376  0.55530  1.0000
  O   O23       1.0  0.39648  0.78391  0.05538  1.0000
  O   O24       1.0  0.61250  0.21624  0.44470  1.0000
  O   O25       1.0  0.58718  0.92230  0.83870  1.0000
  O   O26       1.0  0.66479  0.07765  0.66132  1.0000
  O   O27       1.0  0.41282  0.07770  0.16130  1.0000
  O   O28       1.0  0.33521  0.92235  0.33868  1.0000
