data_image0
_chemical_formula_structural       K4H2C6N6O6
_chemical_formula_sum              "K4 H2 C6 N6 O6"
_cell_length_a       6.63493
_cell_length_b       6.87477
_cell_length_c       7.36139
_cell_angle_alpha    89.9997
_cell_angle_beta     116.786
_cell_angle_gamma    90.0005

_space_group_name_H-M_alt    "P 1"
_space_group_IT_number       1

loop_
  _space_group_symop_operation_xyz
  'x, y, z'

loop_
  _atom_site_type_symbol
  _atom_site_label
  _atom_site_symmetry_multiplicity
  _atom_site_fract_x
  _atom_site_fract_y
  _atom_site_fract_z
  _atom_site_occupancy
  K   K1        1.0  0.82254  0.49999  0.64516  1.0000
  K   K2        1.0  0.17748  0.99998  0.35484  1.0000
  K   K3        1.0  0.17746  0.50001  0.35484  1.0000
  K   K4        1.0  0.82254  0.00002  0.64517  1.0000
  H   H1        1.0  0.79523  0.25000  0.00004  1.0000
  H   H2        1.0  0.20477  0.75000  0.99996  1.0000
  C   C1        1.0  0.63330  0.25000  0.18503  1.0000
  C   C2        1.0  0.36670  0.75000  0.81497  1.0000
  C   C3        1.0  0.44832  0.25000  0.81514  1.0000
  C   C4        1.0  0.55168  0.75000  0.18486  1.0000
  C   C5        1.0  0.24360  0.25000  0.00011  1.0000
  C   C6        1.0  0.75640  0.75000  0.99989  1.0000
  N   N1        1.0  0.63997  0.25000  0.00007  1.0000
  N   N2        1.0  0.36002  0.75000  0.99992  1.0000
  N   N3        1.0  0.43064  0.25000  0.18521  1.0000
  N   N4        1.0  0.56936  0.75000  0.81479  1.0000
  N   N5        1.0  0.24549  0.25000  0.81498  1.0000
  N   N6        1.0  0.75451  0.75000  0.18502  1.0000
  O   O1        1.0  0.81980  0.25000  0.34639  1.0000
  O   O2        1.0  0.18020  0.75000  0.65362  1.0000
  O   O3        1.0  0.47342  0.25000  0.65375  1.0000
  O   O4        1.0  0.52658  0.75000  0.34625  1.0000
  O   O5        1.0  0.04972  0.25000  0.00015  1.0000
  O   O6        1.0  0.95028  0.75000  0.99985  1.0000
