data_image0
_chemical_formula_structural       K2H28C12I2N8O2
_chemical_formula_sum              "K2 H28 C12 I2 N8 O2"
_cell_length_a       6.79915
_cell_length_b       9.50977
_cell_length_c       10.0439
_cell_angle_alpha    65.2951
_cell_angle_beta     70.2231
_cell_angle_gamma    69.0439

_space_group_name_H-M_alt    "P 1"
_space_group_IT_number       1

loop_
  _space_group_symop_operation_xyz
  'x, y, z'

loop_
  _atom_site_type_symbol
  _atom_site_label
  _atom_site_symmetry_multiplicity
  _atom_site_fract_x
  _atom_site_fract_y
  _atom_site_fract_z
  _atom_site_occupancy
  K   K1        1.0  0.97671  0.33553  0.71091  1.0000
  K   K2        1.0  0.02332  0.66448  0.28907  1.0000
  H   H1        1.0  0.04811  0.28767  0.38407  1.0000
  H   H2        1.0  0.71946  0.71219  0.61604  1.0000
  H   H3        1.0  0.95189  0.71233  0.61593  1.0000
  H   H4        1.0  0.28055  0.28781  0.38395  1.0000
  H   H5        1.0  0.93236  0.88010  0.98908  1.0000
  H   H6        1.0  0.80170  0.12003  0.01086  1.0000
  H   H7        1.0  0.06763  0.11990  0.01092  1.0000
  H   H8        1.0  0.19829  0.87997  0.98914  1.0000
  H   H9        1.0  0.89113  0.68859  0.91405  1.0000
  H   H10       1.0  0.49406  0.31164  0.08588  1.0000
  H   H11       1.0  0.10887  0.31141  0.08595  1.0000
  H   H12       1.0  0.50594  0.68836  0.91413  1.0000
  H   H13       1.0  0.12496  0.54309  0.85640  1.0000
  H   H14       1.0  0.52491  0.45709  0.14351  1.0000
  H   H15       1.0  0.87504  0.45691  0.14360  1.0000
  H   H16       1.0  0.47510  0.54291  0.85649  1.0000
  H   H17       1.0  0.02200  0.02622  0.58285  1.0000
  H   H18       1.0  0.63108  0.97392  0.41702  1.0000
  H   H19       1.0  0.97800  0.97378  0.41715  1.0000
  H   H20       1.0  0.36892  0.02608  0.58298  1.0000
  H   H21       1.0  0.83201  0.96508  0.75606  1.0000
  H   H22       1.0  0.55330  0.03539  0.24368  1.0000
  H   H23       1.0  0.16799  0.03492  0.24394  1.0000
  H   H24       1.0  0.44670  0.96462  0.75632  1.0000
  H   H25       1.0  0.37556  0.62339  0.62484  1.0000
  H   H26       1.0  0.62444  0.37661  0.37516  1.0000
  H   H27       1.0  0.33363  0.82774  0.50455  1.0000
  H   H28       1.0  0.66636  0.17226  0.49545  1.0000
  C   C1        1.0  0.10423  0.85982  0.93149  1.0000
  C   C2        1.0  0.89577  0.14018  0.06851  1.0000
  C   C3        1.0  0.06274  0.66684  0.85641  1.0000
  C   C4        1.0  0.58635  0.33332  0.14353  1.0000
  C   C5        1.0  0.93726  0.33316  0.14359  1.0000
  C   C6        1.0  0.41365  0.66668  0.85647  1.0000
  C   C7        1.0  0.00381  0.94273  0.69913  1.0000
  C   C8        1.0  0.64589  0.05747  0.30077  1.0000
  C   C9        1.0  0.99618  0.05727  0.30087  1.0000
  C   C10       1.0  0.35411  0.94253  0.69923  1.0000
  C   C11       1.0  0.31442  0.74813  0.62247  1.0000
  C   C12       1.0  0.68558  0.25187  0.37753  1.0000
  I   I1        1.0  0.47062  0.25414  0.80503  1.0000
  I   I2        1.0  0.52939  0.74585  0.19497  1.0000
  N   N1        1.0  0.12463  0.97424  0.77629  1.0000
  N   N2        1.0  0.87537  0.02576  0.22371  1.0000
  N   N3        1.0  0.18535  0.69204  0.93690  1.0000
  N   N4        1.0  0.81465  0.30796  0.06310  1.0000
  N   N5        1.0  0.08318  0.77650  0.69784  1.0000
  N   N6        1.0  0.55788  0.22369  0.30211  1.0000
  N   N7        1.0  0.91682  0.22350  0.30217  1.0000
  N   N8        1.0  0.44211  0.77631  0.69789  1.0000
  O   O1        1.0  0.12263  0.33240  0.42270  1.0000
  O   O2        1.0  0.87737  0.66760  0.57730  1.0000
