data_image0
_chemical_formula_structural       Rb2H28C12I2N8O2
_chemical_formula_sum              "Rb2 H28 C12 I2 N8 O2"
_cell_length_a       6.91431
_cell_length_b       9.60246
_cell_length_c       10.1904
_cell_angle_alpha    65.9937
_cell_angle_beta     70.169
_cell_angle_gamma    68.9054

_space_group_name_H-M_alt    "P 1"
_space_group_IT_number       1

loop_
  _space_group_symop_operation_xyz
  'x, y, z'

loop_
  _atom_site_type_symbol
  _atom_site_label
  _atom_site_symmetry_multiplicity
  _atom_site_fract_x
  _atom_site_fract_y
  _atom_site_fract_z
  _atom_site_occupancy
  Rb  Rb1       1.0  0.52677  0.16019  0.78634  1.0000
  Rb  Rb2       1.0  0.47323  0.83981  0.21366  1.0000
  H   H1        1.0  0.78666  0.77806  0.88026  1.0000
  H   H2        1.0  0.44458  0.22191  0.11974  1.0000
  H   H3        1.0  0.21334  0.22194  0.11974  1.0000
  H   H4        1.0  0.55542  0.77809  0.88026  1.0000
  H   H5        1.0  0.13280  0.47919  0.91332  1.0000
  H   H6        1.0  0.52522  0.52073  0.08661  1.0000
  H   H7        1.0  0.86720  0.52081  0.08668  1.0000
  H   H8        1.0  0.47478  0.47927  0.91339  1.0000
  H   H9        1.0  0.05838  0.53601  0.74313  1.0000
  H   H10       1.0  0.33717  0.46399  0.25673  1.0000
  H   H11       1.0  0.94162  0.46399  0.25687  1.0000
  H   H12       1.0  0.66283  0.53600  0.74327  1.0000
  H   H13       1.0  0.00016  0.80865  0.58677  1.0000
  H   H14       1.0  0.39536  0.19118  0.41323  1.0000
  H   H15       1.0  0.99984  0.19136  0.41323  1.0000
  H   H16       1.0  0.60464  0.80882  0.58677  1.0000
  H   H17       1.0  0.03000  0.95365  0.64323  1.0000
  H   H18       1.0  0.62670  0.04630  0.35673  1.0000
  H   H19       1.0  0.97000  0.04635  0.35677  1.0000
  H   H20       1.0  0.37330  0.95370  0.64327  1.0000
  H   H21       1.0  0.56551  0.61606  0.51515  1.0000
  H   H22       1.0  0.69617  0.38402  0.48485  1.0000
  H   H23       1.0  0.43449  0.38394  0.48485  1.0000
  H   H24       1.0  0.30383  0.61598  0.51515  1.0000
  H   H25       1.0  0.16653  0.67811  0.98910  1.0000
  H   H26       1.0  0.83347  0.32189  0.01090  1.0000
  H   H27       1.0  0.12605  0.87843  0.86978  1.0000
  H   H28       1.0  0.87395  0.12157  0.13022  1.0000
  C   C1        1.0  0.14846  0.55961  0.79898  1.0000
  C   C2        1.0  0.50672  0.44035  0.20096  1.0000
  C   C3        1.0  0.85154  0.44039  0.20102  1.0000
  C   C4        1.0  0.49327  0.55965  0.79904  1.0000
  C   C5        1.0  0.09033  0.83071  0.64368  1.0000
  C   C6        1.0  0.56449  0.16923  0.35630  1.0000
  C   C7        1.0  0.90967  0.16930  0.35632  1.0000
  C   C8        1.0  0.43551  0.83077  0.64370  1.0000
  C   C9        1.0  0.39589  0.63736  0.57132  1.0000
  C   C10       1.0  0.60410  0.36264  0.42868  1.0000
  C   C11       1.0  0.18632  0.75450  0.87321  1.0000
  C   C12       1.0  0.81368  0.24550  0.12679  1.0000
  I   I1        1.0  0.03176  0.25222  0.68432  1.0000
  I   I2        1.0  0.96823  0.74778  0.31567  1.0000
  N   N1        1.0  0.37480  0.52711  0.72372  1.0000
  N   N2        1.0  0.62520  0.47289  0.27628  1.0000
  N   N3        1.0  0.06123  0.72477  0.79953  1.0000
  N   N4        1.0  0.58519  0.27518  0.20046  1.0000
  N   N5        1.0  0.93877  0.27523  0.20047  1.0000
  N   N6        1.0  0.41481  0.72482  0.79954  1.0000
  N   N7        1.0  0.31555  0.80393  0.56530  1.0000
  N   N8        1.0  0.68445  0.19607  0.43470  1.0000
  O   O1        1.0  0.63062  0.81715  0.92201  1.0000
  O   O2        1.0  0.36938  0.18285  0.07799  1.0000
