data_image0
_chemical_formula_structural       Nd4Ag2H28C48N2O32
_chemical_formula_sum              "Nd4 Ag2 H28 C48 N2 O32"
_cell_length_a       8.59022
_cell_length_b       11.7217
_cell_length_c       13.4769
_cell_angle_alpha    103.591
_cell_angle_beta     98.3302
_cell_angle_gamma    99.144

_space_group_name_H-M_alt    "P 1"
_space_group_IT_number       1

loop_
  _space_group_symop_operation_xyz
  'x, y, z'

loop_
  _atom_site_type_symbol
  _atom_site_label
  _atom_site_symmetry_multiplicity
  _atom_site_fract_x
  _atom_site_fract_y
  _atom_site_fract_z
  _atom_site_occupancy
  Nd  Nd1       1.0  0.54778  0.38409  0.09974  1.0000
  Nd  Nd2       1.0  0.45221  0.61591  0.90026  1.0000
  Nd  Nd3       1.0  0.81735  0.11676  0.11302  1.0000
  Nd  Nd4       1.0  0.18265  0.88324  0.88698  1.0000
  Ag  Ag1       1.0  0.06496  0.45446  0.18090  1.0000
  Ag  Ag2       1.0  0.93504  0.54554  0.81910  1.0000
  H   H1        1.0  0.34393  0.17192  0.90161  1.0000
  H   H2        1.0  0.65607  0.82808  0.09838  1.0000
  H   H3        1.0  0.24216  0.23388  0.98021  1.0000
  H   H4        1.0  0.75784  0.76611  0.01979  1.0000
  H   H5        1.0  0.73696  0.64509  0.13722  1.0000
  H   H6        1.0  0.26303  0.35491  0.86278  1.0000
  H   H7        1.0  0.84923  0.56892  0.08875  1.0000
  H   H8        1.0  0.15077  0.43108  0.91126  1.0000
  H   H9        1.0  0.91072  0.05327  0.68250  1.0000
  H   H10       1.0  0.08928  0.94673  0.31751  1.0000
  H   H11       1.0  0.72996  0.13775  0.56762  1.0000
  H   H12       1.0  0.27004  0.86225  0.43239  1.0000
  H   H13       1.0  0.58199  0.29029  0.64958  1.0000
  H   H14       1.0  0.41801  0.70970  0.35042  1.0000
  H   H15       1.0  0.56294  0.02781  0.44509  1.0000
  H   H16       1.0  0.43706  0.97219  0.55491  1.0000
  H   H17       1.0  0.38019  0.15802  0.52156  1.0000
  H   H18       1.0  0.61982  0.84198  0.47844  1.0000
  H   H19       1.0  0.21800  0.25177  0.40466  1.0000
  H   H20       1.0  0.78200  0.74823  0.59534  1.0000
  H   H21       1.0  0.98556  0.27977  0.45640  1.0000
  H   H22       1.0  0.01445  0.72024  0.54360  1.0000
  H   H23       1.0  0.06273  0.37568  0.65022  1.0000
  H   H24       1.0  0.93727  0.62432  0.34978  1.0000
  H   H25       1.0  0.68586  0.55665  0.64171  1.0000
  H   H26       1.0  0.31414  0.44335  0.35828  1.0000
  H   H27       1.0  0.61247  0.48381  0.44639  1.0000
  H   H28       1.0  0.38753  0.51619  0.55361  1.0000
  C   C1        1.0  0.60783  0.40218  0.84363  1.0000
  C   C2        1.0  0.39216  0.59782  0.15637  1.0000
  C   C3        1.0  0.86720  0.32255  0.98271  1.0000
  C   C4        1.0  0.13279  0.67745  0.01730  1.0000
  C   C5        1.0  0.97138  0.10603  0.88800  1.0000
  C   C6        1.0  0.02862  0.89397  0.11201  1.0000
  C   C7        1.0  0.69750  0.30625  0.80497  1.0000
  C   C8        1.0  0.30250  0.69375  0.19504  1.0000
  C   C9        1.0  0.80732  0.26363  0.86874  1.0000
  C   C10       1.0  0.19268  0.73637  0.13127  1.0000
  C   C11       1.0  0.87684  0.16799  0.82283  1.0000
  C   C12       1.0  0.12316  0.83201  0.17718  1.0000
  C   C13       1.0  0.85115  0.12490  0.71478  1.0000
  C   C14       1.0  0.14885  0.87510  0.28523  1.0000
  C   C15       1.0  0.74911  0.17086  0.65171  1.0000
  C   C16       1.0  0.25089  0.82914  0.34830  1.0000
  C   C17       1.0  0.66820  0.25679  0.69681  1.0000
  C   C18       1.0  0.33180  0.74320  0.30320  1.0000
  C   C19       1.0  0.22790  0.24584  0.20583  1.0000
  C   C20       1.0  0.77211  0.75416  0.79417  1.0000
  C   C21       1.0  0.42879  0.09279  0.11694  1.0000
  C   C22       1.0  0.57121  0.90720  0.88306  1.0000
  C   C23       1.0  0.60843  0.96429  0.25357  1.0000
  C   C24       1.0  0.39157  0.03570  0.74643  1.0000
  C   C25       1.0  0.31951  0.18291  0.27183  1.0000
  C   C26       1.0  0.68049  0.81709  0.72817  1.0000
  C   C27       1.0  0.42282  0.11036  0.23068  1.0000
  C   C28       1.0  0.57718  0.88964  0.76932  1.0000
  C   C29       1.0  0.50816  0.05310  0.29440  1.0000
  C   C30       1.0  0.49184  0.94690  0.70559  1.0000
  C   C31       1.0  0.49441  0.07406  0.39889  1.0000
  C   C32       1.0  0.50560  0.92594  0.60110  1.0000
  C   C33       1.0  0.39300  0.14612  0.44052  1.0000
  C   C34       1.0  0.60701  0.85389  0.55948  1.0000
  C   C35       1.0  0.30256  0.19816  0.37566  1.0000
  C   C36       1.0  0.69744  0.80184  0.62433  1.0000
  C   C37       1.0  0.75334  0.32783  0.32101  1.0000
  C   C38       1.0  0.24666  0.67218  0.67899  1.0000
  C   C39       1.0  0.79391  0.37569  0.43764  1.0000
  C   C40       1.0  0.20609  0.62432  0.56236  1.0000
  C   C41       1.0  0.92033  0.34366  0.49551  1.0000
  C   C42       1.0  0.07967  0.65635  0.50449  1.0000
  C   C43       1.0  0.96184  0.39507  0.60231  1.0000
  C   C44       1.0  0.03816  0.60493  0.39768  1.0000
  C   C45       1.0  0.75315  0.49881  0.59732  1.0000
  C   C46       1.0  0.24685  0.50119  0.40268  1.0000
  C   C47       1.0  0.70970  0.45575  0.48998  1.0000
  C   C48       1.0  0.29030  0.54425  0.51002  1.0000
  N   N1        1.0  0.87884  0.47093  0.65267  1.0000
  N   N2        1.0  0.12116  0.52907  0.34733  1.0000
  O   O1        1.0  0.61061  0.44278  0.94197  1.0000
  O   O2        1.0  0.38939  0.55722  0.05803  1.0000
  O   O3        1.0  0.52947  0.44465  0.77873  1.0000
  O   O4        1.0  0.47053  0.55534  0.22127  1.0000
  O   O5        1.0  0.78052  0.30147  0.04973  1.0000
  O   O6        1.0  0.21948  0.69853  0.95028  1.0000
  O   O7        1.0  0.00296  0.39176  0.00854  1.0000
  O   O8        1.0  0.99704  0.60824  0.99146  1.0000
  O   O9        1.0  0.99041  0.14181  0.98700  1.0000
  O   O10       1.0  0.00959  0.85819  0.01300  1.0000
  O   O11       1.0  0.02791  0.01992  0.84100  1.0000
  O   O12       1.0  0.97209  0.98008  0.15901  1.0000
  O   O13       1.0  0.30341  0.30561  0.15337  1.0000
  O   O14       1.0  0.69659  0.69438  0.84662  1.0000
  O   O15       1.0  0.08032  0.24203  0.20878  1.0000
  O   O16       1.0  0.91968  0.75798  0.79122  1.0000
  O   O17       1.0  0.54006  0.16241  0.09224  1.0000
  O   O18       1.0  0.45994  0.83759  0.90776  1.0000
  O   O19       1.0  0.31720  0.01787  0.05287  1.0000
  O   O20       1.0  0.68280  0.98213  0.94713  1.0000
  O   O21       1.0  0.63744  0.96201  0.16021  1.0000
  O   O22       1.0  0.36256  0.03798  0.83979  1.0000
  O   O23       1.0  0.65340  0.89758  0.30616  1.0000
  O   O24       1.0  0.34658  0.10241  0.69383  1.0000
  O   O25       1.0  0.67708  0.38762  0.27097  1.0000
  O   O26       1.0  0.32292  0.61238  0.72902  1.0000
  O   O27       1.0  0.80135  0.23351  0.28266  1.0000
  O   O28       1.0  0.19865  0.76650  0.71734  1.0000
  O   O29       1.0  0.33062  0.25310  0.94430  1.0000
  O   O30       1.0  0.66938  0.74690  0.05569  1.0000
  O   O31       1.0  0.77895  0.57188  0.14064  1.0000
  O   O32       1.0  0.22104  0.42812  0.85936  1.0000
