data_image0
_chemical_formula_structural       La4Ag2H28C48N2O32
_chemical_formula_sum              "La4 Ag2 H28 C48 N2 O32"
_cell_length_a       8.67521
_cell_length_b       11.8726
_cell_length_c       13.4838
_cell_angle_alpha    103.852
_cell_angle_beta     97.9777
_cell_angle_gamma    99.1161

_space_group_name_H-M_alt    "P 1"
_space_group_IT_number       1

loop_
  _space_group_symop_operation_xyz
  'x, y, z'

loop_
  _atom_site_type_symbol
  _atom_site_label
  _atom_site_symmetry_multiplicity
  _atom_site_fract_x
  _atom_site_fract_y
  _atom_site_fract_z
  _atom_site_occupancy
  La  La1       1.0  0.95194  0.11465  0.39856  1.0000
  La  La2       1.0  0.04806  0.88535  0.60144  1.0000
  La  La3       1.0  0.68228  0.38518  0.38610  1.0000
  La  La4       1.0  0.31772  0.61482  0.61389  1.0000
  Ag  Ag1       1.0  0.43541  0.04854  0.32252  1.0000
  Ag  Ag2       1.0  0.56459  0.95147  0.67748  1.0000
  H   H1        1.0  0.25861  0.27045  0.52311  1.0000
  H   H2        1.0  0.74139  0.72955  0.47689  1.0000
  H   H3        1.0  0.15588  0.32929  0.60178  1.0000
  H   H4        1.0  0.84413  0.67071  0.39822  1.0000
  H   H5        1.0  0.64629  0.92670  0.40898  1.0000
  H   H6        1.0  0.35371  0.07330  0.59102  1.0000
  H   H7        1.0  0.76148  0.85159  0.36428  1.0000
  H   H8        1.0  0.23852  0.14841  0.63572  1.0000
  H   H9        1.0  0.59186  0.44705  0.81994  1.0000
  H   H10       1.0  0.40815  0.55295  0.18006  1.0000
  H   H11       1.0  0.76997  0.36382  0.93442  1.0000
  H   H12       1.0  0.23004  0.63618  0.06558  1.0000
  H   H13       1.0  0.91463  0.21132  0.85197  1.0000
  H   H14       1.0  0.08537  0.78868  0.14803  1.0000
  H   H15       1.0  0.94540  0.46977  0.05340  1.0000
  H   H16       1.0  0.05460  0.53023  0.94660  1.0000
  H   H17       1.0  0.12671  0.34090  0.97726  1.0000
  H   H18       1.0  0.87329  0.65910  0.02274  1.0000
  H   H19       1.0  0.28562  0.24810  0.09445  1.0000
  H   H20       1.0  0.71438  0.75190  0.90555  1.0000
  H   H21       1.0  0.88578  0.01606  0.04877  1.0000
  H   H22       1.0  0.11422  0.98394  0.95123  1.0000
  H   H23       1.0  0.81318  0.94305  0.85375  1.0000
  H   H24       1.0  0.18682  0.05696  0.14625  1.0000
  H   H25       1.0  0.43850  0.12047  0.84639  1.0000
  H   H26       1.0  0.56150  0.87953  0.15361  1.0000
  H   H27       1.0  0.51411  0.21575  0.04004  1.0000
  H   H28       1.0  0.48588  0.78424  0.95996  1.0000
  C   C1        1.0  0.88916  0.09971  0.65798  1.0000
  C   C2        1.0  0.11084  0.90029  0.34202  1.0000
  C   C3        1.0  0.63350  0.17817  0.51939  1.0000
  C   C4        1.0  0.36649  0.82183  0.48061  1.0000
  C   C5        1.0  0.52898  0.39265  0.61500  1.0000
  C   C6        1.0  0.47102  0.60735  0.38500  1.0000
  C   C7        1.0  0.80047  0.19483  0.69684  1.0000
  C   C8        1.0  0.19953  0.80517  0.30317  1.0000
  C   C9        1.0  0.69213  0.23681  0.63332  1.0000
  C   C10       1.0  0.30787  0.76319  0.36668  1.0000
  C   C11       1.0  0.62353  0.33181  0.67943  1.0000
  C   C12       1.0  0.37648  0.66819  0.32057  1.0000
  C   C13       1.0  0.64989  0.37554  0.78745  1.0000
  C   C14       1.0  0.35011  0.62445  0.21255  1.0000
  C   C15       1.0  0.75042  0.33022  0.85032  1.0000
  C   C16       1.0  0.24959  0.66978  0.14968  1.0000
  C   C17       1.0  0.82955  0.24433  0.80494  1.0000
  C   C18       1.0  0.17045  0.75568  0.19506  1.0000
  C   C19       1.0  0.27279  0.25429  0.29249  1.0000
  C   C20       1.0  0.72720  0.74572  0.70751  1.0000
  C   C21       1.0  0.07167  0.40494  0.38093  1.0000
  C   C22       1.0  0.92832  0.59506  0.61907  1.0000
  C   C23       1.0  0.89776  0.53377  0.24416  1.0000
  C   C24       1.0  0.10224  0.46623  0.75584  1.0000
  C   C25       1.0  0.18287  0.31642  0.22665  1.0000
  C   C26       1.0  0.81713  0.68358  0.77335  1.0000
  C   C27       1.0  0.07974  0.38807  0.26755  1.0000
  C   C28       1.0  0.92026  0.61192  0.73245  1.0000
  C   C29       1.0  0.99690  0.44505  0.20393  1.0000
  C   C30       1.0  0.00310  0.55495  0.79606  1.0000
  C   C31       1.0  0.01221  0.42400  0.09961  1.0000
  C   C32       1.0  0.98778  0.57600  0.90039  1.0000
  C   C33       1.0  0.11309  0.35262  0.05816  1.0000
  C   C34       1.0  0.88691  0.64737  0.94184  1.0000
  C   C35       1.0  0.20157  0.30129  0.12309  1.0000
  C   C36       1.0  0.79843  0.69871  0.87691  1.0000
  C   C37       1.0  0.74565  0.17027  0.17472  1.0000
  C   C38       1.0  0.25434  0.82972  0.82528  1.0000
  C   C39       1.0  0.70493  0.12199  0.05827  1.0000
  C   C40       1.0  0.29507  0.87801  0.94173  1.0000
  C   C41       1.0  0.78891  0.04311  0.00563  1.0000
  C   C42       1.0  0.21109  0.95689  0.99437  1.0000
  C   C43       1.0  0.74603  1.00000  0.89836  1.0000
  C   C44       1.0  0.25397  0.00001  0.10164  1.0000
  C   C45       1.0  0.53849  0.10163  0.89403  1.0000
  C   C46       1.0  0.46151  0.89837  0.10597  1.0000
  C   C47       1.0  0.57931  0.15285  0.00076  1.0000
  C   C48       1.0  0.42069  0.84715  0.99924  1.0000
  N   N1        1.0  0.62128  0.02682  0.84336  1.0000
  N   N2        1.0  0.37872  0.97318  0.15664  1.0000
  O   O1        1.0  0.88772  0.06017  0.55965  1.0000
  O   O2        1.0  0.11228  0.93983  0.44035  1.0000
  O   O3        1.0  0.96570  0.05776  0.72291  1.0000
  O   O4        1.0  0.03431  0.94225  0.27710  1.0000
  O   O5        1.0  0.71873  0.19911  0.45215  1.0000
  O   O6        1.0  0.28127  0.80089  0.54786  1.0000
  O   O7        1.0  0.49927  0.10944  0.49410  1.0000
  O   O8        1.0  0.50073  0.89056  0.50590  1.0000
  O   O9        1.0  0.50921  0.35728  0.51588  1.0000
  O   O10       1.0  0.49079  0.64271  0.48412  1.0000
  O   O11       1.0  0.47306  0.47794  0.66266  1.0000
  O   O12       1.0  0.52694  0.52206  0.33733  1.0000
  O   O13       1.0  0.19712  0.19569  0.34495  1.0000
  O   O14       1.0  0.80288  0.80432  0.65505  1.0000
  O   O15       1.0  0.41888  0.25768  0.28965  1.0000
  O   O16       1.0  0.58111  0.74232  0.71035  1.0000
  O   O17       1.0  0.95988  0.33683  0.40480  1.0000
  O   O18       1.0  0.04012  0.66317  0.59520  1.0000
  O   O19       1.0  0.18202  0.47802  0.44583  1.0000
  O   O20       1.0  0.81798  0.52198  0.55417  1.0000
  O   O21       1.0  0.86708  0.53720  0.33734  1.0000
  O   O22       1.0  0.13292  0.46280  0.66266  1.0000
  O   O23       1.0  0.85452  0.59896  0.19086  1.0000
  O   O24       1.0  0.14548  0.40104  0.80914  1.0000
  O   O25       1.0  0.82141  0.11169  0.22484  1.0000
  O   O26       1.0  0.17858  0.88830  0.77516  1.0000
  O   O27       1.0  0.69866  0.26384  0.21332  1.0000
  O   O28       1.0  0.30134  0.73616  0.78668  1.0000
  O   O29       1.0  0.17116  0.24999  0.55876  1.0000
  O   O30       1.0  0.82885  0.75001  0.44124  1.0000
  O   O31       1.0  0.71968  0.92345  0.35910  1.0000
  O   O32       1.0  0.28032  0.07656  0.64090  1.0000
