data_image0
_chemical_formula_structural       Pr4Ag2H28C48N2O32
_chemical_formula_sum              "Pr4 Ag2 H28 C48 N2 O32"
_cell_length_a       8.62691
_cell_length_b       11.7683
_cell_length_c       13.4899
_cell_angle_alpha    103.681
_cell_angle_beta     98.3042
_cell_angle_gamma    99.1304

_space_group_name_H-M_alt    "P 1"
_space_group_IT_number       1

loop_
  _space_group_symop_operation_xyz
  'x, y, z'

loop_
  _atom_site_type_symbol
  _atom_site_label
  _atom_site_symmetry_multiplicity
  _atom_site_fract_x
  _atom_site_fract_y
  _atom_site_fract_z
  _atom_site_occupancy
  Pr  Pr1       1.0  0.45194  0.11518  0.39960  1.0000
  Pr  Pr2       1.0  0.54806  0.88482  0.60040  1.0000
  Pr  Pr3       1.0  0.18208  0.38379  0.38649  1.0000
  Pr  Pr4       1.0  0.81791  0.61621  0.61352  1.0000
  Ag  Ag1       1.0  0.93456  0.04651  0.32038  1.0000
  Ag  Ag2       1.0  0.06544  0.95349  0.67961  1.0000
  H   H1        1.0  0.75836  0.26788  0.52031  1.0000
  H   H2        1.0  0.24164  0.73212  0.47968  1.0000
  H   H3        1.0  0.65625  0.32834  0.59916  1.0000
  H   H4        1.0  0.34375  0.67165  0.40084  1.0000
  H   H5        1.0  0.14835  0.92985  0.41054  1.0000
  H   H6        1.0  0.85165  0.07015  0.58946  1.0000
  H   H7        1.0  0.26249  0.85356  0.36531  1.0000
  H   H8        1.0  0.73750  0.14644  0.63468  1.0000
  H   H9        1.0  0.08926  0.44621  0.81792  1.0000
  H   H10       1.0  0.91075  0.55379  0.18208  1.0000
  H   H11       1.0  0.26969  0.36286  0.93299  1.0000
  H   H12       1.0  0.73032  0.63715  0.06701  1.0000
  H   H13       1.0  0.41703  0.21067  0.85128  1.0000
  H   H14       1.0  0.58298  0.78933  0.14872  1.0000
  H   H15       1.0  0.43841  0.47235  0.05501  1.0000
  H   H16       1.0  0.56159  0.52766  0.94499  1.0000
  H   H17       1.0  0.61931  0.34205  0.97793  1.0000
  H   H18       1.0  0.38068  0.65795  0.02207  1.0000
  H   H19       1.0  0.78085  0.24823  0.09423  1.0000
  H   H20       1.0  0.21914  0.75177  0.90577  1.0000
  H   H21       1.0  0.01294  0.21816  0.04163  1.0000
  H   H22       1.0  0.98706  0.78184  0.95837  1.0000
  H   H23       1.0  0.93712  0.12276  0.84800  1.0000
  H   H24       1.0  0.06288  0.87724  0.15200  1.0000
  H   H25       1.0  0.31346  0.94355  0.85680  1.0000
  H   H26       1.0  0.68655  0.05646  0.14319  1.0000
  H   H27       1.0  0.38582  0.01614  0.05197  1.0000
  H   H28       1.0  0.61419  0.98387  0.94803  1.0000
  C   C1        1.0  0.39208  0.09869  0.65763  1.0000
  C   C2        1.0  0.60792  0.90131  0.34237  1.0000
  C   C3        1.0  0.13334  0.17752  0.51804  1.0000
  C   C4        1.0  0.86666  0.82248  0.48196  1.0000
  C   C5        1.0  0.02837  0.39287  0.61287  1.0000
  C   C6        1.0  0.97164  0.60714  0.38714  1.0000
  C   C7        1.0  0.30236  0.19424  0.69586  1.0000
  C   C8        1.0  0.69764  0.80575  0.30415  1.0000
  C   C9        1.0  0.19278  0.23626  0.63196  1.0000
  C   C10       1.0  0.80721  0.76373  0.36804  1.0000
  C   C11       1.0  0.12309  0.33144  0.67778  1.0000
  C   C12       1.0  0.87691  0.66856  0.32223  1.0000
  C   C13       1.0  0.14874  0.37485  0.78577  1.0000
  C   C14       1.0  0.85127  0.62515  0.21423  1.0000
  C   C15       1.0  0.25054  0.32949  0.84894  1.0000
  C   C16       1.0  0.74946  0.67051  0.15106  1.0000
  C   C17       1.0  0.33122  0.24382  0.80396  1.0000
  C   C18       1.0  0.66878  0.75618  0.19604  1.0000
  C   C19       1.0  0.77187  0.25390  0.29285  1.0000
  C   C20       1.0  0.22813  0.74610  0.70715  1.0000
  C   C21       1.0  0.57137  0.40656  0.38218  1.0000
  C   C22       1.0  0.42863  0.59343  0.61782  1.0000
  C   C23       1.0  0.39385  0.53610  0.24638  1.0000
  C   C24       1.0  0.60614  0.46390  0.75363  1.0000
  C   C25       1.0  0.68040  0.31702  0.22737  1.0000
  C   C26       1.0  0.31960  0.68298  0.77263  1.0000
  C   C27       1.0  0.57754  0.38933  0.26863  1.0000
  C   C28       1.0  0.42245  0.61067  0.73137  1.0000
  C   C29       1.0  0.49250  0.44662  0.20530  1.0000
  C   C30       1.0  0.50750  0.55338  0.79471  1.0000
  C   C31       1.0  0.50613  0.42579  0.10085  1.0000
  C   C32       1.0  0.49386  0.57421  0.89916  1.0000
  C   C33       1.0  0.60680  0.35377  0.05894  1.0000
  C   C34       1.0  0.39320  0.64622  0.94106  1.0000
  C   C35       1.0  0.69692  0.30181  0.12351  1.0000
  C   C36       1.0  0.30307  0.69819  0.87649  1.0000
  C   C37       1.0  0.24518  0.17144  0.17723  1.0000
  C   C38       1.0  0.75482  0.82856  0.82277  1.0000
  C   C39       1.0  0.20454  0.12335  0.06067  1.0000
  C   C40       1.0  0.79547  0.87665  0.93932  1.0000
  C   C41       1.0  0.07853  0.15489  0.00270  1.0000
  C   C42       1.0  0.92147  0.84511  0.99730  1.0000
  C   C43       1.0  0.03763  0.10365  0.89592  1.0000
  C   C44       1.0  0.96237  0.89635  0.10407  1.0000
  C   C45       1.0  0.24602  0.00090  0.90111  1.0000
  C   C46       1.0  0.75399  0.99911  0.09889  1.0000
  C   C47       1.0  0.28892  0.04388  0.00840  1.0000
  C   C48       1.0  0.71109  0.95613  0.99160  1.0000
  N   N1        1.0  0.12079  0.02831  0.84568  1.0000
  N   N2        1.0  0.87922  0.97169  0.15432  1.0000
  O   O1        1.0  0.39017  0.05823  0.55942  1.0000
  O   O2        1.0  0.60981  0.94177  0.44057  1.0000
  O   O3        1.0  0.46957  0.05665  0.72282  1.0000
  O   O4        1.0  0.53043  0.94335  0.27718  1.0000
  O   O5        1.0  0.21935  0.19872  0.45107  1.0000
  O   O6        1.0  0.78065  0.80128  0.54893  1.0000
  O   O7        1.0  0.99816  0.10844  0.49219  1.0000
  O   O8        1.0  0.00184  0.89156  0.50781  1.0000
  O   O9        1.0  0.00919  0.35755  0.51387  1.0000
  O   O10       1.0  0.99082  0.64245  0.48614  1.0000
  O   O11       1.0  0.97171  0.47838  0.66015  1.0000
  O   O12       1.0  0.02830  0.52163  0.33986  1.0000
  O   O13       1.0  0.69693  0.19384  0.34495  1.0000
  O   O14       1.0  0.30306  0.80616  0.65505  1.0000
  O   O15       1.0  0.91881  0.25787  0.28970  1.0000
  O   O16       1.0  0.08119  0.74213  0.71030  1.0000
  O   O17       1.0  0.45993  0.33745  0.40643  1.0000
  O   O18       1.0  0.54007  0.66255  0.59358  1.0000
  O   O19       1.0  0.68260  0.48086  0.44648  1.0000
  O   O20       1.0  0.31740  0.51913  0.55352  1.0000
  O   O21       1.0  0.36417  0.53876  0.33955  1.0000
  O   O22       1.0  0.63584  0.46124  0.66046  1.0000
  O   O23       1.0  0.35079  0.60308  0.19400  1.0000
  O   O24       1.0  0.64920  0.39691  0.80600  1.0000
  O   O25       1.0  0.32120  0.11202  0.22729  1.0000
  O   O26       1.0  0.67880  0.88798  0.77271  1.0000
  O   O27       1.0  0.19774  0.26565  0.21554  1.0000
  O   O28       1.0  0.80226  0.73436  0.78446  1.0000
  O   O29       1.0  0.67026  0.24787  0.55589  1.0000
  O   O30       1.0  0.32974  0.75213  0.44411  1.0000
  O   O31       1.0  0.22086  0.92623  0.36014  1.0000
  O   O32       1.0  0.77914  0.07378  0.63986  1.0000
