data_image0
_chemical_formula_structural       Cd2H24C16I4N4
_chemical_formula_sum              "Cd2 H24 C16 I4 N4"
_cell_length_a       7.76524
_cell_length_b       9.15198
_cell_length_c       9.15201
_cell_angle_alpha    74.4792
_cell_angle_beta     85.2494
_cell_angle_gamma    85.2493

_space_group_name_H-M_alt    "P 1"
_space_group_IT_number       1

loop_
  _space_group_symop_operation_xyz
  'x, y, z'

loop_
  _atom_site_type_symbol
  _atom_site_label
  _atom_site_symmetry_multiplicity
  _atom_site_fract_x
  _atom_site_fract_y
  _atom_site_fract_z
  _atom_site_occupancy
  Cd  Cd1       1.0  0.25000  0.93548  0.06452  1.0000
  Cd  Cd2       1.0  0.75000  0.06452  0.93548  1.0000
  H   H1        1.0  0.11026  0.69175  0.04056  1.0000
  H   H2        1.0  0.38974  0.95945  0.30826  1.0000
  H   H3        1.0  0.88974  0.30825  0.95944  1.0000
  H   H4        1.0  0.61026  0.04056  0.69174  1.0000
  H   H5        1.0  0.96919  0.55779  0.15455  1.0000
  H   H6        1.0  0.53081  0.84546  0.44222  1.0000
  H   H7        1.0  0.03081  0.44221  0.84545  1.0000
  H   H8        1.0  0.46919  0.15454  0.55778  1.0000
  H   H9        1.0  0.17333  0.49422  0.08419  1.0000
  H   H10       1.0  0.32666  0.91581  0.50578  1.0000
  H   H11       1.0  0.82667  0.50578  0.91581  1.0000
  H   H12       1.0  0.67333  0.08419  0.49422  1.0000
  H   H13       1.0  0.13341  0.23444  0.50279  1.0000
  H   H14       1.0  0.36660  0.49721  0.76557  1.0000
  H   H15       1.0  0.86659  0.76556  0.49721  1.0000
  H   H16       1.0  0.63341  0.50279  0.23443  1.0000
  H   H17       1.0  0.20884  0.26980  0.30676  1.0000
  H   H18       1.0  0.29116  0.69324  0.73020  1.0000
  H   H19       1.0  0.79115  0.73019  0.69324  1.0000
  H   H20       1.0  0.70884  0.30676  0.26980  1.0000
  H   H21       1.0  0.99534  0.32774  0.35423  1.0000
  H   H22       1.0  0.50466  0.64577  0.67228  1.0000
  H   H23       1.0  0.00465  0.67227  0.64577  1.0000
  H   H24       1.0  0.49535  0.35423  0.32772  1.0000
  C   C1        1.0  0.10575  0.58463  0.12980  1.0000
  C   C2        1.0  0.39424  0.87021  0.41538  1.0000
  C   C3        1.0  0.89425  0.41536  0.87020  1.0000
  C   C4        1.0  0.60575  0.12979  0.58463  1.0000
  C   C5        1.0  0.18840  0.46474  0.39781  1.0000
  C   C6        1.0  0.31161  0.60220  0.53527  1.0000
  C   C7        1.0  0.81160  0.53526  0.60219  1.0000
  C   C8        1.0  0.68840  0.39781  0.46473  1.0000
  C   C9        1.0  0.18339  0.59255  0.27095  1.0000
  C   C10       1.0  0.31660  0.72905  0.40746  1.0000
  C   C11       1.0  0.81660  0.40745  0.72904  1.0000
  C   C12       1.0  0.68340  0.27095  0.59254  1.0000
  C   C13       1.0  0.12799  0.31595  0.39083  1.0000
  C   C14       1.0  0.37201  0.60917  0.68405  1.0000
  C   C15       1.0  0.87201  0.68405  0.60918  1.0000
  C   C16       1.0  0.62799  0.39083  0.31594  1.0000
  I   I1        1.0  0.08977  0.97249  0.78559  1.0000
  I   I2        1.0  0.41023  0.21441  0.02751  1.0000
  I   I3        1.0  0.91023  0.02751  0.21441  1.0000
  I   I4        1.0  0.58977  0.78558  0.97249  1.0000
  N   N1        1.0  0.25000  0.72192  0.27808  1.0000
  N   N2        1.0  0.75000  0.27808  0.72192  1.0000
  N   N3        1.0  0.25000  0.47195  0.52804  1.0000
  N   N4        1.0  0.75000  0.52804  0.47195  1.0000
