data_image0
_chemical_formula_structural       Mg2H16C12N4O14
_chemical_formula_sum              "Mg2 H16 C12 N4 O14"
_cell_length_a       7.30333
_cell_length_b       8.15026
_cell_length_c       9.81623
_cell_angle_alpha    65.4708
_cell_angle_beta     78.0098
_cell_angle_gamma    59.9548

_space_group_name_H-M_alt    "P 1"
_space_group_IT_number       1

loop_
  _space_group_symop_operation_xyz
  'x, y, z'

loop_
  _atom_site_type_symbol
  _atom_site_label
  _atom_site_symmetry_multiplicity
  _atom_site_fract_x
  _atom_site_fract_y
  _atom_site_fract_z
  _atom_site_occupancy
  Mg  Mg1       1.0  0.96365  0.93347  0.21997  1.0000
  Mg  Mg2       1.0  0.46364  0.15354  0.78006  1.0000
  H   H1        1.0  0.99912  0.34279  0.20037  1.0000
  H   H2        1.0  0.49914  0.54314  0.79961  1.0000
  H   H3        1.0  0.04735  0.45048  0.39264  1.0000
  H   H4        1.0  0.54735  0.84321  0.60724  1.0000
  H   H5        1.0  0.58146  0.96586  0.29971  1.0000
  H   H6        1.0  0.08149  0.26560  0.70033  1.0000
  H   H7        1.0  0.55749  0.18781  0.26288  1.0000
  H   H8        1.0  0.05720  0.45080  0.73713  1.0000
  H   H9        1.0  0.00447  0.22442  0.93963  1.0000
  H   H10       1.0  0.50445  0.16414  0.06050  1.0000
  H   H11       1.0  0.77799  0.31730  0.01117  1.0000
  H   H12       1.0  0.27799  0.32868  0.98888  1.0000
  H   H13       1.0  0.84441  0.72588  0.13630  1.0000
  H   H14       1.0  0.34449  0.86230  0.86369  1.0000
  H   H15       1.0  0.03688  0.75663  0.03850  1.0000
  H   H16       1.0  0.53686  0.79520  0.96160  1.0000
  C   C1        1.0  0.00338  0.25467  0.31969  1.0000
  C   C2        1.0  0.50324  0.57444  0.68029  1.0000
  C   C3        1.0  0.02619  0.31578  0.42586  1.0000
  C   C4        1.0  0.52603  0.74174  0.57407  1.0000
  C   C5        1.0  0.99155  0.04642  0.61594  1.0000
  C   C6        1.0  0.49125  0.66248  0.38401  1.0000
  C   C7        1.0  0.97993  0.97957  0.50884  1.0000
  C   C8        1.0  0.47966  0.48852  0.49114  1.0000
  C   C9        1.0  0.97440  0.78216  0.54975  1.0000
  C   C10       1.0  0.47442  0.33188  0.45024  1.0000
  C   C11       1.0  0.96357  0.94836  0.78251  1.0000
  C   C12       1.0  0.46335  0.73104  0.21742  1.0000
  N   N1        1.0  0.98319  0.08593  0.36171  1.0000
  N   N2        1.0  0.48303  0.44772  0.63825  1.0000
  N   N3        1.0  0.01847  0.21257  0.57278  1.0000
  N   N4        1.0  0.51822  0.78544  0.42718  1.0000
  O   O1        1.0  0.62720  0.06963  0.22436  1.0000
  O   O2        1.0  0.12706  0.29410  0.77571  1.0000
  O   O3        1.0  0.91922  0.20289  0.03410  1.0000
  O   O4        1.0  0.41919  0.23709  0.96601  1.0000
  O   O5        1.0  0.97503  0.73145  0.14209  1.0000
  O   O6        1.0  0.47504  0.87374  0.85799  1.0000
  O   O7        1.0  0.97359  0.68009  0.68770  1.0000
  O   O8        1.0  0.47410  0.36758  0.31226  1.0000
  O   O9        1.0  0.97810  0.73371  0.44116  1.0000
  O   O10       1.0  0.47790  0.17496  0.55883  1.0000
  O   O11       1.0  0.77550  0.00587  0.82895  1.0000
  O   O12       1.0  0.27531  0.83508  0.17085  1.0000
  O   O13       1.0  0.12731  0.82850  0.86426  1.0000
  O   O14       1.0  0.62716  0.69275  0.13579  1.0000
