data_image0
_chemical_formula_structural       Cd6H16C20Br12N4
_chemical_formula_sum              "Cd6 H16 C20 Br12 N4"
_cell_length_a       3.95528
_cell_length_b       13.1738
_cell_length_c       17.9665
_cell_angle_alpha    90.0003
_cell_angle_beta     89.9996
_cell_angle_gamma    89.9995

_space_group_name_H-M_alt    "P 1"
_space_group_IT_number       1

loop_
  _space_group_symop_operation_xyz
  'x, y, z'

loop_
  _atom_site_type_symbol
  _atom_site_label
  _atom_site_symmetry_multiplicity
  _atom_site_fract_x
  _atom_site_fract_y
  _atom_site_fract_z
  _atom_site_occupancy
  Cd  Cd1       1.0  0.90344  0.50000  0.50000  1.0000
  Cd  Cd2       1.0  0.09657  0.00000  1.00000  1.0000
  Cd  Cd3       1.0  0.42302  0.39015  0.68212  1.0000
  Cd  Cd4       1.0  0.42306  0.60986  0.31788  1.0000
  Cd  Cd5       1.0  0.57696  0.10985  0.18213  1.0000
  Cd  Cd6       1.0  0.57698  0.89015  0.81788  1.0000
  H   H1        1.0  0.60471  0.57843  0.78825  1.0000
  H   H2        1.0  0.60472  0.42156  0.21175  1.0000
  H   H3        1.0  0.39527  0.92156  0.28826  1.0000
  H   H4        1.0  0.39528  0.07845  0.71175  1.0000
  H   H5        1.0  0.60743  0.63136  0.92041  1.0000
  H   H6        1.0  0.60742  0.36864  0.07958  1.0000
  H   H7        1.0  0.39256  0.86864  0.42043  1.0000
  H   H8        1.0  0.39255  0.13137  0.57958  1.0000
  H   H9        1.0  0.22669  0.33221  0.97597  1.0000
  H   H10       1.0  0.22670  0.66778  0.02403  1.0000
  H   H11       1.0  0.77330  0.16778  0.47598  1.0000
  H   H12       1.0  0.77330  0.83222  0.52403  1.0000
  H   H13       1.0  0.23838  0.29179  0.84050  1.0000
  H   H14       1.0  0.23840  0.70821  0.15950  1.0000
  H   H15       1.0  0.76163  0.20820  0.34050  1.0000
  H   H16       1.0  0.76163  0.79180  0.65951  1.0000
  C   C1        1.0  0.52118  0.52606  0.83148  1.0000
  C   C2        1.0  0.52119  0.47393  0.16852  1.0000
  C   C3        1.0  0.47879  0.97392  0.33148  1.0000
  C   C4        1.0  0.47880  0.02608  0.66852  1.0000
  C   C5        1.0  0.52156  0.55528  0.90583  1.0000
  C   C6        1.0  0.52157  0.44471  0.09417  1.0000
  C   C7        1.0  0.47843  0.94471  0.40584  1.0000
  C   C8        1.0  0.47843  0.05529  0.59417  1.0000
  C   C9        1.0  0.41566  0.48605  0.96018  1.0000
  C   C10       1.0  0.41567  0.51395  0.03982  1.0000
  C   C11       1.0  0.58432  0.01394  0.46018  1.0000
  C   C12       1.0  0.58432  0.98607  0.53982  1.0000
  C   C13       1.0  0.31320  0.38924  0.93639  1.0000
  C   C14       1.0  0.31322  0.61076  0.06360  1.0000
  C   C15       1.0  0.68678  0.11076  0.43640  1.0000
  C   C16       1.0  0.68679  0.88924  0.56361  1.0000
  C   C17       1.0  0.31911  0.36602  0.86093  1.0000
  C   C18       1.0  0.31913  0.63397  0.13906  1.0000
  C   C19       1.0  0.68088  0.13397  0.36093  1.0000
  C   C20       1.0  0.68089  0.86603  0.63907  1.0000
  Br  Br1       1.0  0.91679  0.54128  0.65147  1.0000
  Br  Br2       1.0  0.91679  0.45873  0.34853  1.0000
  Br  Br3       1.0  0.08325  0.95873  0.15147  1.0000
  Br  Br4       1.0  0.08322  0.04128  0.84853  1.0000
  Br  Br5       1.0  0.92573  0.24986  0.69733  1.0000
  Br  Br6       1.0  0.92577  0.75014  0.30265  1.0000
  Br  Br7       1.0  0.07425  0.25014  0.19735  1.0000
  Br  Br8       1.0  0.07427  0.74987  0.80266  1.0000
  Br  Br9       1.0  0.40430  0.64676  0.47750  1.0000
  Br  Br10      1.0  0.40431  0.35324  0.52250  1.0000
  Br  Br11      1.0  0.59571  0.85324  0.97750  1.0000
  Br  Br12      1.0  0.59570  0.14676  0.02250  1.0000
  N   N1        1.0  0.42122  0.43346  0.80914  1.0000
  N   N2        1.0  0.42125  0.56654  0.19086  1.0000
  N   N3        1.0  0.57876  0.06653  0.30914  1.0000
  N   N4        1.0  0.57877  0.93347  0.69086  1.0000
