data_image0
_chemical_formula_structural       Zn3H44C66N4O12
_chemical_formula_sum              "Zn3 H44 C66 N4 O12"
_cell_length_a       10.6601
_cell_length_b       10.7553
_cell_length_c       12.7744
_cell_angle_alpha    83.2805
_cell_angle_beta     75.8148
_cell_angle_gamma    76.1501

_space_group_name_H-M_alt    "P 1"
_space_group_IT_number       1

loop_
  _space_group_symop_operation_xyz
  'x, y, z'

loop_
  _atom_site_type_symbol
  _atom_site_label
  _atom_site_symmetry_multiplicity
  _atom_site_fract_x
  _atom_site_fract_y
  _atom_site_fract_z
  _atom_site_occupancy
  Zn  Zn1       1.0  0.50000  0.50000  0.00000  1.0000
  Zn  Zn2       1.0  0.64845  0.73059  0.14796  1.0000
  Zn  Zn3       1.0  0.35155  0.26941  0.85204  1.0000
  H   H1        1.0  0.77259  0.10273  0.55176  1.0000
  H   H2        1.0  0.22741  0.89728  0.44823  1.0000
  H   H3        1.0  0.11414  0.84723  0.37092  1.0000
  H   H4        1.0  0.88586  0.15277  0.62908  1.0000
  H   H5        1.0  0.77277  0.38909  0.89141  1.0000
  H   H6        1.0  0.22723  0.61091  0.10859  1.0000
  H   H7        1.0  0.31654  0.63291  0.61632  1.0000
  H   H8        1.0  0.68346  0.36709  0.38368  1.0000
  H   H9        1.0  0.99009  0.09560  0.21792  1.0000
  H   H10       1.0  0.00991  0.90439  0.78209  1.0000
  H   H11       1.0  0.32050  0.96104  0.91549  1.0000
  H   H12       1.0  0.67949  0.03896  0.08451  1.0000
  H   H13       1.0  0.72619  0.72990  0.73570  1.0000
  H   H14       1.0  0.27382  0.27010  0.26430  1.0000
  H   H15       1.0  0.01601  0.52159  0.91202  1.0000
  H   H16       1.0  0.98399  0.47841  0.08799  1.0000
  H   H17       1.0  0.97928  0.25201  0.93394  1.0000
  H   H18       1.0  0.02072  0.74799  0.06606  1.0000
  H   H19       1.0  0.97055  0.78499  0.27241  1.0000
  H   H20       1.0  0.02945  0.21501  0.72759  1.0000
  H   H21       1.0  0.55421  0.33261  0.20122  1.0000
  H   H22       1.0  0.44579  0.66739  0.79878  1.0000
  H   H23       1.0  0.19019  0.50595  0.74264  1.0000
  H   H24       1.0  0.80981  0.49404  0.25737  1.0000
  H   H25       1.0  0.19305  0.02693  0.25656  1.0000
  H   H26       1.0  0.80695  0.97308  0.74344  1.0000
  H   H27       1.0  0.48789  0.62446  0.44320  1.0000
  H   H28       1.0  0.51211  0.37554  0.55680  1.0000
  H   H29       1.0  0.75030  0.18549  0.25773  1.0000
  H   H30       1.0  0.24969  0.81452  0.74227  1.0000
  H   H31       1.0  0.53081  0.82525  0.95256  1.0000
  H   H32       1.0  0.46919  0.17475  0.04744  1.0000
  H   H33       1.0  0.90302  0.72529  0.56716  1.0000
  H   H34       1.0  0.09699  0.27471  0.43284  1.0000
  H   H35       1.0  0.41276  0.89166  0.27839  1.0000
  H   H36       1.0  0.58724  0.10834  0.72161  1.0000
  H   H37       1.0  0.03456  0.57960  0.44399  1.0000
  H   H38       1.0  0.96544  0.42040  0.55601  1.0000
  H   H39       1.0  0.20899  0.55944  0.27494  1.0000
  H   H40       1.0  0.79101  0.44056  0.72505  1.0000
  H   H41       1.0  0.11802  0.10269  0.97282  1.0000
  H   H42       1.0  0.88197  0.89732  0.02718  1.0000
  H   H43       1.0  0.62976  0.02971  0.45929  1.0000
  H   H44       1.0  0.37024  0.97030  0.54070  1.0000
  C   C1        1.0  0.81849  0.03142  0.49196  1.0000
  C   C2        1.0  0.18151  0.96859  0.50803  1.0000
  C   C3        1.0  0.00890  0.89151  0.38974  1.0000
  C   C4        1.0  0.99110  0.10850  0.61026  1.0000
  C   C5        1.0  0.46145  0.58454  0.24439  1.0000
  C   C6        1.0  0.53855  0.41547  0.75561  1.0000
  C   C7        1.0  0.75223  0.63976  0.93543  1.0000
  C   C8        1.0  0.24777  0.36024  0.06457  1.0000
  C   C9        1.0  0.35946  0.59033  0.34847  1.0000
  C   C10       1.0  0.64054  0.40967  0.65153  1.0000
  C   C11       1.0  0.77358  0.34268  0.97164  1.0000
  C   C12       1.0  0.22642  0.65732  0.02836  1.0000
  C   C13       1.0  0.85981  0.62815  0.83478  1.0000
  C   C14       1.0  0.14019  0.37185  0.16523  1.0000
  C   C15       1.0  0.29246  0.61813  0.54121  1.0000
  C   C16       1.0  0.70754  0.38187  0.45879  1.0000
  C   C17       1.0  0.99910  0.12217  0.13158  1.0000
  C   C18       1.0  0.00090  0.87782  0.86842  1.0000
  C   C19       1.0  0.05926  0.61586  0.64334  1.0000
  C   C20       1.0  0.94074  0.38414  0.35666  1.0000
  C   C21       1.0  0.88249  0.20409  0.10041  1.0000
  C   C22       1.0  0.11751  0.79591  0.89959  1.0000
  C   C23       1.0  0.16308  0.60748  0.54244  1.0000
  C   C24       1.0  0.83692  0.39251  0.45756  1.0000
  C   C25       1.0  0.33545  0.94624  0.99781  1.0000
  C   C26       1.0  0.66455  0.05376  0.00219  1.0000
  C   C27       1.0  0.82868  0.68330  0.73674  1.0000
  C   C28       1.0  0.17133  0.31670  0.26326  1.0000
  C   C29       1.0  0.99087  0.56576  0.83650  1.0000
  C   C30       1.0  0.00913  0.43423  0.16350  1.0000
  C   C31       1.0  0.88713  0.26377  0.99576  1.0000
  C   C32       1.0  0.11287  0.73622  0.00424  1.0000
  C   C33       1.0  0.92810  0.85477  0.33398  1.0000
  C   C34       1.0  0.07190  0.14524  0.66601  1.0000
  C   C35       1.0  0.65060  0.31104  0.14505  1.0000
  C   C36       1.0  0.34939  0.68896  0.85495  1.0000
  C   C37       1.0  0.08918  0.55801  0.74149  1.0000
  C   C38       1.0  0.91082  0.44199  0.25851  1.0000
  C   C39       1.0  0.95669  0.98103  0.47012  1.0000
  C   C40       1.0  0.04331  0.01897  0.52987  1.0000
  C   C41       1.0  0.26378  0.98250  0.18695  1.0000
  C   C42       1.0  0.73622  0.01750  0.81306  1.0000
  C   C43       1.0  0.38893  0.61194  0.44518  1.0000
  C   C44       1.0  0.61107  0.38806  0.55482  1.0000
  C   C45       1.0  0.75983  0.22939  0.17554  1.0000
  C   C46       1.0  0.24017  0.77061  0.82446  1.0000
  C   C47       1.0  0.23550  0.00254  0.08344  1.0000
  C   C48       1.0  0.76450  0.99746  0.91656  1.0000
  C   C49       1.0  0.45362  0.87197  0.01745  1.0000
  C   C50       1.0  0.54637  0.12803  0.98255  1.0000
  C   C51       1.0  0.92757  0.67908  0.64245  1.0000
  C   C52       1.0  0.07244  0.32092  0.35755  1.0000
  C   C53       1.0  0.38476  0.90744  0.20047  1.0000
  C   C54       1.0  0.61524  0.09256  0.79953  1.0000
  C   C55       1.0  0.13402  0.58831  0.44477  1.0000
  C   C56       1.0  0.86598  0.41169  0.55524  1.0000
  C   C57       1.0  0.23122  0.57806  0.34954  1.0000
  C   C58       1.0  0.76878  0.42194  0.65046  1.0000
  C   C59       1.0  0.11309  0.07939  0.05914  1.0000
  C   C60       1.0  0.88690  0.92061  0.94086  1.0000
  C   C61       1.0  0.79082  0.90373  0.35807  1.0000
  C   C62       1.0  0.20918  0.09627  0.64193  1.0000
  C   C63       1.0  0.70217  0.86062  0.30148  1.0000
  C   C64       1.0  0.29783  0.13938  0.69851  1.0000
  C   C65       1.0  0.73678  0.99229  0.43847  1.0000
  C   C66       1.0  0.26322  0.00772  0.56152  1.0000
  N   N1        1.0  0.65684  0.36763  0.04474  1.0000
  N   N2        1.0  0.34317  0.63237  0.95526  1.0000
  N   N3        1.0  0.47869  0.85161  0.11723  1.0000
  N   N4        1.0  0.52130  0.14839  0.88277  1.0000
  O   O1        1.0  0.76228  0.80513  0.21121  1.0000
  O   O2        1.0  0.23772  0.19488  0.78878  1.0000
  O   O3        1.0  0.57771  0.59623  0.24853  1.0000
  O   O4        1.0  0.42229  0.40377  0.75147  1.0000
  O   O5        1.0  0.42684  0.57203  0.15896  1.0000
  O   O6        1.0  0.57316  0.42797  0.84104  1.0000
  O   O7        1.0  0.78538  0.65813  0.02186  1.0000
  O   O8        1.0  0.21462  0.34187  0.97815  1.0000
  O   O9        1.0  0.63658  0.63542  0.92962  1.0000
  O   O10       1.0  0.36342  0.36458  0.07037  1.0000
  O   O11       1.0  0.58056  0.87855  0.34147  1.0000
  O   O12       1.0  0.41944  0.12145  0.65853  1.0000
