data_image0
_chemical_formula_structural       Zn2H20C28N4O10
_chemical_formula_sum              "Zn2 H20 C28 N4 O10"
_cell_length_a       6.03584
_cell_length_b       7.53123
_cell_length_c       14.5082
_cell_angle_alpha    92.4075
_cell_angle_beta     88.4106
_cell_angle_gamma    92.35

_space_group_name_H-M_alt    "P 1"
_space_group_IT_number       1

loop_
  _space_group_symop_operation_xyz
  'x, y, z'

loop_
  _atom_site_type_symbol
  _atom_site_label
  _atom_site_symmetry_multiplicity
  _atom_site_fract_x
  _atom_site_fract_y
  _atom_site_fract_z
  _atom_site_occupancy
  Zn  Zn1       1.0  0.80804  0.24771  0.50282  1.0000
  Zn  Zn2       1.0  0.19192  0.75235  0.49717  1.0000
  H   H1        1.0  0.49816  0.60145  0.67187  1.0000
  H   H2        1.0  0.47310  0.90737  0.32201  1.0000
  H   H3        1.0  0.50186  0.39859  0.32811  1.0000
  H   H4        1.0  0.52691  0.09269  0.67802  1.0000
  H   H5        1.0  0.63617  0.67782  0.82972  1.0000
  H   H6        1.0  0.61007  0.82601  0.16247  1.0000
  H   H7        1.0  0.36389  0.32215  0.17026  1.0000
  H   H8        1.0  0.38990  0.17399  0.83756  1.0000
  H   H9        1.0  0.39168  0.61829  0.96770  1.0000
  H   H10       1.0  0.37588  0.88031  0.02763  1.0000
  H   H11       1.0  0.60843  0.38161  0.03228  1.0000
  H   H12       1.0  0.62405  0.11957  0.97240  1.0000
  H   H13       1.0  0.88065  0.39935  0.79073  1.0000
  H   H14       1.0  0.87905  0.10405  0.21084  1.0000
  H   H15       1.0  0.11941  0.60064  0.20926  1.0000
  H   H16       1.0  0.12091  0.89594  0.78917  1.0000
  H   H17       1.0  0.39686  0.34692  0.53029  1.0000
  H   H18       1.0  0.38115  0.14690  0.48960  1.0000
  H   H19       1.0  0.60313  0.65315  0.46970  1.0000
  H   H20       1.0  0.61883  0.85316  0.51042  1.0000
  C   C1        1.0  0.10188  0.44428  0.62696  1.0000
  C   C2        1.0  0.09187  0.06436  0.37194  1.0000
  C   C3        1.0  0.89811  0.55576  0.37303  1.0000
  C   C4        1.0  0.90812  0.93567  0.62806  1.0000
  C   C5        1.0  0.18205  0.49402  0.72113  1.0000
  C   C6        1.0  0.16929  0.01250  0.27652  1.0000
  C   C7        1.0  0.81795  0.50598  0.27884  1.0000
  C   C8        1.0  0.83069  0.98751  0.72348  1.0000
  C   C9        1.0  0.39417  0.57390  0.73260  1.0000
  C   C10       1.0  0.37472  0.93319  0.26249  1.0000
  C   C11       1.0  0.60587  0.42609  0.26738  1.0000
  C   C12       1.0  0.62527  0.06685  0.73753  1.0000
  C   C13       1.0  0.47052  0.61721  0.82113  1.0000
  C   C14       1.0  0.44992  0.88662  0.17311  1.0000
  C   C15       1.0  0.52955  0.38274  0.17884  1.0000
  C   C16       1.0  0.55005  0.11336  0.82692  1.0000
  C   C17       1.0  0.33532  0.58501  0.89827  1.0000
  C   C18       1.0  0.32066  0.91593  0.09776  1.0000
  C   C19       1.0  0.66477  0.41492  0.10171  1.0000
  C   C20       1.0  0.67929  0.08402  0.90227  1.0000
  C   C21       1.0  0.12022  0.50887  0.88712  1.0000
  C   C22       1.0  0.11282  0.99269  0.11154  1.0000
  C   C23       1.0  0.87989  0.49107  0.11287  1.0000
  C   C24       1.0  0.88715  0.00723  0.88848  1.0000
  C   C25       1.0  0.04585  0.46084  0.79863  1.0000
  C   C26       1.0  0.03893  0.04282  0.20092  1.0000
  C   C27       1.0  0.95420  0.53913  0.20136  1.0000
  C   C28       1.0  0.96106  0.95717  0.79909  1.0000
  N   N1        1.0  0.96485  0.47861  0.96017  1.0000
  N   N2        1.0  0.96488  0.02228  0.04024  1.0000
  N   N3        1.0  0.03523  0.52131  0.03982  1.0000
  N   N4        1.0  0.03508  0.97766  0.95979  1.0000
  O   O1        1.0  0.92403  0.34773  0.62126  1.0000
  O   O2        1.0  0.91892  0.15662  0.38089  1.0000
  O   O3        1.0  0.07590  0.65237  0.37874  1.0000
  O   O4        1.0  0.08105  0.84343  0.61912  1.0000
  O   O5        1.0  0.21580  0.49490  0.55609  1.0000
  O   O6        1.0  0.20194  0.01835  0.44048  1.0000
  O   O7        1.0  0.78413  0.50516  0.44388  1.0000
  O   O8        1.0  0.79800  0.98172  0.55955  1.0000
  O   O9        1.0  0.48088  0.23546  0.52343  1.0000
  O   O10       1.0  0.51909  0.76461  0.47658  1.0000
