data_image0
_chemical_formula_structural       Na4H36C32S4O20
_chemical_formula_sum              "Na4 H36 C32 S4 O20"
_cell_length_a       6.07461
_cell_length_b       9.80035
_cell_length_c       16.6091
_cell_angle_alpha    100.639
_cell_angle_beta     90.0001
_cell_angle_gamma    89.9997

_space_group_name_H-M_alt    "P 1"
_space_group_IT_number       1

loop_
  _space_group_symop_operation_xyz
  'x, y, z'

loop_
  _atom_site_type_symbol
  _atom_site_label
  _atom_site_symmetry_multiplicity
  _atom_site_fract_x
  _atom_site_fract_y
  _atom_site_fract_z
  _atom_site_occupancy
  Na  Na1       1.0  0.32821  0.62963  0.45882  1.0000
  Na  Na2       1.0  0.82821  0.87038  0.54118  1.0000
  Na  Na3       1.0  0.67179  0.37037  0.54118  1.0000
  Na  Na4       1.0  0.17180  0.12963  0.45882  1.0000
  H   H1        1.0  0.52449  0.79277  0.34758  1.0000
  H   H2        1.0  0.02448  0.70723  0.65242  1.0000
  H   H3        1.0  0.47551  0.20723  0.65242  1.0000
  H   H4        1.0  0.97552  0.29277  0.34758  1.0000
  H   H5        1.0  0.80823  0.68225  0.28223  1.0000
  H   H6        1.0  0.30823  0.81774  0.71777  1.0000
  H   H7        1.0  0.19176  0.31774  0.71777  1.0000
  H   H8        1.0  0.69178  0.18226  0.28223  1.0000
  H   H9        1.0  0.32860  0.44958  0.30728  1.0000
  H   H10       1.0  0.82860  0.05042  0.69271  1.0000
  H   H11       1.0  0.67140  0.55041  0.69272  1.0000
  H   H12       1.0  0.17140  0.94959  0.30728  1.0000
  H   H13       1.0  0.22101  0.24798  0.20625  1.0000
  H   H14       1.0  0.72101  0.25202  0.79375  1.0000
  H   H15       1.0  0.77899  0.75201  0.79375  1.0000
  H   H16       1.0  0.27899  0.74798  0.20625  1.0000
  H   H17       1.0  0.80774  0.29381  0.06616  1.0000
  H   H18       1.0  0.30774  0.20618  0.93384  1.0000
  H   H19       1.0  0.19226  0.70618  0.93384  1.0000
  H   H20       1.0  0.69227  0.79382  0.06616  1.0000
  H   H21       1.0  0.91773  0.49629  0.17093  1.0000
  H   H22       1.0  0.41773  0.00370  0.82906  1.0000
  H   H23       1.0  0.08227  0.50370  0.82907  1.0000
  H   H24       1.0  0.58226  0.99630  0.17093  1.0000
  H   H25       1.0  0.24529  0.99706  0.01730  1.0000
  H   H26       1.0  0.74529  0.50294  0.98270  1.0000
  H   H27       1.0  0.75470  0.00294  0.98270  1.0000
  H   H28       1.0  0.25471  0.49705  0.01730  1.0000
  H   H29       1.0  0.10991  0.15008  0.07182  1.0000
  H   H30       1.0  0.60990  0.34991  0.92818  1.0000
  H   H31       1.0  0.89010  0.84991  0.92818  1.0000
  H   H32       1.0  0.39010  0.65008  0.07182  1.0000
  H   H33       1.0  0.24373  0.03299  0.12718  1.0000
  H   H34       1.0  0.74373  0.46702  0.87282  1.0000
  H   H35       1.0  0.75626  0.96701  0.87282  1.0000
  H   H36       1.0  0.25627  0.53299  0.12718  1.0000
  C   C1        1.0  0.69117  0.61628  0.30815  1.0000
  C   C2        1.0  0.19117  0.88372  0.69185  1.0000
  C   C3        1.0  0.30883  0.38372  0.69185  1.0000
  C   C4        1.0  0.80884  0.11628  0.30815  1.0000
  C   C5        1.0  0.63059  0.48902  0.24664  1.0000
  C   C6        1.0  0.13059  0.01099  0.75335  1.0000
  C   C7        1.0  0.36941  0.51098  0.75336  1.0000
  C   C8        1.0  0.86941  0.98902  0.24664  1.0000
  C   C9        1.0  0.43712  0.41608  0.25544  1.0000
  C   C10       1.0  0.93711  0.08392  0.74455  1.0000
  C   C11       1.0  0.56288  0.58391  0.74456  1.0000
  C   C12       1.0  0.06289  0.91608  0.25544  1.0000
  C   C13       1.0  0.37356  0.30130  0.19711  1.0000
  C   C14       1.0  0.87356  0.19870  0.80289  1.0000
  C   C15       1.0  0.62645  0.69869  0.80289  1.0000
  C   C16       1.0  0.12644  0.80130  0.19711  1.0000
  C   C17       1.0  0.50626  0.25819  0.12808  1.0000
  C   C18       1.0  0.00625  0.24180  0.87192  1.0000
  C   C19       1.0  0.49375  0.74180  0.87192  1.0000
  C   C20       1.0  0.99375  0.75820  0.12808  1.0000
  C   C21       1.0  0.70473  0.32795  0.11980  1.0000
  C   C22       1.0  0.20472  0.17205  0.88020  1.0000
  C   C23       1.0  0.29527  0.67204  0.88020  1.0000
  C   C24       1.0  0.79527  0.82795  0.11980  1.0000
  C   C25       1.0  0.76503  0.44194  0.17856  1.0000
  C   C26       1.0  0.26504  0.05806  0.82144  1.0000
  C   C27       1.0  0.23497  0.55805  0.82144  1.0000
  C   C28       1.0  0.73497  0.94195  0.17856  1.0000
  C   C29       1.0  0.25058  0.07924  0.07170  1.0000
  C   C30       1.0  0.75058  0.42076  0.92831  1.0000
  C   C31       1.0  0.74941  0.92076  0.92830  1.0000
  C   C32       1.0  0.24942  0.57925  0.07170  1.0000
  S   S1        1.0  0.84388  0.56608  0.39549  1.0000
  S   S2        1.0  0.34388  0.93392  0.60451  1.0000
  S   S3        1.0  0.15612  0.43392  0.60451  1.0000
  S   S4        1.0  0.65612  0.06608  0.39549  1.0000
  O   O1        1.0  0.67440  0.51177  0.44430  1.0000
  O   O2        1.0  0.17441  0.98823  0.55570  1.0000
  O   O3        1.0  0.32560  0.48823  0.55570  1.0000
  O   O4        1.0  0.82559  0.01177  0.44430  1.0000
  O   O5        1.0  0.95315  0.69219  0.44024  1.0000
  O   O6        1.0  0.45315  0.80781  0.55976  1.0000
  O   O7        1.0  0.04684  0.30781  0.55976  1.0000
  O   O8        1.0  0.54685  0.19220  0.44024  1.0000
  O   O9        1.0  0.00969  0.46082  0.36105  1.0000
  O   O10       1.0  0.50970  0.03918  0.63895  1.0000
  O   O11       1.0  0.99031  0.53918  0.63894  1.0000
  O   O12       1.0  0.49031  0.96083  0.36105  1.0000
  O   O13       1.0  0.45516  0.15051  0.06588  1.0000
  O   O14       1.0  0.95516  0.34949  0.93412  1.0000
  O   O15       1.0  0.54483  0.84948  0.93412  1.0000
  O   O16       1.0  0.04483  0.65051  0.06588  1.0000
  O   O17       1.0  0.50320  0.68999  0.34142  1.0000
  O   O18       1.0  0.00319  0.81001  0.65858  1.0000
  O   O19       1.0  0.49679  0.31000  0.65858  1.0000
  O   O20       1.0  0.99681  0.18999  0.34142  1.0000
