data_image0
_chemical_formula_structural       Cu4H32C40I4N16
_chemical_formula_sum              "Cu4 H32 C40 I4 N16"
_cell_length_a       7.87135
_cell_length_b       9.46813
_cell_length_c       15.0384
_cell_angle_alpha    95.9169
_cell_angle_beta     89.9996
_cell_angle_gamma    89.9997

_space_group_name_H-M_alt    "P 1"
_space_group_IT_number       1

loop_
  _space_group_symop_operation_xyz
  'x, y, z'

loop_
  _atom_site_type_symbol
  _atom_site_label
  _atom_site_symmetry_multiplicity
  _atom_site_fract_x
  _atom_site_fract_y
  _atom_site_fract_z
  _atom_site_occupancy
  Cu  Cu1       1.0  0.37020  0.94974  0.54696  1.0000
  Cu  Cu2       1.0  0.37019  0.05026  0.95304  1.0000
  Cu  Cu3       1.0  0.62979  0.05025  0.45305  1.0000
  Cu  Cu4       1.0  0.62979  0.94976  0.04696  1.0000
  H   H1        1.0  0.03490  0.01418  0.62057  1.0000
  H   H2        1.0  0.03491  0.98581  0.87943  1.0000
  H   H3        1.0  0.96508  0.98582  0.37943  1.0000
  H   H4        1.0  0.96509  0.01417  0.12057  1.0000
  H   H5        1.0  0.90085  0.19281  0.73021  1.0000
  H   H6        1.0  0.90086  0.80719  0.76979  1.0000
  H   H7        1.0  0.09914  0.80719  0.26980  1.0000
  H   H8        1.0  0.09915  0.19279  0.23021  1.0000
  H   H9        1.0  0.40376  0.33864  0.80834  1.0000
  H   H10       1.0  0.40378  0.66135  0.69166  1.0000
  H   H11       1.0  0.59624  0.66135  0.19166  1.0000
  H   H12       1.0  0.59624  0.33866  0.30834  1.0000
  H   H13       1.0  0.52145  0.14964  0.69540  1.0000
  H   H14       1.0  0.52146  0.85036  0.80460  1.0000
  H   H15       1.0  0.47854  0.85035  0.30460  1.0000
  H   H16       1.0  0.47855  0.14965  0.19540  1.0000
  H   H17       1.0  0.96616  0.82955  0.02118  1.0000
  H   H18       1.0  0.96616  0.17045  0.47881  1.0000
  H   H19       1.0  0.03383  0.17046  0.97881  1.0000
  H   H20       1.0  0.03384  0.82954  0.52118  1.0000
  H   H21       1.0  0.10248  0.62565  0.93325  1.0000
  H   H22       1.0  0.10249  0.37435  0.56674  1.0000
  H   H23       1.0  0.89752  0.37436  0.06675  1.0000
  H   H24       1.0  0.89752  0.62564  0.43325  1.0000
  H   H25       1.0  0.60236  0.45869  0.86986  1.0000
  H   H26       1.0  0.60237  0.54132  0.63015  1.0000
  H   H27       1.0  0.39764  0.54132  0.13015  1.0000
  H   H28       1.0  0.39764  0.45868  0.36985  1.0000
  H   H29       1.0  0.48181  0.67122  0.96450  1.0000
  H   H30       1.0  0.48181  0.32880  0.53550  1.0000
  H   H31       1.0  0.51819  0.32879  0.03550  1.0000
  H   H32       1.0  0.51819  0.67121  0.46449  1.0000
  C   C1        1.0  0.11413  0.08831  0.66252  1.0000
  C   C2        1.0  0.11413  0.91169  0.83748  1.0000
  C   C3        1.0  0.88586  0.91169  0.33748  1.0000
  C   C4        1.0  0.88587  0.08830  0.16252  1.0000
  C   C5        1.0  0.03836  0.18860  0.72311  1.0000
  C   C6        1.0  0.03837  0.81140  0.77689  1.0000
  C   C7        1.0  0.96162  0.81140  0.27690  1.0000
  C   C8        1.0  0.96163  0.18858  0.22311  1.0000
  C   C9        1.0  0.14272  0.28472  0.77548  1.0000
  C   C10       1.0  0.14273  0.71528  0.72452  1.0000
  C   C11       1.0  0.85728  0.71528  0.22453  1.0000
  C   C12       1.0  0.85728  0.28472  0.27548  1.0000
  C   C13       1.0  0.31944  0.26923  0.76646  1.0000
  C   C14       1.0  0.31945  0.73077  0.73354  1.0000
  C   C15       1.0  0.68055  0.73077  0.23354  1.0000
  C   C16       1.0  0.68056  0.26923  0.26646  1.0000
  C   C17       1.0  0.38490  0.16501  0.70415  1.0000
  C   C18       1.0  0.38491  0.83498  0.79585  1.0000
  C   C19       1.0  0.61509  0.83498  0.29585  1.0000
  C   C20       1.0  0.61510  0.16502  0.20415  1.0000
  C   C21       1.0  0.88772  0.74557  0.98742  1.0000
  C   C22       1.0  0.88773  0.25444  0.51258  1.0000
  C   C23       1.0  0.11227  0.25445  0.01258  1.0000
  C   C24       1.0  0.11227  0.74555  0.48741  1.0000
  C   C25       1.0  0.96473  0.63192  0.93816  1.0000
  C   C26       1.0  0.96474  0.36809  0.56184  1.0000
  C   C27       1.0  0.03527  0.36810  0.06185  1.0000
  C   C28       1.0  0.03527  0.63190  0.43816  1.0000
  C   C29       1.0  0.86171  0.52679  0.89281  1.0000
  C   C30       1.0  0.86172  0.47322  0.60719  1.0000
  C   C31       1.0  0.13829  0.47322  0.10719  1.0000
  C   C32       1.0  0.13829  0.52677  0.39281  1.0000
  C   C33       1.0  0.68487  0.54025  0.90290  1.0000
  C   C34       1.0  0.68488  0.45976  0.59710  1.0000
  C   C35       1.0  0.31513  0.45976  0.09711  1.0000
  C   C36       1.0  0.31513  0.54024  0.40289  1.0000
  C   C37       1.0  0.61841  0.65687  0.95489  1.0000
  C   C38       1.0  0.61841  0.34314  0.54512  1.0000
  C   C39       1.0  0.38159  0.34314  0.04512  1.0000
  C   C40       1.0  0.38159  0.65686  0.45488  1.0000
  I   I1        1.0  0.69363  0.89461  0.58823  1.0000
  I   I2        1.0  0.69364  0.10539  0.91177  1.0000
  I   I3        1.0  0.30636  0.10538  0.41177  1.0000
  I   I4        1.0  0.30636  0.89462  0.08823  1.0000
  N   N1        1.0  0.28454  0.07619  0.65110  1.0000
  N   N2        1.0  0.28455  0.92380  0.84890  1.0000
  N   N3        1.0  0.71544  0.92380  0.34890  1.0000
  N   N4        1.0  0.71545  0.07619  0.15110  1.0000
  N   N5        1.0  0.71722  0.76105  0.99575  1.0000
  N   N6        1.0  0.71723  0.23896  0.50425  1.0000
  N   N7        1.0  0.28277  0.23897  0.00425  1.0000
  N   N8        1.0  0.28277  0.76103  0.49574  1.0000
  N   N9        1.0  0.92199  0.41126  0.83531  1.0000
  N   N10       1.0  0.92201  0.58874  0.66469  1.0000
  N   N11       1.0  0.07801  0.58874  0.16470  1.0000
  N   N12       1.0  0.07801  0.41125  0.33531  1.0000
  N   N13       1.0  0.08313  0.39648  0.83635  1.0000
  N   N14       1.0  0.08314  0.60352  0.66365  1.0000
  N   N15       1.0  0.91687  0.60352  0.16366  1.0000
  N   N16       1.0  0.91687  0.39647  0.33635  1.0000
