data_image0
_chemical_formula_structural       Ag4H64C40S4N12O24
_chemical_formula_sum              "Ag4 H64 C40 S4 N12 O24"
_cell_length_a       8.00549
_cell_length_b       11.5698
_cell_length_c       16.8914
_cell_angle_alpha    98.6024
_cell_angle_beta     90.0236
_cell_angle_gamma    110.247

_space_group_name_H-M_alt    "P 1"
_space_group_IT_number       1

loop_
  _space_group_symop_operation_xyz
  'x, y, z'

loop_
  _atom_site_type_symbol
  _atom_site_label
  _atom_site_symmetry_multiplicity
  _atom_site_fract_x
  _atom_site_fract_y
  _atom_site_fract_z
  _atom_site_occupancy
  Ag  Ag1       1.0  0.29369  0.07762  0.26382  1.0000
  Ag  Ag2       1.0  0.21608  0.92258  0.73627  1.0000
  Ag  Ag3       1.0  0.73073  0.96376  0.24372  1.0000
  Ag  Ag4       1.0  0.76705  0.03641  0.75640  1.0000
  H   H1        1.0  0.36456  0.77292  0.22293  1.0000
  H   H2        1.0  0.59154  0.22683  0.77708  1.0000
  H   H3        1.0  0.09482  0.47867  0.75874  1.0000
  H   H4        1.0  0.61605  0.52150  0.24139  1.0000
  H   H5        1.0  0.18664  0.54628  0.96481  1.0000
  H   H6        1.0  0.64029  0.45378  0.03540  1.0000
  H   H7        1.0  0.95691  0.46021  0.97283  1.0000
  H   H8        1.0  0.49643  0.53964  0.02725  1.0000
  H   H9        1.0  0.28183  0.85686  0.45981  1.0000
  H   H10       1.0  0.42473  0.14328  0.54019  1.0000
  H   H11       1.0  0.89413  0.66292  0.97954  1.0000
  H   H12       1.0  0.23117  0.33668  0.02042  1.0000
  H   H13       1.0  0.12578  0.74474  0.98307  1.0000
  H   H14       1.0  0.38130  0.25511  0.01692  1.0000
  H   H15       1.0  0.92357  0.15284  0.04780  1.0000
  H   H16       1.0  0.77089  0.84726  0.95203  1.0000
  H   H17       1.0  0.15388  0.64288  0.10594  1.0000
  H   H18       1.0  0.51110  0.35719  0.89416  1.0000
  H   H19       1.0  0.91836  0.58562  0.10496  1.0000
  H   H20       1.0  0.33276  0.41433  0.89511  1.0000
  H   H21       1.0  0.13511  0.27051  0.27790  1.0000
  H   H22       1.0  0.86432  0.72932  0.72197  1.0000
  H   H23       1.0  0.82058  0.47966  0.74576  1.0000
  H   H24       1.0  0.34073  0.52025  0.25428  1.0000
  H   H25       1.0  0.16972  0.85894  0.13528  1.0000
  H   H26       1.0  0.31101  0.14109  0.86467  1.0000
  H   H27       1.0  0.94254  0.81975  0.10738  1.0000
  H   H28       1.0  0.12291  0.18013  0.89252  1.0000
  H   H29       1.0  0.84903  0.71364  0.22339  1.0000
  H   H30       1.0  0.13571  0.28655  0.77657  1.0000
  H   H31       1.0  0.07212  0.63258  0.25843  1.0000
  H   H32       1.0  0.44020  0.36741  0.74166  1.0000
  H   H33       1.0  0.00438  0.69041  0.39305  1.0000
  H   H34       1.0  0.31409  0.30985  0.60702  1.0000
  H   H35       1.0  0.02163  0.93739  0.42292  1.0000
  H   H36       1.0  0.08416  0.06292  0.57705  1.0000
  H   H37       1.0  0.82724  0.81190  0.37707  1.0000
  H   H38       1.0  0.01545  0.18844  0.62294  1.0000
  H   H39       1.0  0.78409  0.44706  0.53725  1.0000
  H   H40       1.0  0.33689  0.55298  0.46275  1.0000
  H   H41       1.0  0.72930  0.29093  0.54957  1.0000
  H   H42       1.0  0.43835  0.70911  0.45046  1.0000
  H   H43       1.0  0.01937  0.28638  0.50449  1.0000
  H   H44       1.0  0.73292  0.71364  0.49565  1.0000
  H   H45       1.0  0.11243  0.45017  0.52237  1.0000
  H   H46       1.0  0.66219  0.54986  0.47767  1.0000
  H   H47       1.0  0.07227  0.39779  0.38132  1.0000
  H   H48       1.0  0.67446  0.60218  0.61876  1.0000
  H   H49       1.0  0.90225  0.45596  0.41105  1.0000
  H   H50       1.0  0.44624  0.54384  0.58893  1.0000
  H   H51       1.0  0.86098  0.17938  0.36488  1.0000
  H   H52       1.0  0.68137  0.82049  0.63506  1.0000
  H   H53       1.0  0.68736  0.22829  0.40315  1.0000
  H   H54       1.0  0.45883  0.77146  0.59671  1.0000
  H   H55       1.0  0.68577  0.33653  0.28836  1.0000
  H   H56       1.0  0.34895  0.66351  0.71155  1.0000
  H   H57       1.0  0.97992  0.41054  0.24292  1.0000
  H   H58       1.0  0.56869  0.58925  0.75699  1.0000
  H   H59       1.0  0.84755  0.34822  0.11079  1.0000
  H   H60       1.0  0.49922  0.65168  0.88914  1.0000
  H   H61       1.0  0.60753  0.10490  0.08591  1.0000
  H   H62       1.0  0.50281  0.89502  0.91399  1.0000
  H   H63       1.0  0.54994  0.23507  0.13092  1.0000
  H   H64       1.0  0.31491  0.76493  0.86896  1.0000
  C   C1        1.0  0.01107  0.52479  0.86391  1.0000
  C   C2        1.0  0.48606  0.47512  0.13618  1.0000
  C   C3        1.0  0.05100  0.54414  0.95265  1.0000
  C   C4        1.0  0.50671  0.45576  0.04746  1.0000
  C   C5        1.0  0.02404  0.66037  0.99858  1.0000
  C   C6        1.0  0.36372  0.33945  0.00146  1.0000
  C   C7        1.0  0.03412  0.66191  0.08907  1.0000
  C   C8        1.0  0.37230  0.33805  0.91098  1.0000
  C   C9        1.0  0.03711  0.78674  0.13614  1.0000
  C   C10       1.0  0.25054  0.21326  0.86382  1.0000
  C   C11       1.0  0.98787  0.77642  0.22232  1.0000
  C   C12       1.0  0.21160  0.22369  0.77766  1.0000
  C   C13       1.0  0.10610  0.73427  0.27440  1.0000
  C   C14       1.0  0.37206  0.26577  0.72563  1.0000
  C   C15       1.0  0.07655  0.77159  0.36475  1.0000
  C   C16       1.0  0.30508  0.22860  0.63527  1.0000
  C   C17       1.0  0.97032  0.86098  0.37245  1.0000
  C   C18       1.0  0.10934  0.13927  0.62754  1.0000
  C   C19       1.0  0.38247  0.84354  0.34400  1.0000
  C   C20       1.0  0.53881  0.15641  0.65599  1.0000
  C   C21       1.0  0.89718  0.42132  0.64190  1.0000
  C   C22       1.0  0.47575  0.57874  0.35816  1.0000
  C   C23       1.0  0.84126  0.38012  0.55455  1.0000
  C   C24       1.0  0.46104  0.61992  0.44548  1.0000
  C   C25       1.0  0.99031  0.37171  0.50046  1.0000
  C   C26       1.0  0.61852  0.62828  0.49961  1.0000
  C   C27       1.0  0.94792  0.37675  0.41298  1.0000
  C   C28       1.0  0.57106  0.62313  0.58705  1.0000
  C   C29       1.0  0.80834  0.25643  0.36926  1.0000
  C   C30       1.0  0.55171  0.74345  0.63067  1.0000
  C   C31       1.0  0.75707  0.27008  0.28526  1.0000
  C   C32       1.0  0.48682  0.72988  0.71466  1.0000
  C   C33       1.0  0.91189  0.30866  0.22911  1.0000
  C   C34       1.0  0.60294  0.69116  0.77081  1.0000
  C   C35       1.0  0.83748  0.26760  0.13980  1.0000
  C   C36       1.0  0.56980  0.73228  0.86013  1.0000
  C   C37       1.0  0.63994  0.18307  0.13553  1.0000
  C   C38       1.0  0.45695  0.81688  0.86437  1.0000
  C   C39       1.0  0.06604  0.18948  0.15880  1.0000
  C   C40       1.0  0.87644  0.81038  0.84108  1.0000
  S   S1        1.0  0.99671  0.92595  0.27971  1.0000
  S   S2        1.0  0.07076  0.07422  0.72023  1.0000
  S   S3        1.0  0.60316  0.12279  0.22987  1.0000
  S   S4        1.0  0.48045  0.87720  0.77004  1.0000
  N   N1        1.0  0.29590  0.79945  0.26905  1.0000
  N   N2        1.0  0.49623  0.20028  0.73098  1.0000
  N   N3        1.0  0.25708  0.83045  0.39931  1.0000
  N   N4        1.0  0.42661  0.16974  0.60069  1.0000
  N   N5        1.0  0.95269  0.20365  0.10407  1.0000
  N   N6        1.0  0.74909  0.79618  0.89585  1.0000
  N   N7        1.0  0.03697  0.24394  0.23331  1.0000
  N   N8        1.0  0.79284  0.75568  0.76663  1.0000
  N   N9        1.0  0.35767  0.25979  0.41918  1.0000
  N   N10       1.0  0.09812  0.74029  0.58080  1.0000
  N   N11       1.0  0.56812  0.79730  0.08291  1.0000
  N   N12       1.0  0.77093  0.20289  0.91712  1.0000
  O   O1        1.0  0.13815  0.50528  0.81916  1.0000
  O   O2        1.0  0.63274  0.49488  0.18099  1.0000
  O   O3        1.0  0.86821  0.52498  0.83471  1.0000
  O   O4        1.0  0.34292  0.47477  0.16531  1.0000
  O   O5        1.0  0.54786  0.88762  0.35794  1.0000
  O   O6        1.0  0.66006  0.11235  0.64206  1.0000
  O   O7        1.0  0.77554  0.44892  0.68592  1.0000
  O   O8        1.0  0.32645  0.55099  0.31409  1.0000
  O   O9        1.0  0.04508  0.42852  0.67065  1.0000
  O   O10       1.0  0.61655  0.57168  0.32947  1.0000
  O   O11       1.0  0.17716  0.13636  0.14477  1.0000
  O   O12       1.0  0.04072  0.86379  0.85512  1.0000
  O   O13       1.0  0.33821  0.28364  0.34845  1.0000
  O   O14       1.0  0.05447  0.71646  0.65148  1.0000
  O   O15       1.0  0.33821  0.14777  0.42718  1.0000
  O   O16       1.0  0.19097  0.85227  0.57284  1.0000
  O   O17       1.0  0.39721  0.34531  0.47801  1.0000
  O   O18       1.0  0.05218  0.65477  0.52196  1.0000
  O   O19       1.0  0.55492  0.77227  0.15516  1.0000
  O   O20       1.0  0.78242  0.22788  0.84487  1.0000
  O   O21       1.0  0.69536  0.89229  0.06855  1.0000
  O   O22       1.0  0.80381  0.10813  0.93149  1.0000
  O   O23       1.0  0.45628  0.72720  0.02887  1.0000
  O   O24       1.0  0.72894  0.27279  0.97115  1.0000
