data_image0
_chemical_formula_structural       Zn2Mo2H16C24N4O8
_chemical_formula_sum              "Zn2 Mo2 H16 C24 N4 O8"
_cell_length_a       6.42224
_cell_length_b       8.73295
_cell_length_c       10.6583
_cell_angle_alpha    100.559
_cell_angle_beta     89.9998
_cell_angle_gamma    90.0004

_space_group_name_H-M_alt    "P 1"
_space_group_IT_number       1

loop_
  _space_group_symop_operation_xyz
  'x, y, z'

loop_
  _atom_site_type_symbol
  _atom_site_label
  _atom_site_symmetry_multiplicity
  _atom_site_fract_x
  _atom_site_fract_y
  _atom_site_fract_z
  _atom_site_occupancy
  Zn  Zn1       1.0  0.25000  0.29205  0.82771  1.0000
  Zn  Zn2       1.0  0.75000  0.70795  0.17229  1.0000
  Mo  Mo1       1.0  0.25000  0.49512  0.17515  1.0000
  Mo  Mo2       1.0  0.75000  0.50487  0.82484  1.0000
  H   H1        1.0  0.24999  0.31246  0.52706  1.0000
  H   H2        1.0  0.75001  0.68753  0.47293  1.0000
  H   H3        1.0  0.25000  0.13220  0.07272  1.0000
  H   H4        1.0  0.75000  0.86781  0.92728  1.0000
  H   H5        1.0  0.25000  0.85516  0.10995  1.0000
  H   H6        1.0  0.75000  0.14486  0.89005  1.0000
  H   H7        1.0  0.25000  0.12378  0.32529  1.0000
  H   H8        1.0  0.75000  0.87622  0.67471  1.0000
  H   H9        1.0  0.25000  0.63682  0.92266  1.0000
  H   H10       1.0  0.75000  0.36319  0.07735  1.0000
  H   H11       1.0  0.25000  0.55295  0.68244  1.0000
  H   H12       1.0  0.74999  0.44705  0.31757  1.0000
  H   H13       1.0  0.25000  0.83337  0.33201  1.0000
  H   H14       1.0  0.75000  0.16663  0.66799  1.0000
  H   H15       1.0  0.25000  0.62351  0.46732  1.0000
  H   H16       1.0  0.75000  0.37649  0.53269  1.0000
  C   C1        1.0  0.25000  0.03351  0.99326  1.0000
  C   C2        1.0  0.75000  0.96649  0.00674  1.0000
  C   C3        1.0  0.25000  0.87880  0.01310  1.0000
  C   C4        1.0  0.75000  0.12121  0.98690  1.0000
  C   C5        1.0  0.25000  0.75775  0.90917  1.0000
  C   C6        1.0  0.74999  0.24226  0.09084  1.0000
  C   C7        1.0  0.25000  0.79157  0.78453  1.0000
  C   C8        1.0  0.75000  0.20843  0.21548  1.0000
  C   C9        1.0  0.25000  0.95088  0.77328  1.0000
  C   C10       1.0  0.75000  0.04912  0.22672  1.0000
  C   C11       1.0  0.25000  0.67441  0.67123  1.0000
  C   C12       1.0  0.74999  0.32559  0.32878  1.0000
  C   C13       1.0  0.25000  0.71370  0.55294  1.0000
  C   C14       1.0  0.75000  0.28629  0.44706  1.0000
  C   C15       1.0  0.25000  0.87351  0.53841  1.0000
  C   C16       1.0  0.75000  0.12649  0.46159  1.0000
  C   C17       1.0  0.25000  0.99226  0.64857  1.0000
  C   C18       1.0  0.75000  0.00774  0.35144  1.0000
  C   C19       1.0  0.25000  0.92172  0.41876  1.0000
  C   C20       1.0  0.75000  0.07827  0.58124  1.0000
  C   C21       1.0  0.25000  0.07879  0.41416  1.0000
  C   C22       1.0  0.75000  0.92121  0.58584  1.0000
  C   C23       1.0  0.25000  0.18804  0.52883  1.0000
  C   C24       1.0  0.75001  0.81196  0.47118  1.0000
  N   N1        1.0  0.25000  0.06813  0.87643  1.0000
  N   N2        1.0  0.75000  0.93188  0.12357  1.0000
  N   N3        1.0  0.25000  0.14570  0.64235  1.0000
  N   N4        1.0  0.75000  0.85430  0.35765  1.0000
  O   O1        1.0  0.47791  0.61440  0.21121  1.0000
  O   O2        1.0  0.97791  0.38560  0.78878  1.0000
  O   O3        1.0  0.52209  0.38560  0.78878  1.0000
  O   O4        1.0  0.02209  0.61440  0.21121  1.0000
  O   O5        1.0  0.25000  0.35148  0.26857  1.0000
  O   O6        1.0  0.75001  0.64851  0.73141  1.0000
  O   O7        1.0  0.25000  0.40366  0.01206  1.0000
  O   O8        1.0  0.75001  0.59634  0.98793  1.0000
