data_image0
_chemical_formula_structural       In4H64C36N4O4
_chemical_formula_sum              "In4 H64 C36 N4 O4"
_cell_length_a       10.252
_cell_length_b       10.3544
_cell_length_c       10.7831
_cell_angle_alpha    109.322
_cell_angle_beta     108.365
_cell_angle_gamma    91.921

_space_group_name_H-M_alt    "P 1"
_space_group_IT_number       1

loop_
  _space_group_symop_operation_xyz
  'x, y, z'

loop_
  _atom_site_type_symbol
  _atom_site_label
  _atom_site_symmetry_multiplicity
  _atom_site_fract_x
  _atom_site_fract_y
  _atom_site_fract_z
  _atom_site_occupancy
  In  In1       1.0  0.01440  0.35183  0.30452  1.0000
  In  In2       1.0  0.98561  0.64817  0.69548  1.0000
  In  In3       1.0  0.36670  0.59293  0.55405  1.0000
  In  In4       1.0  0.63330  0.40707  0.44595  1.0000
  H   H1        1.0  0.17084  0.19624  0.50980  1.0000
  H   H2        1.0  0.82916  0.80376  0.49020  1.0000
  H   H3        1.0  0.33197  0.30504  0.60859  1.0000
  H   H4        1.0  0.66803  0.69496  0.39141  1.0000
  H   H5        1.0  0.28590  0.07940  0.67812  1.0000
  H   H6        1.0  0.71410  0.92060  0.32188  1.0000
  H   H7        1.0  0.03058  0.13762  0.65393  1.0000
  H   H8        1.0  0.96943  0.86238  0.34607  1.0000
  H   H9        1.0  0.12012  0.14993  0.83042  1.0000
  H   H10       1.0  0.87988  0.85007  0.16958  1.0000
  H   H11       1.0  0.05235  0.39683  0.82992  1.0000
  H   H12       1.0  0.94765  0.60317  0.17008  1.0000
  H   H13       1.0  0.26764  0.38816  0.01397  1.0000
  H   H14       1.0  0.73236  0.61184  0.98603  1.0000
  H   H15       1.0  0.32828  0.49710  0.94022  1.0000
  H   H16       1.0  0.67172  0.50290  0.05978  1.0000
  H   H17       1.0  0.40057  0.22160  0.93250  1.0000
  H   H18       1.0  0.59943  0.77840  0.06750  1.0000
  H   H19       1.0  0.45837  0.32212  0.85034  1.0000
  H   H20       1.0  0.54163  0.67788  0.14966  1.0000
  H   H21       1.0  0.10506  0.45417  0.13493  1.0000
  H   H22       1.0  0.89494  0.54582  0.86507  1.0000
  H   H23       1.0  0.92959  0.36813  0.04093  1.0000
  H   H24       1.0  0.07041  0.63186  0.95907  1.0000
  H   H25       1.0  0.07016  0.27006  0.06196  1.0000
  H   H26       1.0  0.92984  0.72994  0.93804  1.0000
  H   H27       1.0  0.95653  0.09742  0.32675  1.0000
  H   H28       1.0  0.04347  0.90258  0.67325  1.0000
  H   H29       1.0  0.79865  0.15931  0.26247  1.0000
  H   H30       1.0  0.20135  0.84069  0.73753  1.0000
  H   H31       1.0  0.90022  0.23039  0.44439  1.0000
  H   H32       1.0  0.09978  0.76961  0.55561  1.0000
  H   H33       1.0  0.51955  0.13185  0.33648  1.0000
  H   H34       1.0  0.48045  0.86816  0.66352  1.0000
  H   H35       1.0  0.44647  0.10857  0.45735  1.0000
  H   H36       1.0  0.55353  0.89143  0.54265  1.0000
  H   H37       1.0  0.42314  0.86538  0.28619  1.0000
  H   H38       1.0  0.57686  0.13462  0.71381  1.0000
  H   H39       1.0  0.33660  0.81880  0.03009  1.0000
  H   H40       1.0  0.66340  0.18120  0.96991  1.0000
  H   H41       1.0  0.45498  0.97416  0.09813  1.0000
  H   H42       1.0  0.54501  0.02584  0.90187  1.0000
  H   H43       1.0  0.14782  0.93358  0.96247  1.0000
  H   H44       1.0  0.85218  0.06642  0.03752  1.0000
  H   H45       1.0  0.26210  0.09126  0.02473  1.0000
  H   H46       1.0  0.73789  0.90875  0.97527  1.0000
  H   H47       1.0  0.14817  0.83391  0.16019  1.0000
  H   H48       1.0  0.85183  0.16609  0.83981  1.0000
  H   H49       1.0  0.19707  0.95275  0.33682  1.0000
  H   H50       1.0  0.80293  0.04725  0.66318  1.0000
  H   H51       1.0  0.08288  0.08319  0.16181  1.0000
  H   H52       1.0  0.91712  0.91681  0.83819  1.0000
  H   H53       1.0  0.36395  0.68596  0.82328  1.0000
  H   H54       1.0  0.63605  0.31404  0.17672  1.0000
  H   H55       1.0  0.46974  0.55269  0.80232  1.0000
  H   H56       1.0  0.53026  0.44731  0.19768  1.0000
  H   H57       1.0  0.53706  0.72333  0.82684  1.0000
  H   H58       1.0  0.46294  0.27667  0.17316  1.0000
  H   H59       1.0  0.30751  0.78016  0.42191  1.0000
  H   H60       1.0  0.69249  0.21984  0.57809  1.0000
  H   H61       1.0  0.31397  0.61743  0.29933  1.0000
  H   H62       1.0  0.68603  0.38257  0.70067  1.0000
  H   H63       1.0  0.16274  0.64574  0.34793  1.0000
  H   H64       1.0  0.83727  0.35425  0.65207  1.0000
  C   C1        1.0  0.15892  0.37336  0.67636  1.0000
  C   C2        1.0  0.84108  0.62664  0.32364  1.0000
  C   C3        1.0  0.23693  0.26202  0.61685  1.0000
  C   C4        1.0  0.76307  0.73799  0.38315  1.0000
  C   C5        1.0  0.25987  0.18331  0.71885  1.0000
  C   C6        1.0  0.74013  0.81669  0.28115  1.0000
  C   C7        1.0  0.12207  0.18963  0.74829  1.0000
  C   C8        1.0  0.87793  0.81037  0.25171  1.0000
  C   C9        1.0  0.13616  0.34937  0.79883  1.0000
  C   C10       1.0  0.86385  0.65063  0.20117  1.0000
  C   C11       1.0  0.28059  0.39162  0.91777  1.0000
  C   C12       1.0  0.71941  0.60838  0.08223  1.0000
  C   C13       1.0  0.36531  0.27845  0.86146  1.0000
  C   C14       1.0  0.63469  0.72155  0.13854  1.0000
  C   C15       1.0  0.03127  0.36340  0.11232  1.0000
  C   C16       1.0  0.96873  0.63660  0.88768  1.0000
  C   C17       1.0  0.90518  0.18962  0.33858  1.0000
  C   C18       1.0  0.09482  0.81038  0.66142  1.0000
  C   C19       1.0  0.30144  0.16504  0.29758  1.0000
  C   C20       1.0  0.69855  0.83496  0.70242  1.0000
  C   C21       1.0  0.42344  0.09284  0.34588  1.0000
  C   C22       1.0  0.57656  0.90716  0.65411  1.0000
  C   C23       1.0  0.36655  0.94079  0.24873  1.0000
  C   C24       1.0  0.63345  0.05921  0.75127  1.0000
  C   C25       1.0  0.35744  0.92798  0.09928  1.0000
  C   C26       1.0  0.64256  0.07202  0.90072  1.0000
  C   C27       1.0  0.23332  0.00465  0.05312  1.0000
  C   C28       1.0  0.76668  0.99535  0.94688  1.0000
  C   C29       1.0  0.21217  0.93238  0.23597  1.0000
  C   C30       1.0  0.78783  0.06762  0.76403  1.0000
  C   C31       1.0  0.18708  0.05410  0.18281  1.0000
  C   C32       1.0  0.81292  0.94590  0.81720  1.0000
  C   C33       1.0  0.44311  0.64566  0.77858  1.0000
  C   C34       1.0  0.55689  0.35434  0.22142  1.0000
  C   C35       1.0  0.27648  0.66802  0.38562  1.0000
  C   C36       1.0  0.72352  0.33197  0.61437  1.0000
  N   N1        1.0  0.28664  0.29293  0.34589  1.0000
  N   N2        1.0  0.71336  0.70707  0.65411  1.0000
  N   N3        1.0  0.11796  0.47202  0.63341  1.0000
  N   N4        1.0  0.88204  0.52798  0.36659  1.0000
  O   O1        1.0  0.15200  0.47846  0.51994  1.0000
  O   O2        1.0  0.84800  0.52154  0.48006  1.0000
  O   O3        1.0  0.40285  0.37876  0.45405  1.0000
  O   O4        1.0  0.59714  0.62124  0.54595  1.0000
