data_image0
_chemical_formula_structural       Zn2H34C32N8Cl2O4
_chemical_formula_sum              "Zn2 H34 C32 N8 Cl2 O4"
_cell_length_a       7.2805
_cell_length_b       8.30914
_cell_length_c       13.7323
_cell_angle_alpha    90.0006
_cell_angle_beta     90.0006
_cell_angle_gamma    92.2676

_space_group_name_H-M_alt    "P 1"
_space_group_IT_number       1

loop_
  _space_group_symop_operation_xyz
  'x, y, z'

loop_
  _atom_site_type_symbol
  _atom_site_label
  _atom_site_symmetry_multiplicity
  _atom_site_fract_x
  _atom_site_fract_y
  _atom_site_fract_z
  _atom_site_occupancy
  Zn  Zn1       1.0  0.19660  0.02011  0.75000  1.0000
  Zn  Zn2       1.0  0.80340  0.97988  0.25000  1.0000
  H   H1        1.0  0.79610  0.00595  0.85209  1.0000
  H   H2        1.0  0.20390  0.99406  0.35209  1.0000
  H   H3        1.0  0.20390  0.99407  0.14791  1.0000
  H   H4        1.0  0.79609  0.00595  0.64791  1.0000
  H   H5        1.0  0.28582  0.26490  0.92823  1.0000
  H   H6        1.0  0.71419  0.73510  0.42823  1.0000
  H   H7        1.0  0.71419  0.73509  0.07177  1.0000
  H   H8        1.0  0.28581  0.26490  0.57177  1.0000
  H   H9        1.0  0.00718  0.35272  0.05399  1.0000
  H   H10       1.0  0.99283  0.64729  0.55399  1.0000
  H   H11       1.0  0.99283  0.64727  0.94602  1.0000
  H   H12       1.0  0.00717  0.35273  0.44602  1.0000
  H   H13       1.0  0.67692  0.14912  0.08660  1.0000
  H   H14       1.0  0.32308  0.85087  0.58661  1.0000
  H   H15       1.0  0.32308  0.85087  0.91339  1.0000
  H   H16       1.0  0.67691  0.14912  0.41339  1.0000
  H   H17       1.0  0.57907  0.10116  0.97049  1.0000
  H   H18       1.0  0.42093  0.89885  0.47050  1.0000
  H   H19       1.0  0.42094  0.89885  0.02950  1.0000
  H   H20       1.0  0.57906  0.10117  0.52951  1.0000
  H   H21       1.0  0.67406  0.40136  0.85788  1.0000
  H   H22       1.0  0.32593  0.59864  0.35788  1.0000
  H   H23       1.0  0.32595  0.59864  0.14212  1.0000
  H   H24       1.0  0.67405  0.40137  0.64211  1.0000
  H   H25       1.0  0.47764  0.33671  0.15180  1.0000
  H   H26       1.0  0.52235  0.66330  0.65180  1.0000
  H   H27       1.0  0.52236  0.66330  0.84820  1.0000
  H   H28       1.0  0.47762  0.33671  0.34819  1.0000
  H   H29       1.0  0.91492  0.46811  0.75000  1.0000
  H   H30       1.0  0.08510  0.53187  0.24999  1.0000
  H   H31       1.0  0.12943  0.48567  0.81382  1.0000
  H   H32       1.0  0.87060  0.51432  0.31382  1.0000
  H   H33       1.0  0.87059  0.51431  0.18617  1.0000
  H   H34       1.0  0.12943  0.48567  0.68617  1.0000
  C   C1        1.0  0.89277  0.08735  0.88936  1.0000
  C   C2        1.0  0.10723  0.91265  0.38936  1.0000
  C   C3        1.0  0.10723  0.91266  0.11064  1.0000
  C   C4        1.0  0.89276  0.08735  0.61064  1.0000
  C   C5        1.0  0.14288  0.22404  0.93171  1.0000
  C   C6        1.0  0.85712  0.77596  0.43171  1.0000
  C   C7        1.0  0.85712  0.77595  0.06829  1.0000
  C   C8        1.0  0.14287  0.22404  0.56829  1.0000
  C   C9        1.0  0.00631  0.26931  0.99356  1.0000
  C   C10       1.0  0.99370  0.73069  0.49357  1.0000
  C   C11       1.0  0.99370  0.73069  0.00644  1.0000
  C   C12       1.0  0.00630  0.26931  0.50644  1.0000
  C   C13       1.0  0.66797  0.18840  0.01049  1.0000
  C   C14       1.0  0.33202  0.81161  0.51049  1.0000
  C   C15       1.0  0.33203  0.81161  0.98951  1.0000
  C   C16       1.0  0.66796  0.18840  0.48951  1.0000
  C   C17       1.0  0.59953  0.44553  0.92065  1.0000
  C   C18       1.0  0.40046  0.55448  0.42066  1.0000
  C   C19       1.0  0.40048  0.55447  0.07935  1.0000
  C   C20       1.0  0.59953  0.44554  0.57935  1.0000
  C   C21       1.0  0.58729  0.35268  0.00568  1.0000
  C   C22       1.0  0.41270  0.64732  0.50568  1.0000
  C   C23       1.0  0.41271  0.64733  0.99433  1.0000
  C   C24       1.0  0.58729  0.35268  0.49432  1.0000
  C   C25       1.0  0.48736  0.40821  0.08523  1.0000
  C   C26       1.0  0.51263  0.59180  0.58523  1.0000
  C   C27       1.0  0.51264  0.59180  0.91477  1.0000
  C   C28       1.0  0.48735  0.40821  0.41476  1.0000
  C   C29       1.0  0.04410  0.70780  0.75000  1.0000
  C   C30       1.0  0.95592  0.29217  0.25000  1.0000
  C   C31       1.0  0.05265  0.52584  0.75000  1.0000
  C   C32       1.0  0.94737  0.47415  0.24999  1.0000
  N   N1        1.0  0.07022  0.11051  0.86725  1.0000
  N   N2        1.0  0.92978  0.88949  0.36724  1.0000
  N   N3        1.0  0.92978  0.88949  0.13275  1.0000
  N   N4        1.0  0.07021  0.11051  0.63276  1.0000
  N   N5        1.0  0.84926  0.18194  0.96561  1.0000
  N   N6        1.0  0.15074  0.81807  0.46561  1.0000
  N   N7        1.0  0.15074  0.81806  0.03439  1.0000
  N   N8        1.0  0.84925  0.18195  0.53439  1.0000
  Cl  Cl1       1.0  0.49247  0.11172  0.75000  1.0000
  Cl  Cl2       1.0  0.50753  0.88827  0.25000  1.0000
  O   O1        1.0  0.20536  0.78291  0.75000  1.0000
  O   O2        1.0  0.79464  0.21709  0.25000  1.0000
  O   O3        1.0  0.89449  0.77650  0.75001  1.0000
  O   O4        1.0  0.10550  0.22348  0.25001  1.0000
