data_image0
_chemical_formula_structural       Zn4H64C32N8Cl8O16
_chemical_formula_sum              "Zn4 H64 C32 N8 Cl8 O16"
_cell_length_a       9.71926
_cell_length_b       9.99431
_cell_length_c       13.0588
_cell_angle_alpha    90
_cell_angle_beta     101.504
_cell_angle_gamma    90

_space_group_name_H-M_alt    "P 1"
_space_group_IT_number       1

loop_
  _space_group_symop_operation_xyz
  'x, y, z'

loop_
  _atom_site_type_symbol
  _atom_site_label
  _atom_site_symmetry_multiplicity
  _atom_site_fract_x
  _atom_site_fract_y
  _atom_site_fract_z
  _atom_site_occupancy
  Zn  Zn1       1.0  0.22982  0.07360  0.20007  1.0000
  Zn  Zn2       1.0  0.77018  0.57360  0.29993  1.0000
  Zn  Zn3       1.0  0.77018  0.92640  0.79993  1.0000
  Zn  Zn4       1.0  0.22982  0.42640  0.70007  1.0000
  H   H1        1.0  0.23213  0.96176  0.57886  1.0000
  H   H2        1.0  0.76786  0.46176  0.92114  1.0000
  H   H3        1.0  0.76787  0.03824  0.42114  1.0000
  H   H4        1.0  0.23213  0.53824  0.07886  1.0000
  H   H5        1.0  0.90420  0.63525  0.55576  1.0000
  H   H6        1.0  0.09580  0.13525  0.94424  1.0000
  H   H7        1.0  0.09581  0.36475  0.44424  1.0000
  H   H8        1.0  0.90419  0.86475  0.05576  1.0000
  H   H9        1.0  0.80478  0.76066  0.58629  1.0000
  H   H10       1.0  0.19521  0.26066  0.91370  1.0000
  H   H11       1.0  0.19521  0.23934  0.41370  1.0000
  H   H12       1.0  0.80478  0.73934  0.08630  1.0000
  H   H13       1.0  0.86879  0.77274  0.47664  1.0000
  H   H14       1.0  0.13121  0.27274  0.02336  1.0000
  H   H15       1.0  0.13121  0.22726  0.52336  1.0000
  H   H16       1.0  0.86879  0.72726  0.97664  1.0000
  H   H17       1.0  0.31236  0.72222  0.43241  1.0000
  H   H18       1.0  0.68764  0.22222  0.06759  1.0000
  H   H19       1.0  0.68764  0.27778  0.56759  1.0000
  H   H20       1.0  0.31236  0.77778  0.93241  1.0000
  H   H21       1.0  0.47982  0.78880  0.44101  1.0000
  H   H22       1.0  0.52018  0.28880  0.05899  1.0000
  H   H23       1.0  0.52018  0.21120  0.55899  1.0000
  H   H24       1.0  0.47982  0.71120  0.94101  1.0000
  H   H25       1.0  0.43059  0.73376  0.61537  1.0000
  H   H26       1.0  0.56941  0.23376  0.88463  1.0000
  H   H27       1.0  0.56941  0.26624  0.38463  1.0000
  H   H28       1.0  0.43059  0.76624  0.11537  1.0000
  H   H29       1.0  0.47299  0.90551  0.60504  1.0000
  H   H30       1.0  0.52701  0.40551  0.89496  1.0000
  H   H31       1.0  0.52701  0.09449  0.39496  1.0000
  H   H32       1.0  0.47299  0.59449  0.10504  1.0000
  H   H33       1.0  0.36580  0.80810  0.76296  1.0000
  H   H34       1.0  0.63420  0.30810  0.73704  1.0000
  H   H35       1.0  0.63420  0.19191  0.23704  1.0000
  H   H36       1.0  0.36580  0.69190  0.26296  1.0000
  H   H37       1.0  0.19503  0.87425  0.75672  1.0000
  H   H38       1.0  0.80497  0.37425  0.74328  1.0000
  H   H39       1.0  0.80497  0.12575  0.24328  1.0000
  H   H40       1.0  0.19503  0.62575  0.25672  1.0000
  H   H41       1.0  0.37204  0.02901  0.84883  1.0000
  H   H42       1.0  0.62796  0.52901  0.65117  1.0000
  H   H43       1.0  0.62796  0.97099  0.15117  1.0000
  H   H44       1.0  0.37204  0.47098  0.34883  1.0000
  H   H45       1.0  0.45453  0.04308  0.74238  1.0000
  H   H46       1.0  0.54547  0.54308  0.75762  1.0000
  H   H47       1.0  0.54547  0.95692  0.25762  1.0000
  H   H48       1.0  0.45453  0.45692  0.24238  1.0000
  H   H49       1.0  0.18469  0.67044  0.59545  1.0000
  H   H50       1.0  0.81530  0.17043  0.90455  1.0000
  H   H51       1.0  0.81530  0.32957  0.40455  1.0000
  H   H52       1.0  0.18469  0.82956  0.09545  1.0000
  H   H53       1.0  0.12221  0.77837  0.48869  1.0000
  H   H54       1.0  0.87779  0.27837  0.01131  1.0000
  H   H55       1.0  0.87779  0.22163  0.51131  1.0000
  H   H56       1.0  0.12221  0.72163  0.98869  1.0000
  H   H57       1.0  0.02405  0.77219  0.69779  1.0000
  H   H58       1.0  0.97595  0.27219  0.80221  1.0000
  H   H59       1.0  0.97595  0.22781  0.30221  1.0000
  H   H60       1.0  0.02405  0.72781  0.19779  1.0000
  H   H61       1.0  0.99454  0.91345  0.61405  1.0000
  H   H62       1.0  0.00546  0.41345  0.88595  1.0000
  H   H63       1.0  0.00546  0.08655  0.38595  1.0000
  H   H64       1.0  0.99454  0.58655  0.11405  1.0000
  C   C1        1.0  0.31146  0.93100  0.39401  1.0000
  C   C2        1.0  0.68854  0.43100  0.10600  1.0000
  C   C3        1.0  0.68854  0.06900  0.60600  1.0000
  C   C4        1.0  0.31146  0.56900  0.89401  1.0000
  C   C5        1.0  0.37616  0.81146  0.45852  1.0000
  C   C6        1.0  0.62384  0.31146  0.04148  1.0000
  C   C7        1.0  0.62384  0.18854  0.54148  1.0000
  C   C8        1.0  0.37616  0.68854  0.95852  1.0000
  C   C9        1.0  0.39505  0.82823  0.57610  1.0000
  C   C10       1.0  0.60495  0.32823  0.92391  1.0000
  C   C11       1.0  0.60495  0.17177  0.42390  1.0000
  C   C12       1.0  0.39505  0.67177  0.07610  1.0000
  C   C13       1.0  0.29346  0.88787  0.72944  1.0000
  C   C14       1.0  0.70654  0.38787  0.77056  1.0000
  C   C15       1.0  0.70654  0.11213  0.27056  1.0000
  C   C16       1.0  0.29346  0.61213  0.22944  1.0000
  C   C17       1.0  0.35142  0.02550  0.76308  1.0000
  C   C18       1.0  0.64858  0.52550  0.73692  1.0000
  C   C19       1.0  0.64858  0.97450  0.23692  1.0000
  C   C20       1.0  0.35142  0.47450  0.26308  1.0000
  C   C21       1.0  0.25823  0.14188  0.71892  1.0000
  C   C22       1.0  0.74177  0.64188  0.78109  1.0000
  C   C23       1.0  0.74177  0.85812  0.28109  1.0000
  C   C24       1.0  0.25823  0.35812  0.21891  1.0000
  C   C25       1.0  0.14619  0.77189  0.57426  1.0000
  C   C26       1.0  0.85381  0.27189  0.92574  1.0000
  C   C27       1.0  0.85381  0.22811  0.42574  1.0000
  C   C28       1.0  0.14619  0.72811  0.07426  1.0000
  C   C29       1.0  0.01570  0.80558  0.61696  1.0000
  C   C30       1.0  0.98430  0.30558  0.88304  1.0000
  C   C31       1.0  0.98430  0.19442  0.38304  1.0000
  C   C32       1.0  0.01570  0.69442  0.11696  1.0000
  N   N1        1.0  0.26326  0.86827  0.61242  1.0000
  N   N2        1.0  0.73674  0.36827  0.88758  1.0000
  N   N3        1.0  0.73674  0.13173  0.38758  1.0000
  N   N4        1.0  0.26326  0.63173  0.11241  1.0000
  N   N5        1.0  0.89110  0.73830  0.55426  1.0000
  N   N6        1.0  0.10890  0.23830  0.94574  1.0000
  N   N7        1.0  0.10890  0.26170  0.44574  1.0000
  N   N8        1.0  0.89110  0.76170  0.05426  1.0000
  Cl  Cl1       1.0  0.34501  0.05621  0.06592  1.0000
  Cl  Cl2       1.0  0.65499  0.55620  0.43408  1.0000
  Cl  Cl3       1.0  0.65499  0.94380  0.93408  1.0000
  Cl  Cl4       1.0  0.34501  0.44380  0.56592  1.0000
  Cl  Cl5       1.0  0.99415  0.05082  0.14272  1.0000
  Cl  Cl6       1.0  0.00585  0.55083  0.35728  1.0000
  Cl  Cl7       1.0  0.00585  0.94917  0.85728  1.0000
  Cl  Cl8       1.0  0.99415  0.44918  0.64272  1.0000
  O   O1        1.0  0.31647  0.92645  0.29574  1.0000
  O   O2        1.0  0.68353  0.42645  0.20426  1.0000
  O   O3        1.0  0.68353  0.07355  0.70426  1.0000
  O   O4        1.0  0.31647  0.57355  0.79574  1.0000
  O   O5        1.0  0.25752  0.02415  0.43686  1.0000
  O   O6        1.0  0.74248  0.52415  0.06314  1.0000
  O   O7        1.0  0.74248  0.97585  0.56314  1.0000
  O   O8        1.0  0.25752  0.47585  0.93686  1.0000
  O   O9        1.0  0.17244  0.12820  0.63330  1.0000
  O   O10       1.0  0.82756  0.62820  0.86670  1.0000
  O   O11       1.0  0.82756  0.87180  0.36670  1.0000
  O   O12       1.0  0.17244  0.37180  0.13330  1.0000
  O   O13       1.0  0.27930  0.25139  0.77214  1.0000
  O   O14       1.0  0.72070  0.75139  0.72786  1.0000
  O   O15       1.0  0.72070  0.74861  0.22786  1.0000
  O   O16       1.0  0.27930  0.24861  0.27214  1.0000
