data_image0
_chemical_formula_structural       H20Pb2C20N4Cl4
_chemical_formula_sum              "H20 Pb2 C20 N4 Cl4"
_cell_length_a       4.13436
_cell_length_b       9.52464
_cell_length_c       16.4086
_cell_angle_alpha    88.3574
_cell_angle_beta     82.7887
_cell_angle_gamma    76.7484

_space_group_name_H-M_alt    "P 1"
_space_group_IT_number       1

loop_
  _space_group_symop_operation_xyz
  'x, y, z'

loop_
  _atom_site_type_symbol
  _atom_site_label
  _atom_site_symmetry_multiplicity
  _atom_site_fract_x
  _atom_site_fract_y
  _atom_site_fract_z
  _atom_site_occupancy
  H   H1        1.0  0.74459  0.85684  0.18294  1.0000
  H   H2        1.0  0.78814  0.14468  0.81757  1.0000
  H   H3        1.0  0.35458  0.64448  0.68233  1.0000
  H   H4        1.0  0.67757  0.35711  0.31697  1.0000
  H   H5        1.0  0.79178  0.63505  0.27146  1.0000
  H   H6        1.0  0.69879  0.36604  0.72853  1.0000
  H   H7        1.0  0.17638  0.86586  0.77138  1.0000
  H   H8        1.0  0.81144  0.13510  0.22861  1.0000
  H   H9        1.0  0.20789  0.40844  0.22015  1.0000
  H   H10       1.0  0.83228  0.59103  0.77960  1.0000
  H   H11       1.0  0.36159  0.09074  0.72050  1.0000
  H   H12       1.0  0.17512  0.90829  0.28005  1.0000
  H   H13       1.0  0.55897  0.41442  0.08523  1.0000
  H   H14       1.0  0.05464  0.58387  0.91469  1.0000
  H   H15       1.0  0.71857  0.08358  0.58538  1.0000
  H   H16       1.0  0.39196  0.91424  0.41492  1.0000
  H   H17       1.0  0.48747  0.64776  0.00588  1.0000
  H   H18       1.0  0.14475  0.35035  0.99408  1.0000
  H   H19       1.0  0.88831  0.85003  0.50605  1.0000
  H   H20       1.0  0.24360  0.14783  0.49401  1.0000
  Pb  Pb1       1.0  0.07598  0.00045  0.00018  1.0000
  Pb  Pb2       1.0  0.82866  0.50045  0.49963  1.0000
  C   C1        1.0  0.92485  0.75645  0.16445  1.0000
  C   C2        1.0  0.84849  0.24423  0.83582  1.0000
  C   C3        1.0  0.43341  0.74399  0.66415  1.0000
  C   C4        1.0  0.83892  0.25663  0.33550  1.0000
  C   C5        1.0  0.95098  0.63288  0.21303  1.0000
  C   C6        1.0  0.79733  0.36761  0.78703  1.0000
  C   C7        1.0  0.33367  0.86738  0.71295  1.0000
  C   C8        1.0  0.91245  0.13294  0.28703  1.0000
  C   C9        1.0  0.18174  0.50783  0.18448  1.0000
  C   C10       1.0  0.87185  0.49181  0.81547  1.0000
  C   C11       1.0  0.43685  0.99155  0.68459  1.0000
  C   C12       1.0  0.11405  0.00776  0.31564  1.0000
  C   C13       1.0  0.37807  0.51071  0.10907  1.0000
  C   C14       1.0  0.99617  0.48819  0.89089  1.0000
  C   C15       1.0  0.63637  0.98792  0.60917  1.0000
  C   C16       1.0  0.23552  0.01064  0.39100  1.0000
  C   C17       1.0  0.33735  0.63930  0.06482  1.0000
  C   C18       1.0  0.04334  0.35971  0.93526  1.0000
  C   C19       1.0  0.72788  0.85941  0.56482  1.0000
  C   C20       1.0  0.15189  0.13936  0.43512  1.0000
  N   N1        1.0  0.11470  0.75998  0.09192  1.0000
  N   N2        1.0  0.97019  0.23997  0.90834  1.0000
  N   N3        1.0  0.62791  0.73966  0.59170  1.0000
  N   N4        1.0  0.95694  0.26016  0.40796  1.0000
  Cl  Cl1       1.0  0.47225  0.12587  0.10183  1.0000
  Cl  Cl2       1.0  0.70552  0.87768  0.89753  1.0000
  Cl  Cl3       1.0  0.35486  0.37766  0.60217  1.0000
  Cl  Cl4       1.0  0.32481  0.62609  0.39811  1.0000
