data_image0
_chemical_formula_structural       K4Tb4H24C16O44
_chemical_formula_sum              "K4 Tb4 H24 C16 O44"
_cell_length_a       7.38036
_cell_length_b       11.8652
_cell_length_c       12.7307
_cell_angle_alpha    99.123
_cell_angle_beta     89.981
_cell_angle_gamma    108.126

_space_group_name_H-M_alt    "P 1"
_space_group_IT_number       1

loop_
  _space_group_symop_operation_xyz
  'x, y, z'

loop_
  _atom_site_type_symbol
  _atom_site_label
  _atom_site_symmetry_multiplicity
  _atom_site_fract_x
  _atom_site_fract_y
  _atom_site_fract_z
  _atom_site_occupancy
  K   K1        1.0  0.40674  0.83492  0.63344  1.0000
  K   K2        1.0  0.57193  0.16545  0.86651  1.0000
  K   K3        1.0  0.59326  0.16508  0.36655  1.0000
  K   K4        1.0  0.42806  0.83455  0.13350  1.0000
  Tb  Tb1       1.0  0.86427  0.72525  0.48405  1.0000
  Tb  Tb2       1.0  0.13909  0.27474  0.01595  1.0000
  Tb  Tb3       1.0  0.13574  0.27475  0.51594  1.0000
  Tb  Tb4       1.0  0.86091  0.72526  0.98405  1.0000
  H   H1        1.0  0.45872  0.10294  0.60559  1.0000
  H   H2        1.0  0.35559  0.89720  0.89436  1.0000
  H   H3        1.0  0.54128  0.89706  0.39441  1.0000
  H   H4        1.0  0.64442  0.10281  0.10564  1.0000
  H   H5        1.0  0.67924  0.12447  0.63843  1.0000
  H   H6        1.0  0.55460  0.87571  0.86151  1.0000
  H   H7        1.0  0.32076  0.87553  0.36158  1.0000
  H   H8        1.0  0.44540  0.12430  0.13849  1.0000
  H   H9        1.0  0.18902  0.62663  0.78231  1.0000
  H   H10       1.0  0.56251  0.37348  0.71775  1.0000
  H   H11       1.0  0.81098  0.37337  0.21768  1.0000
  H   H12       1.0  0.43749  0.62651  0.28225  1.0000
  H   H13       1.0  0.29356  0.55300  0.70668  1.0000
  H   H14       1.0  0.74056  0.44701  0.79346  1.0000
  H   H15       1.0  0.70644  0.44700  0.29331  1.0000
  H   H16       1.0  0.25944  0.55300  0.20654  1.0000
  H   H17       1.0  0.17793  0.63835  0.36935  1.0000
  H   H18       1.0  0.53962  0.36161  0.13047  1.0000
  H   H19       1.0  0.82207  0.36165  0.63065  1.0000
  H   H20       1.0  0.46038  0.63839  0.86953  1.0000
  H   H21       1.0  0.14312  0.58748  0.47822  1.0000
  H   H22       1.0  0.55581  0.41260  0.02165  1.0000
  H   H23       1.0  0.85688  0.41252  0.52178  1.0000
  H   H24       1.0  0.44419  0.58740  0.97835  1.0000
  C   C1        1.0  0.93123  0.69373  0.72864  1.0000
  C   C2        1.0  0.23761  0.30641  0.77133  1.0000
  C   C3        1.0  0.06876  0.30626  0.27136  1.0000
  C   C4        1.0  0.76239  0.69359  0.22867  1.0000
  C   C5        1.0  0.80780  0.77827  0.74184  1.0000
  C   C6        1.0  0.02969  0.22179  0.75817  1.0000
  C   C7        1.0  0.19220  0.22172  0.25815  1.0000
  C   C8        1.0  0.97030  0.77821  0.24184  1.0000
  C   C9        1.0  0.09724  0.00294  0.52648  1.0000
  C   C10       1.0  0.09422  0.99708  0.97344  1.0000
  C   C11       1.0  0.90276  0.99705  0.47353  1.0000
  C   C12       1.0  0.90577  0.00292  0.02656  1.0000
  C   C13       1.0  0.43949  0.54271  0.50939  1.0000
  C   C14       1.0  0.89682  0.45726  0.99060  1.0000
  C   C15       1.0  0.56053  0.45729  0.49061  1.0000
  C   C16       1.0  0.10318  0.54274  0.00939  1.0000
  O   O1        1.0  0.96391  0.65215  0.81065  1.0000
  O   O2        1.0  0.31181  0.34813  0.68935  1.0000
  O   O3        1.0  0.03609  0.34785  0.18935  1.0000
  O   O4        1.0  0.68819  0.65187  0.31065  1.0000
  O   O5        1.0  0.54615  0.07907  0.64914  1.0000
  O   O6        1.0  0.46699  0.92116  0.85085  1.0000
  O   O7        1.0  0.45385  0.92093  0.35086  1.0000
  O   O8        1.0  0.53301  0.07884  0.14915  1.0000
  O   O9        1.0  0.99293  0.67235  0.63779  1.0000
  O   O10       1.0  0.32067  0.32776  0.86216  1.0000
  O   O11       1.0  0.00707  0.32765  0.36221  1.0000
  O   O12       1.0  0.67932  0.67224  0.13784  1.0000
  O   O13       1.0  0.31762  0.62338  0.76252  1.0000
  O   O14       1.0  0.69426  0.37665  0.73760  1.0000
  O   O15       1.0  0.68239  0.37662  0.23748  1.0000
  O   O16       1.0  0.30574  0.62335  0.26240  1.0000
  O   O17       1.0  0.76012  0.80727  0.83542  1.0000
  O   O18       1.0  0.95306  0.19278  0.66459  1.0000
  O   O19       1.0  0.23989  0.19273  0.16458  1.0000
  O   O20       1.0  0.04693  0.80722  0.33540  1.0000
  O   O21       1.0  0.11248  0.64473  0.43797  1.0000
  O   O22       1.0  0.46783  0.35534  0.06189  1.0000
  O   O23       1.0  0.88752  0.35527  0.56203  1.0000
  O   O24       1.0  0.53217  0.64467  0.93811  1.0000
  O   O25       1.0  0.76543  0.81039  0.65786  1.0000
  O   O26       1.0  0.95509  0.18981  0.84218  1.0000
  O   O27       1.0  0.23457  0.18961  0.34215  1.0000
  O   O28       1.0  0.04491  0.81019  0.15781  1.0000
  O   O29       1.0  0.22625  0.10482  0.54306  1.0000
  O   O30       1.0  0.12142  0.89522  0.95690  1.0000
  O   O31       1.0  0.77376  0.89518  0.45694  1.0000
  O   O32       1.0  0.87857  0.10478  0.04310  1.0000
  O   O33       1.0  0.11319  0.90657  0.54920  1.0000
  O   O34       1.0  0.20638  0.09341  0.95053  1.0000
  O   O35       1.0  0.88681  0.09343  0.45081  1.0000
  O   O36       1.0  0.79360  0.90659  0.04947  1.0000
  O   O37       1.0  0.52216  0.65254  0.50768  1.0000
  O   O38       1.0  0.86973  0.34745  0.99228  1.0000
  O   O39       1.0  0.47785  0.34745  0.49232  1.0000
  O   O40       1.0  0.13028  0.65255  0.00772  1.0000
  O   O41       1.0  0.26408  0.49466  0.52546  1.0000
  O   O42       1.0  0.76946  0.50528  0.97452  1.0000
  O   O43       1.0  0.73592  0.50534  0.47454  1.0000
  O   O44       1.0  0.23054  0.49472  0.02548  1.0000
