data_image0
_chemical_formula_structural       Cu4H18C28S2N10
_chemical_formula_sum              "Cu4 H18 C28 S2 N10"
_cell_length_a       5.54201
_cell_length_b       7.86759
_cell_length_c       15.5873
_cell_angle_alpha    90
_cell_angle_beta     89.9996
_cell_angle_gamma    95.7947

_space_group_name_H-M_alt    "P 1"
_space_group_IT_number       1

loop_
  _space_group_symop_operation_xyz
  'x, y, z'

loop_
  _atom_site_type_symbol
  _atom_site_label
  _atom_site_symmetry_multiplicity
  _atom_site_fract_x
  _atom_site_fract_y
  _atom_site_fract_z
  _atom_site_occupancy
  Cu  Cu1       1.0  0.01497  0.72346  0.19551  1.0000
  Cu  Cu2       1.0  0.01498  0.22346  0.80449  1.0000
  Cu  Cu3       1.0  0.17099  0.74528  0.37624  1.0000
  Cu  Cu4       1.0  0.17100  0.24528  0.62376  1.0000
  H   H1        1.0  0.59051  0.25495  0.06442  1.0000
  H   H2        1.0  0.59052  0.75494  0.93558  1.0000
  H   H3        1.0  0.46566  0.30062  0.91380  1.0000
  H   H4        1.0  0.46567  0.80062  0.08620  1.0000
  H   H5        1.0  0.79006  0.03776  0.95355  1.0000
  H   H6        1.0  0.79007  0.53777  0.04645  1.0000
  H   H7        1.0  0.88437  0.98166  0.10701  1.0000
  H   H8        1.0  0.88437  0.48166  0.89299  1.0000
  H   H9        1.0  0.64583  0.25390  0.21664  1.0000
  H   H10       1.0  0.64584  0.75389  0.78336  1.0000
  H   H11       1.0  0.96725  0.21058  0.31283  1.0000
  H   H12       1.0  0.96725  0.71057  0.68717  1.0000
  H   H13       1.0  0.21959  0.28360  0.43889  1.0000
  H   H14       1.0  0.21960  0.78359  0.56111  1.0000
  H   H15       1.0  0.69270  0.05579  0.60432  1.0000
  H   H16       1.0  0.69270  0.55578  0.39568  1.0000
  H   H17       1.0  0.41336  0.97739  0.48305  1.0000
  H   H18       1.0  0.41337  0.47738  0.51695  1.0000
  C   C1        1.0  0.40991  0.20540  0.04291  1.0000
  C   C2        1.0  0.40992  0.70539  0.95710  1.0000
  C   C3        1.0  0.34181  0.23050  0.95868  1.0000
  C   C4        1.0  0.34181  0.73051  0.04132  1.0000
  C   C5        1.0  0.96626  0.08296  0.98086  1.0000
  C   C6        1.0  0.96626  0.58297  0.01914  1.0000
  C   C7        1.0  0.01920  0.05236  0.06609  1.0000
  C   C8        1.0  0.01921  0.55236  0.93390  1.0000
  C   C9        1.0  0.24981  0.11011  0.09894  1.0000
  C   C10       1.0  0.24982  0.61011  0.90106  1.0000
  C   C11       1.0  0.32619  0.06824  0.18476  1.0000
  C   C12       1.0  0.32619  0.56825  0.81524  1.0000
  C   C13       1.0  0.52100  0.14380  0.23339  1.0000
  C   C14       1.0  0.52100  0.64379  0.76661  1.0000
  C   C15       1.0  0.50786  0.05573  0.31176  1.0000
  C   C16       1.0  0.50785  0.55573  0.68823  1.0000
  C   C17       1.0  0.66282  0.08885  0.38607  1.0000
  C   C18       1.0  0.66281  0.58885  0.61393  1.0000
  C   C19       1.0  0.89582  0.17549  0.37611  1.0000
  C   C20       1.0  0.89581  0.67548  0.62389  1.0000
  C   C21       1.0  0.03997  0.21553  0.44696  1.0000
  C   C22       1.0  0.03998  0.71553  0.55304  1.0000
  C   C23       1.0  0.74694  0.08778  0.53859  1.0000
  C   C24       1.0  0.74694  0.58778  0.46140  1.0000
  C   C25       1.0  0.59218  0.04361  0.47050  1.0000
  C   C26       1.0  0.59218  0.54360  0.52950  1.0000
  C   C27       1.0  0.49838  0.58455  0.24244  1.0000
  C   C28       1.0  0.49836  0.08455  0.75756  1.0000
  S   S1        1.0  0.23192  0.51549  0.28135  1.0000
  S   S2        1.0  0.23194  0.01549  0.71865  1.0000
  N   N1        1.0  0.20786  0.93725  0.23117  1.0000
  N   N2        1.0  0.20787  0.43725  0.76883  1.0000
  N   N3        1.0  0.31602  0.93215  0.30873  1.0000
  N   N4        1.0  0.31602  0.43214  0.69127  1.0000
  N   N5        1.0  0.12386  0.16932  0.92655  1.0000
  N   N6        1.0  0.12385  0.66932  0.07345  1.0000
  N   N7        1.0  0.96969  0.17448  0.52832  1.0000
  N   N8        1.0  0.96968  0.67448  0.47167  1.0000
  N   N9        1.0  0.69155  0.63716  0.21581  1.0000
  N   N10       1.0  0.69157  0.13716  0.78419  1.0000
