data_image0
_chemical_formula_structural       Cu12H16C16Br4N24
_chemical_formula_sum              "Cu12 H16 C16 Br4 N24"
_cell_length_a       7.25647
_cell_length_b       8.63773
_cell_length_c       14.1982
_cell_angle_alpha    85.4503
_cell_angle_beta     83.6883
_cell_angle_gamma    81.3476

_space_group_name_H-M_alt    "P 1"
_space_group_IT_number       1

loop_
  _space_group_symop_operation_xyz
  'x, y, z'

loop_
  _atom_site_type_symbol
  _atom_site_label
  _atom_site_symmetry_multiplicity
  _atom_site_fract_x
  _atom_site_fract_y
  _atom_site_fract_z
  _atom_site_occupancy
  Cu  Cu1       1.0  0.35688  0.90633  0.81655  1.0000
  Cu  Cu2       1.0  0.64313  0.09367  0.18344  1.0000
  Cu  Cu3       1.0  0.20339  0.48885  0.02297  1.0000
  Cu  Cu4       1.0  0.79661  0.51115  0.97703  1.0000
  Cu  Cu5       1.0  0.52531  0.15296  0.69036  1.0000
  Cu  Cu6       1.0  0.47469  0.84703  0.30964  1.0000
  Cu  Cu7       1.0  0.70964  0.40952  0.56914  1.0000
  Cu  Cu8       1.0  0.29035  0.59048  0.43086  1.0000
  Cu  Cu9       1.0  0.81951  0.92944  0.78801  1.0000
  Cu  Cu10      1.0  0.18049  0.07056  0.21199  1.0000
  Cu  Cu11      1.0  0.88763  0.85870  0.34259  1.0000
  Cu  Cu12      1.0  0.11237  0.14130  0.65741  1.0000
  H   H1        1.0  0.19186  0.11962  0.01042  1.0000
  H   H2        1.0  0.80814  0.88038  0.98958  1.0000
  H   H3        1.0  0.42582  0.45813  0.82443  1.0000
  H   H4        1.0  0.57418  0.54188  0.17557  1.0000
  H   H5        1.0  0.65472  0.85113  0.54739  1.0000
  H   H6        1.0  0.34528  0.14887  0.45261  1.0000
  H   H7        1.0  0.89298  0.21157  0.38455  1.0000
  H   H8        1.0  0.10701  0.78843  0.61544  1.0000
  H   H9        1.0  0.37164  0.61404  0.68228  1.0000
  H   H10       1.0  0.62836  0.38596  0.31771  1.0000
  H   H11       1.0  0.95207  0.61668  0.66632  1.0000
  H   H12       1.0  0.04793  0.38331  0.33368  1.0000
  H   H13       1.0  0.95925  0.55763  0.21891  1.0000
  H   H14       1.0  0.04075  0.44237  0.78109  1.0000
  H   H15       1.0  0.30429  0.82920  0.03936  1.0000
  H   H16       1.0  0.69571  0.17079  0.96065  1.0000
  C   C1        1.0  0.26791  0.17400  0.94967  1.0000
  C   C2        1.0  0.73209  0.82600  0.05033  1.0000
  C   C3        1.0  0.38494  0.34782  0.85456  1.0000
  C   C4        1.0  0.61507  0.65218  0.14544  1.0000
  C   C5        1.0  0.69933  0.96382  0.52542  1.0000
  C   C6        1.0  0.30067  0.03618  0.47458  1.0000
  C   C7        1.0  0.81988  0.14758  0.44172  1.0000
  C   C8        1.0  0.18012  0.85242  0.55828  1.0000
  C   C9        1.0  0.50655  0.64783  0.69111  1.0000
  C   C10       1.0  0.49345  0.35217  0.30889  1.0000
  C   C11       1.0  0.80236  0.64988  0.68315  1.0000
  C   C12       1.0  0.19764  0.35012  0.31685  1.0000
  C   C13       1.0  0.03689  0.65116  0.19013  1.0000
  C   C14       1.0  0.96312  0.34884  0.80987  1.0000
  C   C15       1.0  0.21069  0.79077  0.09853  1.0000
  C   C16       1.0  0.78931  0.20923  0.90147  1.0000
  Br  Br1       1.0  0.10704  0.73729  0.85879  1.0000
  Br  Br2       1.0  0.89296  0.26270  0.14122  1.0000
  Br  Br3       1.0  0.76349  0.59345  0.40942  1.0000
  Br  Br4       1.0  0.23651  0.40655  0.59058  1.0000
  N   N1        1.0  0.34031  0.10268  0.87124  1.0000
  N   N2        1.0  0.65969  0.89732  0.12876  1.0000
  N   N3        1.0  0.29320  0.32749  0.94225  1.0000
  N   N4        1.0  0.70681  0.67251  0.05775  1.0000
  N   N5        1.0  0.41557  0.21508  0.81011  1.0000
  N   N6        1.0  0.58443  0.78492  0.18989  1.0000
  N   N7        1.0  0.66099  0.09107  0.57551  1.0000
  N   N8        1.0  0.33901  0.90893  0.42449  1.0000
  N   N9        1.0  0.79851  0.99438  0.44099  1.0000
  N   N10       1.0  0.20149  0.00562  0.55901  1.0000
  N   N11       1.0  0.73889  0.20965  0.52146  1.0000
  N   N12       1.0  0.26111  0.79035  0.47854  1.0000
  N   N13       1.0  0.67261  0.57105  0.65455  1.0000
  N   N14       1.0  0.32739  0.42895  0.34545  1.0000
  N   N15       1.0  0.53089  0.76820  0.73947  1.0000
  N   N16       1.0  0.46911  0.23180  0.26053  1.0000
  N   N17       1.0  0.72175  0.76996  0.73415  1.0000
  N   N18       1.0  0.27825  0.23004  0.26585  1.0000
  N   N19       1.0  0.02754  0.78648  0.23049  1.0000
  N   N20       1.0  0.97246  0.21352  0.76951  1.0000
  N   N21       1.0  0.14973  0.64861  0.10752  1.0000
  N   N22       1.0  0.85027  0.35140  0.89249  1.0000
  N   N23       1.0  0.14059  0.87621  0.17168  1.0000
  N   N24       1.0  0.85941  0.12380  0.82833  1.0000
