data_image0
_chemical_formula_structural       Cu12H8C8I8N12
_chemical_formula_sum              "Cu12 H8 C8 I8 N12"
_cell_length_a       4.02551
_cell_length_b       9.49024
_cell_length_c       20.7695
_cell_angle_alpha    98.8923
_cell_angle_beta     90.0009
_cell_angle_gamma    89.9996

_space_group_name_H-M_alt    "P 1"
_space_group_IT_number       1

loop_
  _space_group_symop_operation_xyz
  'x, y, z'

loop_
  _atom_site_type_symbol
  _atom_site_label
  _atom_site_symmetry_multiplicity
  _atom_site_fract_x
  _atom_site_fract_y
  _atom_site_fract_z
  _atom_site_occupancy
  Cu  Cu1       1.0  0.99999  0.50000  0.50000  1.0000
  Cu  Cu2       1.0  0.00002  1.00000  0.00000  1.0000
  Cu  Cu3       1.0  0.50170  0.75000  0.75000  1.0000
  Cu  Cu4       1.0  0.49828  0.25000  0.25000  1.0000
  Cu  Cu5       1.0  0.35278  0.03815  0.67115  1.0000
  Cu  Cu6       1.0  0.35280  0.46185  0.82885  1.0000
  Cu  Cu7       1.0  0.64722  0.96184  0.32885  1.0000
  Cu  Cu8       1.0  0.64720  0.53816  0.17114  1.0000
  Cu  Cu9       1.0  0.84772  0.20980  0.66232  1.0000
  Cu  Cu10      1.0  0.84774  0.29020  0.83769  1.0000
  Cu  Cu11      1.0  0.15228  0.79019  0.33768  1.0000
  Cu  Cu12      1.0  0.15226  0.70980  0.16231  1.0000
  H   H1        1.0  0.07756  0.84007  0.53793  1.0000
  H   H2        1.0  0.07761  0.65993  0.96207  1.0000
  H   H3        1.0  0.92240  0.15993  0.46207  1.0000
  H   H4        1.0  0.92244  0.34007  0.03793  1.0000
  H   H5        1.0  0.38452  0.49694  0.63039  1.0000
  H   H6        1.0  0.38449  0.00306  0.86961  1.0000
  H   H7        1.0  0.61549  0.50306  0.36961  1.0000
  H   H8        1.0  0.61550  0.99694  0.13039  1.0000
  C   C1        1.0  0.18024  0.77798  0.57283  1.0000
  C   C2        1.0  0.18026  0.72203  0.92717  1.0000
  C   C3        1.0  0.81975  0.22202  0.42717  1.0000
  C   C4        1.0  0.81977  0.27797  0.07284  1.0000
  C   C5        1.0  0.33630  0.60372  0.62005  1.0000
  C   C6        1.0  0.33630  0.89628  0.87995  1.0000
  C   C7        1.0  0.66369  0.39627  0.37995  1.0000
  C   C8        1.0  0.66371  0.10372  0.12005  1.0000
  I   I1        1.0  0.84441  0.04435  0.75594  1.0000
  I   I2        1.0  0.84441  0.45565  0.74406  1.0000
  I   I3        1.0  0.15558  0.95565  0.24406  1.0000
  I   I4        1.0  0.15560  0.54435  0.25594  1.0000
  I   I5        1.0  0.34351  0.19922  0.58073  1.0000
  I   I6        1.0  0.34352  0.30078  0.91928  1.0000
  I   I7        1.0  0.65650  0.80077  0.41927  1.0000
  I   I8        1.0  0.65648  0.69924  0.08073  1.0000
  N   N1        1.0  0.18646  0.63271  0.56502  1.0000
  N   N2        1.0  0.18648  0.86730  0.93499  1.0000
  N   N3        1.0  0.81352  0.36729  0.43498  1.0000
  N   N4        1.0  0.81354  0.13270  0.06501  1.0000
  N   N5        1.0  0.41500  0.72327  0.65970  1.0000
  N   N6        1.0  0.41502  0.77674  0.84031  1.0000
  N   N7        1.0  0.58498  0.27673  0.34030  1.0000
  N   N8        1.0  0.58499  0.22327  0.15969  1.0000
  N   N9        1.0  0.31673  0.83528  0.62901  1.0000
  N   N10       1.0  0.31673  0.66473  0.87099  1.0000
  N   N11       1.0  0.68326  0.16472  0.37099  1.0000
  N   N12       1.0  0.68327  0.33528  0.12900  1.0000
