data_image0
_chemical_formula_structural       Cd10H40C32S4O46
_chemical_formula_sum              "Cd10 H40 C32 S4 O46"
_cell_length_a       8.04158
_cell_length_b       12.0933
_cell_length_c       15.244
_cell_angle_alpha    80.0301
_cell_angle_beta     86.7513
_cell_angle_gamma    73.1219

_space_group_name_H-M_alt    "P 1"
_space_group_IT_number       1

loop_
  _space_group_symop_operation_xyz
  'x, y, z'

loop_
  _atom_site_type_symbol
  _atom_site_label
  _atom_site_symmetry_multiplicity
  _atom_site_fract_x
  _atom_site_fract_y
  _atom_site_fract_z
  _atom_site_occupancy
  Cd  Cd1       1.0  0.77360  0.38152  0.34871  1.0000
  Cd  Cd2       1.0  0.22640  0.61848  0.65129  1.0000
  Cd  Cd3       1.0  0.63954  0.38958  0.57487  1.0000
  Cd  Cd4       1.0  0.36046  0.61042  0.42513  1.0000
  Cd  Cd5       1.0  0.51609  0.83853  0.21459  1.0000
  Cd  Cd6       1.0  0.48391  0.16147  0.78541  1.0000
  Cd  Cd7       1.0  0.86084  0.10532  0.92649  1.0000
  Cd  Cd8       1.0  0.13916  0.89468  0.07351  1.0000
  Cd  Cd9       1.0  0.75219  0.11500  0.15805  1.0000
  Cd  Cd10      1.0  0.24781  0.88500  0.84195  1.0000
  H   H1        1.0  0.71277  0.56335  0.43930  1.0000
  H   H2        1.0  0.28723  0.43665  0.56070  1.0000
  H   H3        1.0  0.52000  0.30659  0.27670  1.0000
  H   H4        1.0  0.48000  0.69341  0.72330  1.0000
  H   H5        1.0  0.57228  0.38910  0.19888  1.0000
  H   H6        1.0  0.42772  0.61090  0.80112  1.0000
  H   H7        1.0  0.53180  0.36860  0.74138  1.0000
  H   H8        1.0  0.46820  0.63140  0.25862  1.0000
  H   H9        1.0  0.67661  0.53813  0.69185  1.0000
  H   H10       1.0  0.32339  0.46187  0.30815  1.0000
  H   H11       1.0  0.80454  0.71834  0.31671  1.0000
  H   H12       1.0  0.19546  0.28166  0.68329  1.0000
  H   H13       1.0  0.82609  0.65393  0.23207  1.0000
  H   H14       1.0  0.17391  0.34607  0.76794  1.0000
  H   H15       1.0  0.32457  0.03614  0.12505  1.0000
  H   H16       1.0  0.67543  0.96386  0.87495  1.0000
  H   H17       1.0  0.78740  0.26604  0.76624  1.0000
  H   H18       1.0  0.21260  0.73396  0.23376  1.0000
  H   H19       1.0  0.99717  0.24054  0.78094  1.0000
  H   H20       1.0  0.00283  0.75946  0.21907  1.0000
  H   H21       1.0  0.78508  0.93576  0.06199  1.0000
  H   H22       1.0  0.21492  0.06424  0.93801  1.0000
  H   H23       1.0  0.98242  0.10629  0.29354  1.0000
  H   H24       1.0  0.01757  0.89371  0.70646  1.0000
  H   H25       1.0  0.10714  0.03291  0.22124  1.0000
  H   H26       1.0  0.89286  0.96708  0.77876  1.0000
  H   H27       1.0  0.47328  0.86856  0.40341  1.0000
  H   H28       1.0  0.52672  0.13144  0.59658  1.0000
  H   H29       1.0  0.30304  0.24569  0.36961  1.0000
  H   H30       1.0  0.69696  0.75431  0.63039  1.0000
  H   H31       1.0  0.09675  0.04029  0.58448  1.0000
  H   H32       1.0  0.90326  0.95971  0.41552  1.0000
  H   H33       1.0  0.01461  0.63486  0.09555  1.0000
  H   H34       1.0  0.98540  0.36514  0.90445  1.0000
  H   H35       1.0  0.19083  0.25794  0.13477  1.0000
  H   H36       1.0  0.80917  0.74206  0.86523  1.0000
  H   H37       1.0  0.40215  0.46034  0.92008  1.0000
  H   H38       1.0  0.59785  0.53966  0.07991  1.0000
  H   H39       1.0  0.83014  0.54561  0.62077  1.0000
  H   H40       1.0  0.16986  0.45439  0.37923  1.0000
  C   C1        1.0  0.28018  0.94291  0.49620  1.0000
  C   C2        1.0  0.71983  0.05709  0.50380  1.0000
  C   C3        1.0  0.39018  0.94969  0.42221  1.0000
  C   C4        1.0  0.60983  0.05031  0.57779  1.0000
  C   C5        1.0  0.39835  0.05845  0.37599  1.0000
  C   C6        1.0  0.60165  0.94155  0.62401  1.0000
  C   C7        1.0  0.29751  0.16090  0.40521  1.0000
  C   C8        1.0  0.70250  0.83910  0.59479  1.0000
  C   C9        1.0  0.19209  0.15317  0.48022  1.0000
  C   C10       1.0  0.80791  0.84683  0.51978  1.0000
  C   C11       1.0  0.18022  0.04538  0.52595  1.0000
  C   C12       1.0  0.81978  0.95462  0.47405  1.0000
  C   C13       1.0  0.27671  0.82524  0.54533  1.0000
  C   C14       1.0  0.72329  0.17476  0.45467  1.0000
  C   C15       1.0  0.52092  0.06726  0.29969  1.0000
  C   C16       1.0  0.47908  0.93274  0.70031  1.0000
  C   C17       1.0  0.20959  0.55992  0.00333  1.0000
  C   C18       1.0  0.79041  0.44008  0.99667  1.0000
  C   C19       1.0  0.09747  0.55396  0.07669  1.0000
  C   C20       1.0  0.90254  0.44605  0.92330  1.0000
  C   C21       1.0  0.09282  0.44525  0.12451  1.0000
  C   C22       1.0  0.90718  0.55475  0.87549  1.0000
  C   C23       1.0  0.19738  0.34197  0.09781  1.0000
  C   C24       1.0  0.80262  0.65803  0.90219  1.0000
  C   C25       1.0  0.30465  0.34881  0.02352  1.0000
  C   C26       1.0  0.69535  0.65119  0.97648  1.0000
  C   C27       1.0  0.31452  0.45657  0.97676  1.0000
  C   C28       1.0  0.68548  0.54343  0.02324  1.0000
  C   C29       1.0  0.20965  0.67660  0.95084  1.0000
  C   C30       1.0  0.79035  0.32340  0.04917  1.0000
  C   C31       1.0  0.97246  0.43366  0.20165  1.0000
  C   C32       1.0  0.02754  0.56634  0.79835  1.0000
  S   S1        1.0  0.08172  0.28477  0.52031  1.0000
  S   S2        1.0  0.91828  0.71523  0.47969  1.0000
  S   S3        1.0  0.42645  0.21660  0.98791  1.0000
  S   S4        1.0  0.57355  0.78340  0.01209  1.0000
  O   O1        1.0  0.03244  0.37701  0.44139  1.0000
  O   O2        1.0  0.96756  0.62299  0.55862  1.0000
  O   O3        1.0  0.16441  0.81962  0.60727  1.0000
  O   O4        1.0  0.83559  0.18038  0.39272  1.0000
  O   O5        1.0  0.93324  0.26197  0.57294  1.0000
  O   O6        1.0  0.06676  0.73803  0.42706  1.0000
  O   O7        1.0  0.38855  0.73434  0.52467  1.0000
  O   O8        1.0  0.61145  0.26566  0.47533  1.0000
  O   O9        1.0  0.21076  0.30797  0.57448  1.0000
  O   O10       1.0  0.78924  0.69203  0.42552  1.0000
  O   O11       1.0  0.60798  0.97615  0.26832  1.0000
  O   O12       1.0  0.39202  0.02385  0.73168  1.0000
  O   O13       1.0  0.31470  0.18389  0.92872  1.0000
  O   O14       1.0  0.68530  0.81611  0.07128  1.0000
  O   O15       1.0  0.54211  0.16709  0.26789  1.0000
  O   O16       1.0  0.45788  0.83291  0.73211  1.0000
  O   O17       1.0  0.57447  0.24469  0.93647  1.0000
  O   O18       1.0  0.42553  0.75531  0.06353  1.0000
  O   O19       1.0  0.10054  0.76910  0.96942  1.0000
  O   O20       1.0  0.89945  0.23090  0.03059  1.0000
  O   O21       1.0  0.47542  0.12880  0.06892  1.0000
  O   O22       1.0  0.52459  0.87120  0.93108  1.0000
  O   O23       1.0  0.31914  0.68028  0.88639  1.0000
  O   O24       1.0  0.68086  0.31972  0.11361  1.0000
  O   O25       1.0  0.84755  0.52166  0.21759  1.0000
  O   O26       1.0  0.15245  0.47834  0.78241  1.0000
  O   O27       1.0  0.99520  0.33254  0.24865  1.0000
  O   O28       1.0  0.00480  0.66746  0.75135  1.0000
  O   O29       1.0  0.64810  0.50563  0.43870  1.0000
  O   O30       1.0  0.35190  0.49437  0.56129  1.0000
  O   O31       1.0  0.52880  0.38856  0.26164  1.0000
  O   O32       1.0  0.47120  0.61144  0.73836  1.0000
  O   O33       1.0  0.59577  0.30053  0.71486  1.0000
  O   O34       1.0  0.40423  0.69947  0.28514  1.0000
  O   O35       1.0  0.76777  0.49268  0.65520  1.0000
  O   O36       1.0  0.23223  0.50732  0.34480  1.0000
  O   O37       1.0  0.80052  0.73345  0.25021  1.0000
  O   O38       1.0  0.19948  0.26655  0.74979  1.0000
  O   O39       1.0  0.27892  0.97578  0.16123  1.0000
  O   O40       1.0  0.72108  0.02422  0.83877  1.0000
  O   O41       1.0  0.88407  0.24233  0.81075  1.0000
  O   O42       1.0  0.11593  0.75767  0.18925  1.0000
  O   O43       1.0  0.85194  0.99212  0.06264  1.0000
  O   O44       1.0  0.14805  0.00788  0.93736  1.0000
  O   O45       1.0  0.98812  0.05390  0.25045  1.0000
  O   O46       1.0  0.01188  0.94610  0.74955  1.0000
