data_image0
_chemical_formula_structural       Cu2H16C14N2Cl2O2
_chemical_formula_sum              "Cu2 H16 C14 N2 Cl2 O2"
_cell_length_a       6.16288
_cell_length_b       7.88159
_cell_length_c       8.45628
_cell_angle_alpha    88.2265
_cell_angle_beta     78.8022
_cell_angle_gamma    68.7078

_space_group_name_H-M_alt    "P 1"
_space_group_IT_number       1

loop_
  _space_group_symop_operation_xyz
  'x, y, z'

loop_
  _atom_site_type_symbol
  _atom_site_label
  _atom_site_symmetry_multiplicity
  _atom_site_fract_x
  _atom_site_fract_y
  _atom_site_fract_z
  _atom_site_occupancy
  Cu  Cu1       1.0  0.67512  0.10641  0.50011  1.0000
  Cu  Cu2       1.0  0.32488  0.89358  0.49990  1.0000
  H   H1        1.0  0.78201  0.42617  0.54536  1.0000
  H   H2        1.0  0.21799  0.57383  0.45464  1.0000
  H   H3        1.0  0.80104  0.01927  0.13689  1.0000
  H   H4        1.0  0.19896  0.98074  0.86311  1.0000
  H   H5        1.0  0.64513  0.17299  0.00357  1.0000
  H   H6        1.0  0.35487  0.82701  0.99643  1.0000
  H   H7        1.0  0.72445  0.43715  0.97508  1.0000
  H   H8        1.0  0.27556  0.56285  0.02492  1.0000
  H   H9        1.0  0.78982  0.69832  0.09526  1.0000
  H   H10       1.0  0.21019  0.30169  0.90473  1.0000
  H   H11       1.0  0.27834  0.27224  0.23780  1.0000
  H   H12       1.0  0.72166  0.72776  0.76220  1.0000
  H   H13       1.0  0.37182  0.04526  0.15857  1.0000
  H   H14       1.0  0.62817  0.95474  0.84142  1.0000
  H   H15       1.0  0.82274  0.69145  0.38701  1.0000
  H   H16       1.0  0.17726  0.30855  0.61298  1.0000
  C   C1        1.0  0.71042  0.30001  0.19785  1.0000
  C   C2        1.0  0.28957  0.69999  0.80215  1.0000
  C   C3        1.0  0.76902  0.43660  0.41864  1.0000
  C   C4        1.0  0.23097  0.56341  0.58135  1.0000
  C   C5        1.0  0.65517  0.15024  0.13123  1.0000
  C   C6        1.0  0.34483  0.84976  0.86877  1.0000
  C   C7        1.0  0.73634  0.44187  0.10168  1.0000
  C   C8        1.0  0.26365  0.55812  0.89831  1.0000
  C   C9        1.0  0.77431  0.58538  0.16825  1.0000
  C   C10       1.0  0.22569  0.41463  0.83175  1.0000
  C   C11       1.0  0.42362  0.13684  0.22598  1.0000
  C   C12       1.0  0.57639  0.86314  0.77403  1.0000
  C   C13       1.0  0.79196  0.58252  0.33013  1.0000
  C   C14       1.0  0.20804  0.41748  0.66988  1.0000
  N   N1        1.0  0.72676  0.29921  0.35551  1.0000
  N   N2        1.0  0.27323  0.70081  0.64449  1.0000
  Cl  Cl1       1.0  0.13300  0.86025  0.30986  1.0000
  Cl  Cl2       1.0  0.86700  0.13976  0.69016  1.0000
  O   O1        1.0  0.45387  0.06588  0.37921  1.0000
  O   O2        1.0  0.54613  0.93412  0.62080  1.0000
