data_image0
_chemical_formula_structural       Ni2H60C52N8O14
_chemical_formula_sum              "Ni2 H60 C52 N8 O14"
_cell_length_a       9.69649
_cell_length_b       10.1717
_cell_length_c       15.1261
_cell_angle_alpha    75.0493
_cell_angle_beta     81.4414
_cell_angle_gamma    64.6558

_space_group_name_H-M_alt    "P 1"
_space_group_IT_number       1

loop_
  _space_group_symop_operation_xyz
  'x, y, z'

loop_
  _atom_site_type_symbol
  _atom_site_label
  _atom_site_symmetry_multiplicity
  _atom_site_fract_x
  _atom_site_fract_y
  _atom_site_fract_z
  _atom_site_occupancy
  Ni  Ni1       1.0  0.36760  0.73802  0.14030  1.0000
  Ni  Ni2       1.0  0.63240  0.26198  0.85970  1.0000
  H   H1        1.0  0.03431  0.18131  0.74935  1.0000
  H   H2        1.0  0.96570  0.81869  0.25066  1.0000
  H   H3        1.0  0.77598  0.24754  0.49456  1.0000
  H   H4        1.0  0.22404  0.75245  0.50544  1.0000
  H   H5        1.0  0.38355  0.25595  0.20231  1.0000
  H   H6        1.0  0.61645  0.74405  0.79769  1.0000
  H   H7        1.0  0.32839  0.31993  0.08733  1.0000
  H   H8        1.0  0.67160  0.68007  0.91267  1.0000
  H   H9        1.0  0.14573  0.01994  0.03808  1.0000
  H   H10       1.0  0.85426  0.98005  0.96192  1.0000
  H   H11       1.0  0.38880  0.70416  0.81552  1.0000
  H   H12       1.0  0.61120  0.29584  0.18448  1.0000
  H   H13       1.0  0.44500  0.45322  0.27734  1.0000
  H   H14       1.0  0.55500  0.54678  0.72266  1.0000
  H   H15       1.0  0.07350  0.12708  0.87786  1.0000
  H   H16       1.0  0.92649  0.87292  0.12214  1.0000
  H   H17       1.0  0.44910  0.61479  0.97986  1.0000
  H   H18       1.0  0.55091  0.38521  0.02014  1.0000
  H   H19       1.0  0.52559  0.83399  0.24114  1.0000
  H   H20       1.0  0.47441  0.16601  0.75887  1.0000
  H   H21       1.0  0.01894  0.51372  0.30152  1.0000
  H   H22       1.0  0.98105  0.48628  0.69848  1.0000
  H   H23       1.0  0.20100  0.37053  0.32958  1.0000
  H   H24       1.0  0.79898  0.62947  0.67042  1.0000
  H   H25       1.0  0.12251  0.26205  0.03916  1.0000
  H   H26       1.0  0.87748  0.73796  0.96084  1.0000
  H   H27       1.0  0.03461  0.15867  0.12270  1.0000
  H   H28       1.0  0.96538  0.84134  0.87729  1.0000
  H   H29       1.0  0.67700  0.72794  0.38138  1.0000
  H   H30       1.0  0.32301  0.27206  0.61861  1.0000
  H   H31       1.0  0.82505  0.15657  0.65336  1.0000
  H   H32       1.0  0.17495  0.84343  0.34664  1.0000
  H   H33       1.0  0.82298  0.32995  0.65696  1.0000
  H   H34       1.0  0.17702  0.67006  0.34303  1.0000
  H   H35       1.0  0.59410  0.33189  0.41408  1.0000
  H   H36       1.0  0.40592  0.66811  0.58592  1.0000
  H   H37       1.0  0.94022  0.60755  0.13664  1.0000
  H   H38       1.0  0.05978  0.39245  0.86336  1.0000
  H   H39       1.0  0.06531  0.52796  0.04858  1.0000
  H   H40       1.0  0.93469  0.47205  0.95142  1.0000
  H   H41       1.0  0.25822  0.10218  0.31939  1.0000
  H   H42       1.0  0.74177  0.89783  0.68061  1.0000
  H   H43       1.0  0.11407  0.06662  0.28222  1.0000
  H   H44       1.0  0.88592  0.93339  0.71778  1.0000
  H   H45       1.0  0.86253  0.42895  0.09050  1.0000
  H   H46       1.0  0.13747  0.57106  0.90950  1.0000
  H   H47       1.0  0.81730  0.46028  0.25199  1.0000
  H   H48       1.0  0.18269  0.53973  0.74801  1.0000
  H   H49       1.0  0.84964  0.27731  0.24760  1.0000
  H   H50       1.0  0.15035  0.72270  0.75240  1.0000
  H   H51       1.0  0.00070  0.27016  0.36980  1.0000
  H   H52       1.0  0.99928  0.72984  0.63020  1.0000
  H   H53       1.0  0.08768  0.08774  0.57296  1.0000
  H   H54       1.0  0.91232  0.91226  0.42704  1.0000
  H   H55       1.0  0.07766  0.26666  0.57312  1.0000
  H   H56       1.0  0.92235  0.73334  0.42689  1.0000
  H   H57       1.0  0.71489  0.69951  0.11779  1.0000
  H   H58       1.0  0.28511  0.30049  0.88221  1.0000
  H   H59       1.0  0.58968  0.85665  0.08018  1.0000
  H   H60       1.0  0.41032  0.14335  0.91981  1.0000
  C   C1        1.0  0.28572  0.29938  0.15867  1.0000
  C   C2        1.0  0.71427  0.70062  0.84133  1.0000
  C   C3        1.0  0.19728  0.95421  0.98637  1.0000
  C   C4        1.0  0.80272  0.04578  0.01363  1.0000
  C   C5        1.0  0.34140  0.03631  0.14833  1.0000
  C   C6        1.0  0.65859  0.96368  0.85167  1.0000
  C   C7        1.0  0.33216  0.77806  0.86258  1.0000
  C   C8        1.0  0.66784  0.22194  0.13742  1.0000
  C   C9        1.0  0.49773  0.51120  0.30213  1.0000
  C   C10       1.0  0.50228  0.48880  0.69787  1.0000
  C   C11       1.0  0.15884  0.01289  0.89544  1.0000
  C   C12       1.0  0.84116  0.98711  0.10457  1.0000
  C   C13       1.0  0.19922  0.97662  0.72966  1.0000
  C   C14       1.0  0.80078  0.02337  0.27034  1.0000
  C   C15       1.0  0.22850  0.92449  0.83071  1.0000
  C   C16       1.0  0.77150  0.07550  0.16928  1.0000
  C   C17       1.0  0.36619  0.72710  0.95436  1.0000
  C   C18       1.0  0.63382  0.27290  0.04564  1.0000
  C   C19       1.0  0.22012  0.18166  0.17272  1.0000
  C   C20       1.0  0.77988  0.81834  0.82728  1.0000
  C   C21       1.0  0.54144  0.72434  0.28255  1.0000
  C   C22       1.0  0.45857  0.27566  0.71745  1.0000
  C   C23       1.0  0.21338  0.56967  0.16918  1.0000
  C   C24       1.0  0.78662  0.43034  0.83082  1.0000
  C   C25       1.0  0.10626  0.41027  0.28392  1.0000
  C   C26       1.0  0.89374  0.58973  0.71608  1.0000
  C   C27       1.0  0.16211  0.44346  0.18261  1.0000
  C   C28       1.0  0.83789  0.55654  0.81739  1.0000
  C   C29       1.0  0.08254  0.24237  0.11130  1.0000
  C   C30       1.0  0.91746  0.75764  0.88870  1.0000
  C   C31       1.0  0.62719  0.66407  0.35987  1.0000
  C   C32       1.0  0.37282  0.33593  0.64012  1.0000
  C   C33       1.0  0.86402  0.24371  0.61683  1.0000
  C   C34       1.0  0.13598  0.75629  0.38317  1.0000
  C   C35       1.0  0.58346  0.44376  0.37980  1.0000
  C   C36       1.0  0.41655  0.55624  0.62020  1.0000
  C   C37       1.0  0.02612  0.50240  0.12039  1.0000
  C   C38       1.0  0.97388  0.49761  0.87961  1.0000
  C   C39       1.0  0.16218  0.14958  0.27349  1.0000
  C   C40       1.0  0.83781  0.85043  0.72651  1.0000
  C   C41       1.0  0.95951  0.38626  0.13510  1.0000
  C   C42       1.0  0.04049  0.61375  0.86490  1.0000
  C   C43       1.0  0.65053  0.52050  0.41024  1.0000
  C   C44       1.0  0.34949  0.47950  0.58976  1.0000
  C   C45       1.0  0.90414  0.35573  0.23543  1.0000
  C   C46       1.0  0.09585  0.64428  0.76457  1.0000
  C   C47       1.0  0.03960  0.29405  0.29755  1.0000
  C   C48       1.0  0.96039  0.70596  0.70245  1.0000
  C   C49       1.0  0.03940  0.17860  0.61001  1.0000
  C   C50       1.0  0.96060  0.82139  0.38999  1.0000
  C   C51       1.0  0.74206  0.46132  0.49430  1.0000
  C   C52       1.0  0.25795  0.53867  0.50570  1.0000
  N   N1        1.0  0.30100  0.81424  0.01593  1.0000
  N   N2        1.0  0.69900  0.18575  0.98407  1.0000
  N   N3        1.0  0.47621  0.64943  0.25306  1.0000
  N   N4        1.0  0.52379  0.35057  0.74694  1.0000
  N   N5        1.0  0.09488  0.11804  0.70229  1.0000
  N   N6        1.0  0.90512  0.88195  0.29771  1.0000
  N   N7        1.0  0.79280  0.31209  0.52926  1.0000
  N   N8        1.0  0.20721  0.68790  0.47074  1.0000
  O   O1        1.0  0.11929  0.69167  0.18746  1.0000
  O   O2        1.0  0.88072  0.30833  0.81254  1.0000
  O   O3        1.0  0.35318  0.54817  0.14003  1.0000
  O   O4        1.0  0.64683  0.45182  0.85997  1.0000
  O   O5        1.0  0.28951  0.93359  0.16233  1.0000
  O   O6        1.0  0.71049  0.06641  0.83767  1.0000
  O   O7        1.0  0.47438  0.02063  0.12061  1.0000
  O   O8        1.0  0.52561  0.97938  0.87939  1.0000
  O   O9        1.0  0.26860  0.89165  0.67614  1.0000
  O   O10       1.0  0.73140  0.10834  0.32386  1.0000
  O   O11       1.0  0.76544  0.54664  0.52986  1.0000
  O   O12       1.0  0.23458  0.45335  0.47014  1.0000
  O   O13       1.0  0.65245  0.75721  0.06510  1.0000
  O   O14       1.0  0.34754  0.24279  0.93490  1.0000
