data_image0
_chemical_formula_structural       Cu4Si2H24C24N12F12
_chemical_formula_sum              "Cu4 Si2 H24 C24 N12 F12"
_cell_length_a       10.5948
_cell_length_b       10.5949
_cell_length_c       10.5949
_cell_angle_alpha    68.1042
_cell_angle_beta     75.2757
_cell_angle_gamma    111.896

_space_group_name_H-M_alt    "P 1"
_space_group_IT_number       1

loop_
  _space_group_symop_operation_xyz
  'x, y, z'

loop_
  _atom_site_type_symbol
  _atom_site_label
  _atom_site_symmetry_multiplicity
  _atom_site_fract_x
  _atom_site_fract_y
  _atom_site_fract_z
  _atom_site_occupancy
  Cu  Cu1       1.0  0.29722  0.09444  0.20278  1.0000
  Cu  Cu2       1.0  0.79722  0.50000  0.29722  1.0000
  Cu  Cu3       1.0  0.70278  0.90556  0.79722  1.0000
  Cu  Cu4       1.0  0.20279  0.50000  0.70279  1.0000
  Si  Si1       1.0  1.00000  0.00000  1.00000  1.0000
  Si  Si2       1.0  0.50000  0.00000  0.50000  1.0000
  H   H1        1.0  0.29049  0.02006  0.96021  1.0000
  H   H2        1.0  0.03979  0.74930  0.98027  1.0000
  H   H3        1.0  0.48027  0.25070  0.53979  1.0000
  H   H4        1.0  0.01974  0.97995  0.72956  1.0000
  H   H5        1.0  0.46021  0.97995  0.79049  1.0000
  H   H6        1.0  0.27044  0.25070  0.70951  1.0000
  H   H7        1.0  0.20951  0.74930  0.77044  1.0000
  H   H8        1.0  0.22957  0.02005  0.51973  1.0000
  H   H9        1.0  0.70951  0.97995  0.03979  1.0000
  H   H10       1.0  0.96021  0.25070  0.01973  1.0000
  H   H11       1.0  0.51974  0.74930  0.46021  1.0000
  H   H12       1.0  0.98026  0.02005  0.27043  1.0000
  H   H13       1.0  0.53979  0.02005  0.20951  1.0000
  H   H14       1.0  0.72957  0.74930  0.29049  1.0000
  H   H15       1.0  0.79049  0.25070  0.22957  1.0000
  H   H16       1.0  0.77044  0.97995  0.48026  1.0000
  H   H17       1.0  0.30048  0.34880  0.95168  1.0000
  H   H18       1.0  0.04832  0.74784  0.30048  1.0000
  H   H19       1.0  0.80049  0.25216  0.54832  1.0000
  H   H20       1.0  0.69951  0.65119  0.04832  1.0000
  H   H21       1.0  0.45168  0.65119  0.80049  1.0000
  H   H22       1.0  0.95168  0.25217  0.69952  1.0000
  H   H23       1.0  0.19952  0.74784  0.45168  1.0000
  H   H24       1.0  0.54832  0.34880  0.19952  1.0000
  C   C1        1.0  0.38389  0.01106  0.97896  1.0000
  C   C2        1.0  0.02104  0.63715  0.99002  1.0000
  C   C3        1.0  0.49002  0.36285  0.52104  1.0000
  C   C4        1.0  0.00997  0.98894  0.62718  1.0000
  C   C5        1.0  0.47896  0.98894  0.88388  1.0000
  C   C6        1.0  0.37282  0.36285  0.61611  1.0000
  C   C7        1.0  0.11612  0.63715  0.87282  1.0000
  C   C8        1.0  0.12717  0.01106  0.50998  1.0000
  C   C9        1.0  0.61612  0.98894  0.02104  1.0000
  C   C10       1.0  0.97896  0.36285  0.00997  1.0000
  C   C11       1.0  0.50997  0.63715  0.47896  1.0000
  C   C12       1.0  0.99002  0.01106  0.37283  1.0000
  C   C13       1.0  0.52104  0.01106  0.11611  1.0000
  C   C14       1.0  0.62717  0.63715  0.38389  1.0000
  C   C15       1.0  0.88389  0.36285  0.12717  1.0000
  C   C16       1.0  0.87282  0.98894  0.49003  1.0000
  C   C17       1.0  0.38996  0.41724  0.97272  1.0000
  C   C18       1.0  0.02729  0.63733  0.38996  1.0000
  C   C19       1.0  0.88996  0.36267  0.52729  1.0000
  C   C20       1.0  0.61005  0.58276  0.02729  1.0000
  C   C21       1.0  0.47271  0.58276  0.88995  1.0000
  C   C22       1.0  0.97272  0.36267  0.61005  1.0000
  C   C23       1.0  0.11005  0.63733  0.47272  1.0000
  C   C24       1.0  0.52728  0.41724  0.11004  1.0000
  N   N1        1.0  0.41662  0.33324  0.08338  1.0000
  N   N2        1.0  0.91662  0.50000  0.41662  1.0000
  N   N3        1.0  0.58337  0.66675  0.91662  1.0000
  N   N4        1.0  0.08338  0.50000  0.58338  1.0000
  N   N5        1.0  0.40344  0.02304  0.09656  1.0000
  N   N6        1.0  0.90344  0.50000  0.11961  1.0000
  N   N7        1.0  0.61961  0.50000  0.40344  1.0000
  N   N8        1.0  0.88041  0.97696  0.61959  1.0000
  N   N9        1.0  0.59655  0.97696  0.90345  1.0000
  N   N10       1.0  0.38041  0.50000  0.59655  1.0000
  N   N11       1.0  0.09655  0.50000  0.88041  1.0000
  N   N12       1.0  0.11960  0.02304  0.38039  1.0000
  F   F1        1.0  0.14252  0.11286  0.02967  1.0000
  F   F2        1.0  0.97033  0.82781  0.14253  1.0000
  F   F3        1.0  0.64253  0.17220  0.47033  1.0000
  F   F4        1.0  0.85747  0.88714  0.97033  1.0000
  F   F5        1.0  0.52967  0.88714  0.64252  1.0000
  F   F6        1.0  0.02967  0.17219  0.85747  1.0000
  F   F7        1.0  0.35748  0.82781  0.52967  1.0000
  F   F8        1.0  0.47033  0.11286  0.35747  1.0000
  F   F9        1.0  0.13184  0.00000  0.86815  1.0000
  F   F10       1.0  0.36815  0.00000  0.63184  1.0000
  F   F11       1.0  0.86815  1.00000  0.13184  1.0000
  F   F12       1.0  0.63185  0.00000  0.36815  1.0000
