data_image0
_chemical_formula_structural       Cu4H10C6S2N8Cl2O2
_chemical_formula_sum              "Cu4 H10 C6 S2 N8 Cl2 O2"
_cell_length_a       6.02642
_cell_length_b       6.9977
_cell_length_c       10.1551
_cell_angle_alpha    78.3317
_cell_angle_beta     74.1076
_cell_angle_gamma    76.2961

_space_group_name_H-M_alt    "P 1"
_space_group_IT_number       1

loop_
  _space_group_symop_operation_xyz
  'x, y, z'

loop_
  _atom_site_type_symbol
  _atom_site_label
  _atom_site_symmetry_multiplicity
  _atom_site_fract_x
  _atom_site_fract_y
  _atom_site_fract_z
  _atom_site_occupancy
  Cu  Cu1       1.0  0.55522  0.19799  0.48380  1.0000
  Cu  Cu2       1.0  0.44481  0.80202  0.51619  1.0000
  Cu  Cu3       1.0  0.14863  0.53143  0.37663  1.0000
  Cu  Cu4       1.0  0.85141  0.46857  0.62336  1.0000
  H   H1        1.0  0.17983  0.09558  0.85575  1.0000
  H   H2        1.0  0.82014  0.90441  0.14426  1.0000
  H   H3        1.0  0.07122  0.40216  0.13361  1.0000
  H   H4        1.0  0.92878  0.59784  0.86639  1.0000
  H   H5        1.0  0.92279  0.25157  0.07792  1.0000
  H   H6        1.0  0.07719  0.74843  0.92209  1.0000
  H   H7        1.0  0.26213  0.38004  0.88912  1.0000
  H   H8        1.0  0.73785  0.61994  0.11088  1.0000
  H   H9        1.0  0.45837  0.23060  0.98996  1.0000
  H   H10       1.0  0.54162  0.76940  0.01003  1.0000
  C   C1        1.0  0.27564  0.09722  0.29557  1.0000
  C   C2        1.0  0.72436  0.90278  0.70443  1.0000
  C   C3        1.0  0.09148  0.26166  0.09516  1.0000
  C   C4        1.0  0.90853  0.73834  0.90485  1.0000
  C   C5        1.0  0.28954  0.24373  0.96390  1.0000
  C   C6        1.0  0.71045  0.75627  0.03610  1.0000
  S   S1        1.0  0.42297  0.27881  0.29706  1.0000
  S   S2        1.0  0.57705  0.72120  0.70294  1.0000
  N   N1        1.0  0.28463  0.91575  0.37240  1.0000
  N   N2        1.0  0.71538  0.08425  0.62761  1.0000
  N   N3        1.0  0.16095  0.81608  0.32517  1.0000
  N   N4        1.0  0.83905  0.18393  0.67483  1.0000
  N   N5        1.0  0.07213  0.92836  0.22580  1.0000
  N   N6        1.0  0.92786  0.07164  0.77420  1.0000
  N   N7        1.0  0.14049  0.10400  0.20686  1.0000
  N   N8        1.0  0.85951  0.89602  0.79313  1.0000
  Cl  Cl1       1.0  0.22906  0.48759  0.61876  1.0000
  Cl  Cl2       1.0  0.77097  0.51240  0.38123  1.0000
  O   O1        1.0  0.30522  0.07159  0.90556  1.0000
  O   O2        1.0  0.69476  0.92841  0.09444  1.0000
