data_image0
_chemical_formula_structural       Cu8H30C18S6I2N24O6
_chemical_formula_sum              "Cu8 H30 C18 S6 I2 N24 O6"
_cell_length_a       10.2654
_cell_length_b       10.2652
_cell_length_c       10.2653
_cell_angle_alpha    84.5784
_cell_angle_beta     84.5778
_cell_angle_gamma    84.5769

_space_group_name_H-M_alt    "P 1"
_space_group_IT_number       1

loop_
  _space_group_symop_operation_xyz
  'x, y, z'

loop_
  _atom_site_type_symbol
  _atom_site_label
  _atom_site_symmetry_multiplicity
  _atom_site_fract_x
  _atom_site_fract_y
  _atom_site_fract_z
  _atom_site_occupancy
  Cu  Cu1       1.0  0.08165  0.08166  0.08165  1.0000
  Cu  Cu2       1.0  0.91834  0.91835  0.91835  1.0000
  Cu  Cu3       1.0  0.10292  0.34860  0.02611  1.0000
  Cu  Cu4       1.0  0.02612  0.10294  0.34860  1.0000
  Cu  Cu5       1.0  0.34860  0.02612  0.10293  1.0000
  Cu  Cu6       1.0  0.89707  0.65140  0.97387  1.0000
  Cu  Cu7       1.0  0.97388  0.89708  0.65140  1.0000
  Cu  Cu8       1.0  0.65140  0.97389  0.89707  1.0000
  H   H1        1.0  0.42507  0.65611  0.38628  1.0000
  H   H2        1.0  0.38629  0.42505  0.65612  1.0000
  H   H3        1.0  0.65618  0.38625  0.42506  1.0000
  H   H4        1.0  0.57495  0.34386  0.61372  1.0000
  H   H5        1.0  0.61373  0.57491  0.34387  1.0000
  H   H6        1.0  0.34387  0.61371  0.57494  1.0000
  H   H7        1.0  0.15855  0.57765  0.20404  1.0000
  H   H8        1.0  0.20403  0.15854  0.57764  1.0000
  H   H9        1.0  0.57759  0.20409  0.15855  1.0000
  H   H10       1.0  0.84145  0.42240  0.79596  1.0000
  H   H11       1.0  0.79594  0.84145  0.42237  1.0000
  H   H12       1.0  0.42236  0.79594  0.84146  1.0000
  H   H13       1.0  0.21949  0.51446  0.35661  1.0000
  H   H14       1.0  0.35661  0.21947  0.51445  1.0000
  H   H15       1.0  0.51446  0.35666  0.21955  1.0000
  H   H16       1.0  0.78050  0.48556  0.64339  1.0000
  H   H17       1.0  0.64337  0.78048  0.48554  1.0000
  H   H18       1.0  0.48554  0.64337  0.78050  1.0000
  H   H19       1.0  0.38756  0.52500  0.15787  1.0000
  H   H20       1.0  0.15789  0.38756  0.52498  1.0000
  H   H21       1.0  0.52496  0.15791  0.38757  1.0000
  H   H22       1.0  0.61243  0.47503  0.84211  1.0000
  H   H23       1.0  0.84212  0.61243  0.47500  1.0000
  H   H24       1.0  0.47502  0.84210  0.61244  1.0000
  H   H25       1.0  0.36601  0.69862  0.15161  1.0000
  H   H26       1.0  0.15161  0.36600  0.69861  1.0000
  H   H27       1.0  0.69859  0.15155  0.36598  1.0000
  H   H28       1.0  0.63401  0.30140  0.84842  1.0000
  H   H29       1.0  0.84841  0.63400  0.30138  1.0000
  H   H30       1.0  0.30139  0.84841  0.63400  1.0000
  C   C1        1.0  0.14956  0.83862  0.28325  1.0000
  C   C2        1.0  0.28324  0.14955  0.83861  1.0000
  C   C3        1.0  0.83861  0.28325  0.14956  1.0000
  C   C4        1.0  0.85045  0.16140  0.71676  1.0000
  C   C5        1.0  0.71675  0.85044  0.16138  1.0000
  C   C6        1.0  0.16138  0.71675  0.85044  1.0000
  C   C7        1.0  0.22191  0.59611  0.27991  1.0000
  C   C8        1.0  0.27990  0.22190  0.59610  1.0000
  C   C9        1.0  0.59609  0.27993  0.22193  1.0000
  C   C10       1.0  0.77809  0.40392  0.72010  1.0000
  C   C11       1.0  0.72009  0.77808  0.40390  1.0000
  C   C12       1.0  0.40390  0.72008  0.77808  1.0000
  C   C13       1.0  0.36208  0.60822  0.21814  1.0000
  C   C14       1.0  0.21814  0.36207  0.60820  1.0000
  C   C15       1.0  0.60821  0.21813  0.36208  1.0000
  C   C16       1.0  0.63792  0.39180  0.78187  1.0000
  C   C17       1.0  0.78187  0.63791  0.39178  1.0000
  C   C18       1.0  0.39179  0.78186  0.63791  1.0000
  S   S1        1.0  0.18905  0.88235  0.12055  1.0000
  S   S2        1.0  0.12055  0.18904  0.88234  1.0000
  S   S3        1.0  0.88235  0.12055  0.18907  1.0000
  S   S4        1.0  0.81094  0.11766  0.87946  1.0000
  S   S5        1.0  0.87945  0.81095  0.11765  1.0000
  S   S6        1.0  0.11765  0.87945  0.81095  1.0000
  I   I1        1.0  0.23486  0.23487  0.23486  1.0000
  I   I2        1.0  0.76514  0.76515  0.76513  1.0000
  N   N1        1.0  0.08668  0.91237  0.37603  1.0000
  N   N2        1.0  0.37603  0.08668  0.91236  1.0000
  N   N3        1.0  0.91235  0.37603  0.08668  1.0000
  N   N4        1.0  0.91332  0.08766  0.62398  1.0000
  N   N5        1.0  0.62397  0.91332  0.08764  1.0000
  N   N6        1.0  0.08763  0.62397  0.91331  1.0000
  N   N7        1.0  0.06285  0.82877  0.48559  1.0000
  N   N8        1.0  0.48559  0.06285  0.82876  1.0000
  N   N9        1.0  0.82875  0.48559  0.06284  1.0000
  N   N10       1.0  0.93717  0.17126  0.51442  1.0000
  N   N11       1.0  0.51440  0.93715  0.17124  1.0000
  N   N12       1.0  0.17123  0.51441  0.93714  1.0000
  N   N13       1.0  0.10899  0.70875  0.46614  1.0000
  N   N14       1.0  0.46614  0.10898  0.70874  1.0000
  N   N15       1.0  0.70873  0.46614  0.10899  1.0000
  N   N16       1.0  0.89103  0.29128  0.53388  1.0000
  N   N17       1.0  0.53386  0.89100  0.29126  1.0000
  N   N18       1.0  0.29125  0.53385  0.89100  1.0000
  N   N19       1.0  0.16481  0.71365  0.34118  1.0000
  N   N20       1.0  0.34118  0.16480  0.71364  1.0000
  N   N21       1.0  0.71364  0.34119  0.16482  1.0000
  N   N22       1.0  0.83520  0.28637  0.65883  1.0000
  N   N23       1.0  0.65881  0.83518  0.28635  1.0000
  N   N24       1.0  0.28635  0.65881  0.83518  1.0000
  O   O1        1.0  0.45578  0.60193  0.31208  1.0000
  O   O2        1.0  0.31209  0.45576  0.60193  1.0000
  O   O3        1.0  0.60202  0.31205  0.45579  1.0000
  O   O4        1.0  0.54424  0.39804  0.68792  1.0000
  O   O5        1.0  0.68794  0.54421  0.39804  1.0000
  O   O6        1.0  0.39804  0.68792  0.54422  1.0000
