data_image0
_chemical_formula_structural       Cd3H28C12I6N8O2
_chemical_formula_sum              "Cd3 H28 C12 I6 N8 O2"
_cell_length_a       7.86653
_cell_length_b       9.28136
_cell_length_c       10.4061
_cell_angle_alpha    89.7769
_cell_angle_beta     87.4999
_cell_angle_gamma    74.7865

_space_group_name_H-M_alt    "P 1"
_space_group_IT_number       1

loop_
  _space_group_symop_operation_xyz
  'x, y, z'

loop_
  _atom_site_type_symbol
  _atom_site_label
  _atom_site_symmetry_multiplicity
  _atom_site_fract_x
  _atom_site_fract_y
  _atom_site_fract_z
  _atom_site_occupancy
  Cd  Cd1       1.0  1.00000  0.00000  1.00000  1.0000
  Cd  Cd2       1.0  0.10813  0.60467  0.72854  1.0000
  Cd  Cd3       1.0  0.89186  0.39533  0.27147  1.0000
  H   H1        1.0  0.11975  0.33151  0.93159  1.0000
  H   H2        1.0  0.88025  0.66849  0.06840  1.0000
  H   H3        1.0  0.97945  0.31364  0.80500  1.0000
  H   H4        1.0  0.02055  0.68636  0.19500  1.0000
  H   H5        1.0  0.08805  0.30341  0.58263  1.0000
  H   H6        1.0  0.91195  0.69659  0.41736  1.0000
  H   H7        1.0  0.30868  0.31610  0.54546  1.0000
  H   H8        1.0  0.69132  0.68391  0.45454  1.0000
  H   H9        1.0  0.49568  0.34294  0.71567  1.0000
  H   H10       1.0  0.50432  0.65706  0.28432  1.0000
  H   H11       1.0  0.41720  0.34836  0.88043  1.0000
  H   H12       1.0  0.58280  0.65164  0.11956  1.0000
  H   H13       1.0  0.36559  0.13110  0.97871  1.0000
  H   H14       1.0  0.63442  0.86890  0.02129  1.0000
  H   H15       1.0  0.41087  0.95793  0.88976  1.0000
  H   H16       1.0  0.58913  0.04207  0.11024  1.0000
  H   H17       1.0  0.22139  0.93214  0.71741  1.0000
  H   H18       1.0  0.77861  0.06787  0.28258  1.0000
  H   H19       1.0  0.03780  0.08485  0.68233  1.0000
  H   H20       1.0  0.96219  0.91515  0.31767  1.0000
  H   H21       1.0  0.55436  0.10877  0.59384  1.0000
  H   H22       1.0  0.44565  0.89123  0.40615  1.0000
  H   H23       1.0  0.51460  0.94703  0.67022  1.0000
  H   H24       1.0  0.48539  0.05298  0.32978  1.0000
  H   H25       1.0  0.30362  0.94265  0.17520  1.0000
  H   H26       1.0  0.69639  0.05735  0.82480  1.0000
  H   H27       1.0  0.18950  0.11096  0.19070  1.0000
  H   H28       1.0  0.81050  0.88904  0.80931  1.0000
  C   C1        1.0  0.11561  0.28212  0.83626  1.0000
  C   C2        1.0  0.88440  0.71788  0.16375  1.0000
  C   C3        1.0  0.22457  0.27204  0.61364  1.0000
  C   C4        1.0  0.77542  0.72796  0.38635  1.0000
  C   C5        1.0  0.41266  0.29928  0.78508  1.0000
  C   C6        1.0  0.58733  0.70072  0.21493  1.0000
  C   C7        1.0  0.36313  0.08003  0.88399  1.0000
  C   C8        1.0  0.63687  0.91997  0.11601  1.0000
  C   C9        1.0  0.17447  0.05420  0.71238  1.0000
  C   C10       1.0  0.82555  0.94578  0.28762  1.0000
  C   C11       1.0  0.46760  0.06915  0.66295  1.0000
  C   C12       1.0  0.53239  0.93083  0.33706  1.0000
  I   I1        1.0  0.25499  0.70470  0.94562  1.0000
  I   I2        1.0  0.74500  0.29530  0.05438  1.0000
  I   I3        1.0  0.74960  0.64524  0.77686  1.0000
  I   I4        1.0  0.25040  0.35476  0.22315  1.0000
  I   I5        1.0  0.25250  0.68859  0.50720  1.0000
  I   I6        1.0  0.74749  0.31140  0.49280  1.0000
  N   N1        1.0  0.22770  0.34259  0.74311  1.0000
  N   N2        1.0  0.77230  0.65741  0.25688  1.0000
  N   N3        1.0  0.17774  0.11770  0.84447  1.0000
  N   N4        1.0  0.82226  0.88230  0.15553  1.0000
  N   N5        1.0  0.28692  0.11012  0.62048  1.0000
  N   N6        1.0  0.71307  0.88989  0.37952  1.0000
  N   N7        1.0  0.47849  0.13554  0.79203  1.0000
  N   N8        1.0  0.52151  0.86447  0.20797  1.0000
  O   O1        1.0  0.17902  0.00972  0.16980  1.0000
  O   O2        1.0  0.82099  0.99028  0.83019  1.0000
