data_image0
_chemical_formula_structural       Gd3H15C18N6O21
_chemical_formula_sum              "Gd3 H15 C18 N6 O21"
_cell_length_a       9.72524
_cell_length_b       9.72524
_cell_length_c       9.72524
_cell_angle_alpha    79.5258
_cell_angle_beta     79.5258
_cell_angle_gamma    79.5258

_space_group_name_H-M_alt    "P 1"
_space_group_IT_number       1

loop_
  _space_group_symop_operation_xyz
  'x, y, z'

loop_
  _atom_site_type_symbol
  _atom_site_label
  _atom_site_symmetry_multiplicity
  _atom_site_fract_x
  _atom_site_fract_y
  _atom_site_fract_z
  _atom_site_occupancy
  Gd  Gd1       1.0  0.50000  0.00957  0.99043  1.0000
  Gd  Gd2       1.0  0.99043  0.50000  0.00958  1.0000
  Gd  Gd3       1.0  0.00958  0.99043  0.50000  1.0000
  H   H1        1.0  0.41228  0.58773  1.00000  1.0000
  H   H2        1.0  1.00000  0.41228  0.58773  1.0000
  H   H3        1.0  0.58773  0.00000  0.41228  1.0000
  H   H4        1.0  0.76619  0.85505  0.07481  1.0000
  H   H5        1.0  0.07481  0.76619  0.85505  1.0000
  H   H6        1.0  0.85505  0.07481  0.76619  1.0000
  H   H7        1.0  0.92519  0.14495  0.23382  1.0000
  H   H8        1.0  0.14496  0.23382  0.92519  1.0000
  H   H9        1.0  0.23382  0.92519  0.14496  1.0000
  H   H10       1.0  0.76761  0.02396  0.06253  1.0000
  H   H11       1.0  0.06253  0.76761  0.02397  1.0000
  H   H12       1.0  0.02397  0.06253  0.76762  1.0000
  H   H13       1.0  0.93748  0.97604  0.23239  1.0000
  H   H14       1.0  0.97604  0.23239  0.93748  1.0000
  H   H15       1.0  0.23239  0.93748  0.97604  1.0000
  C   C1        1.0  0.66883  0.66569  0.00179  1.0000
  C   C2        1.0  0.00179  0.66883  0.66569  1.0000
  C   C3        1.0  0.66570  0.00179  0.66883  1.0000
  C   C4        1.0  0.99821  0.33431  0.33118  1.0000
  C   C5        1.0  0.33431  0.33118  0.99821  1.0000
  C   C6        1.0  0.33118  0.99821  0.33431  1.0000
  C   C7        1.0  0.63802  0.51949  0.99951  1.0000
  C   C8        1.0  0.99951  0.63802  0.51949  1.0000
  C   C9        1.0  0.51949  0.99951  0.63802  1.0000
  C   C10       1.0  0.00050  0.48051  0.36199  1.0000
  C   C11       1.0  0.48051  0.36199  0.00050  1.0000
  C   C12       1.0  0.36199  0.00050  0.48051  1.0000
  C   C13       1.0  0.49965  0.50036  0.00000  1.0000
  C   C14       1.0  0.00000  0.49965  0.50036  1.0000
  C   C15       1.0  0.50036  0.00000  0.49965  1.0000
  C   C16       1.0  0.72123  0.27878  0.00000  1.0000
  C   C17       1.0  0.00000  0.72122  0.27878  1.0000
  C   C18       1.0  0.27878  0.00000  0.72122  1.0000
  N   N1        1.0  0.74736  0.41361  0.00131  1.0000
  N   N2        1.0  0.00131  0.74735  0.41361  1.0000
  N   N3        1.0  0.41361  0.00131  0.74736  1.0000
  N   N4        1.0  0.99870  0.58639  0.25265  1.0000
  N   N5        1.0  0.58639  0.25265  0.99870  1.0000
  N   N6        1.0  0.25265  0.99870  0.58639  1.0000
  O   O1        1.0  0.57398  0.76843  0.97292  1.0000
  O   O2        1.0  0.97292  0.57398  0.76843  1.0000
  O   O3        1.0  0.76843  0.97292  0.57398  1.0000
  O   O4        1.0  0.02709  0.23157  0.42603  1.0000
  O   O5        1.0  0.23157  0.42603  0.02709  1.0000
  O   O6        1.0  0.42603  0.02709  0.23157  1.0000
  O   O7        1.0  0.78770  0.67430  0.03534  1.0000
  O   O8        1.0  0.03534  0.78770  0.67430  1.0000
  O   O9        1.0  0.67430  0.03533  0.78770  1.0000
  O   O10       1.0  0.96467  0.32571  0.21230  1.0000
  O   O11       1.0  0.32571  0.21230  0.96467  1.0000
  O   O12       1.0  0.21230  0.96467  0.32571  1.0000
  O   O13       1.0  0.82367  0.17634  0.00000  1.0000
  O   O14       1.0  0.00000  0.82366  0.17634  1.0000
  O   O15       1.0  0.17634  0.00000  0.82367  1.0000
  O   O16       1.0  0.70830  0.94613  0.09367  1.0000
  O   O17       1.0  0.09367  0.70830  0.94613  1.0000
  O   O18       1.0  0.94613  0.09367  0.70830  1.0000
  O   O19       1.0  0.90634  0.05387  0.29171  1.0000
  O   O20       1.0  0.05387  0.29170  0.90634  1.0000
  O   O21       1.0  0.29171  0.90634  0.05387  1.0000
