data_image0
_chemical_formula_structural       Mn4H56C32N8O24
_chemical_formula_sum              "Mn4 H56 C32 N8 O24"
_cell_length_a       8.00067
_cell_length_b       10.1481
_cell_length_c       14.9222
_cell_angle_alpha    89.9997
_cell_angle_beta     90.0001
_cell_angle_gamma    89.9999

_space_group_name_H-M_alt    "P 1"
_space_group_IT_number       1

loop_
  _space_group_symop_operation_xyz
  'x, y, z'

loop_
  _atom_site_type_symbol
  _atom_site_label
  _atom_site_symmetry_multiplicity
  _atom_site_fract_x
  _atom_site_fract_y
  _atom_site_fract_z
  _atom_site_occupancy
  Mn  Mn1       1.0  0.16146  0.75000  0.50000  1.0000
  Mn  Mn2       1.0  0.33854  0.25000  1.00000  1.0000
  Mn  Mn3       1.0  0.83854  0.25000  0.50000  1.0000
  Mn  Mn4       1.0  0.66146  0.75000  0.00000  1.0000
  H   H1        1.0  0.47428  0.88031  0.42467  1.0000
  H   H2        1.0  0.02572  0.38032  0.07533  1.0000
  H   H3        1.0  0.47428  0.61969  0.57533  1.0000
  H   H4        1.0  0.02572  0.11968  0.92467  1.0000
  H   H5        1.0  0.52572  0.11969  0.57533  1.0000
  H   H6        1.0  0.97428  0.61968  0.92467  1.0000
  H   H7        1.0  0.52572  0.38031  0.42467  1.0000
  H   H8        1.0  0.97428  0.88032  0.07533  1.0000
  H   H9        1.0  0.70116  0.95232  0.36286  1.0000
  H   H10       1.0  0.79884  0.45232  0.13714  1.0000
  H   H11       1.0  0.70116  0.54768  0.63713  1.0000
  H   H12       1.0  0.79884  0.04768  0.86286  1.0000
  H   H13       1.0  0.29884  0.04769  0.63714  1.0000
  H   H14       1.0  0.20116  0.54768  0.86286  1.0000
  H   H15       1.0  0.29884  0.45232  0.36286  1.0000
  H   H16       1.0  0.20116  0.95232  0.13714  1.0000
  H   H17       1.0  0.72978  0.89489  0.25045  1.0000
  H   H18       1.0  0.77023  0.39489  0.24955  1.0000
  H   H19       1.0  0.72979  0.60511  0.74955  1.0000
  H   H20       1.0  0.77023  0.10511  0.75045  1.0000
  H   H21       1.0  0.27022  0.10511  0.74955  1.0000
  H   H22       1.0  0.22977  0.60511  0.75045  1.0000
  H   H23       1.0  0.27022  0.39489  0.25045  1.0000
  H   H24       1.0  0.22978  0.89489  0.24955  1.0000
  H   H25       1.0  0.85223  0.82612  0.33968  1.0000
  H   H26       1.0  0.64777  0.32613  0.16033  1.0000
  H   H27       1.0  0.85223  0.67388  0.66032  1.0000
  H   H28       1.0  0.64777  0.17387  0.83967  1.0000
  H   H29       1.0  0.14777  0.17388  0.66032  1.0000
  H   H30       1.0  0.35223  0.67387  0.83967  1.0000
  H   H31       1.0  0.14777  0.32612  0.33968  1.0000
  H   H32       1.0  0.35223  0.82613  0.16033  1.0000
  H   H33       1.0  0.72848  0.58706  0.31515  1.0000
  H   H34       1.0  0.77152  0.08706  0.18485  1.0000
  H   H35       1.0  0.72848  0.91294  0.68485  1.0000
  H   H36       1.0  0.77152  0.41294  0.81515  1.0000
  H   H37       1.0  0.27152  0.41294  0.68485  1.0000
  H   H38       1.0  0.22847  0.91294  0.81515  1.0000
  H   H39       1.0  0.27152  0.08706  0.31515  1.0000
  H   H40       1.0  0.22847  0.58706  0.18485  1.0000
  H   H41       1.0  0.64718  0.66362  0.21557  1.0000
  H   H42       1.0  0.85282  0.16362  0.28443  1.0000
  H   H43       1.0  0.64718  0.83638  0.78443  1.0000
  H   H44       1.0  0.85283  0.33638  0.71557  1.0000
  H   H45       1.0  0.35282  0.33638  0.78443  1.0000
  H   H46       1.0  0.14717  0.83638  0.71557  1.0000
  H   H47       1.0  0.35282  0.16362  0.21557  1.0000
  H   H48       1.0  0.14717  0.66362  0.28443  1.0000
  H   H49       1.0  0.50837  0.58413  0.29229  1.0000
  H   H50       1.0  0.99163  0.08414  0.20771  1.0000
  H   H51       1.0  0.50837  0.91586  0.70771  1.0000
  H   H52       1.0  0.99163  0.41586  0.79229  1.0000
  H   H53       1.0  0.49163  0.41587  0.70771  1.0000
  H   H54       1.0  0.00837  0.91586  0.79229  1.0000
  H   H55       1.0  0.49163  0.08413  0.29229  1.0000
  H   H56       1.0  0.00837  0.58414  0.20771  1.0000
  C   C1        1.0  0.04751  0.02005  0.45640  1.0000
  C   C2        1.0  0.45250  0.52004  0.04360  1.0000
  C   C3        1.0  0.04751  0.47995  0.54360  1.0000
  C   C4        1.0  0.45250  0.97996  0.95640  1.0000
  C   C5        1.0  0.95249  0.97995  0.54360  1.0000
  C   C6        1.0  0.54751  0.47995  0.95640  1.0000
  C   C7        1.0  0.95249  0.52004  0.45640  1.0000
  C   C8        1.0  0.54751  0.02005  0.04360  1.0000
  C   C9        1.0  0.47571  0.78313  0.39161  1.0000
  C   C10       1.0  0.02429  0.28313  0.10839  1.0000
  C   C11       1.0  0.47572  0.71687  0.60839  1.0000
  C   C12       1.0  0.02429  0.21687  0.89161  1.0000
  C   C13       1.0  0.52429  0.21687  0.60839  1.0000
  C   C14       1.0  0.97571  0.71687  0.89161  1.0000
  C   C15       1.0  0.52429  0.28313  0.39161  1.0000
  C   C16       1.0  0.97571  0.78313  0.10839  1.0000
  C   C17       1.0  0.72905  0.86576  0.32140  1.0000
  C   C18       1.0  0.77095  0.36576  0.17860  1.0000
  C   C19       1.0  0.72905  0.63424  0.67860  1.0000
  C   C20       1.0  0.77095  0.13424  0.82140  1.0000
  C   C21       1.0  0.27095  0.13424  0.67860  1.0000
  C   C22       1.0  0.22905  0.63424  0.82140  1.0000
  C   C23       1.0  0.27095  0.36576  0.32140  1.0000
  C   C24       1.0  0.22905  0.86576  0.17860  1.0000
  C   C25       1.0  0.62306  0.64205  0.28636  1.0000
  C   C26       1.0  0.87694  0.14205  0.21364  1.0000
  C   C27       1.0  0.62306  0.85795  0.71364  1.0000
  C   C28       1.0  0.87694  0.35795  0.78636  1.0000
  C   C29       1.0  0.37694  0.35795  0.71364  1.0000
  C   C30       1.0  0.12306  0.85795  0.78636  1.0000
  C   C31       1.0  0.37694  0.14205  0.28636  1.0000
  C   C32       1.0  0.12306  0.64205  0.21364  1.0000
  N   N1        1.0  0.60213  0.76506  0.33521  1.0000
  N   N2        1.0  0.89787  0.26506  0.16479  1.0000
  N   N3        1.0  0.60213  0.73494  0.66478  1.0000
  N   N4        1.0  0.89787  0.23494  0.83521  1.0000
  N   N5        1.0  0.39787  0.23495  0.66478  1.0000
  N   N6        1.0  0.10213  0.73494  0.83521  1.0000
  N   N7        1.0  0.39786  0.26506  0.33521  1.0000
  N   N8        1.0  0.10213  0.76506  0.16479  1.0000
  O   O1        1.0  0.14552  0.93511  0.42286  1.0000
  O   O2        1.0  0.35448  0.43511  0.07714  1.0000
  O   O3        1.0  0.14552  0.56489  0.57715  1.0000
  O   O4        1.0  0.35448  0.06489  0.92286  1.0000
  O   O5        1.0  0.85448  0.06489  0.57715  1.0000
  O   O6        1.0  0.64552  0.56489  0.92285  1.0000
  O   O7        1.0  0.85448  0.43511  0.42286  1.0000
  O   O8        1.0  0.64552  0.93511  0.07715  1.0000
  O   O9        1.0  0.01928  0.13422  0.42552  1.0000
  O   O10       1.0  0.48074  0.63421  0.07448  1.0000
  O   O11       1.0  0.01928  0.36578  0.57448  1.0000
  O   O12       1.0  0.48073  0.86578  0.92552  1.0000
  O   O13       1.0  0.98072  0.86577  0.57448  1.0000
  O   O14       1.0  0.51927  0.36578  0.92551  1.0000
  O   O15       1.0  0.98073  0.63422  0.42552  1.0000
  O   O16       1.0  0.51928  0.13423  0.07448  1.0000
  O   O17       1.0  0.36401  0.69829  0.40744  1.0000
  O   O18       1.0  0.13598  0.19830  0.09256  1.0000
  O   O19       1.0  0.36401  0.80171  0.59256  1.0000
  O   O20       1.0  0.13598  0.30170  0.90744  1.0000
  O   O21       1.0  0.63599  0.30170  0.59256  1.0000
  O   O22       1.0  0.86401  0.80170  0.90744  1.0000
  O   O23       1.0  0.63598  0.19830  0.40744  1.0000
  O   O24       1.0  0.86401  0.69830  0.09256  1.0000
