data_image0
_chemical_formula_structural       Zn2H24C24S8N4O8
_chemical_formula_sum              "Zn2 H24 C24 S8 N4 O8"
_cell_length_a       7.45225
_cell_length_b       8.56184
_cell_length_c       13.5218
_cell_angle_alpha    98.6155
_cell_angle_beta     90.0263
_cell_angle_gamma    115.832

_space_group_name_H-M_alt    "P 1"
_space_group_IT_number       1

loop_
  _space_group_symop_operation_xyz
  'x, y, z'

loop_
  _atom_site_type_symbol
  _atom_site_label
  _atom_site_symmetry_multiplicity
  _atom_site_fract_x
  _atom_site_fract_y
  _atom_site_fract_z
  _atom_site_occupancy
  Zn  Zn1       1.0  0.19987  0.00036  0.75018  1.0000
  Zn  Zn2       1.0  0.80013  0.99963  0.24982  1.0000
  H   H1        1.0  0.88287  0.67496  0.62468  1.0000
  H   H2        1.0  0.20757  0.32552  0.87542  1.0000
  H   H3        1.0  0.11714  0.32503  0.37532  1.0000
  H   H4        1.0  0.79242  0.67448  0.12457  1.0000
  H   H5        1.0  0.53571  0.44511  0.62190  1.0000
  H   H6        1.0  0.09005  0.55498  0.87787  1.0000
  H   H7        1.0  0.46430  0.55490  0.37810  1.0000
  H   H8        1.0  0.90994  0.44502  0.12213  1.0000
  H   H9        1.0  0.48125  0.21899  0.60212  1.0000
  H   H10       1.0  0.26176  0.78122  0.89786  1.0000
  H   H11       1.0  0.51875  0.78101  0.39788  1.0000
  H   H12       1.0  0.73823  0.21879  0.10214  1.0000
  H   H13       1.0  0.53899  0.33559  0.49992  1.0000
  H   H14       1.0  0.20280  0.66438  0.99994  1.0000
  H   H15       1.0  0.46102  0.66442  0.50008  1.0000
  H   H16       1.0  0.79719  0.33563  0.00006  1.0000
  H   H17       1.0  0.77937  0.05592  0.49401  1.0000
  H   H18       1.0  0.72344  0.94478  0.00601  1.0000
  H   H19       1.0  0.22063  0.94408  0.50600  1.0000
  H   H20       1.0  0.27657  0.05522  0.99399  1.0000
  H   H21       1.0  0.63629  0.03374  0.59831  1.0000
  H   H22       1.0  0.60213  0.96685  0.90179  1.0000
  H   H23       1.0  0.36370  0.96625  0.40169  1.0000
  H   H24       1.0  0.39787  0.03315  0.09822  1.0000
  C   C1        1.0  0.89795  0.99589  0.61771  1.0000
  C   C2        1.0  0.90183  0.00508  0.88231  1.0000
  C   C3        1.0  0.10205  0.00411  0.38229  1.0000
  C   C4        1.0  0.09817  0.99492  0.11769  1.0000
  C   C5        1.0  0.88320  0.28777  0.60486  1.0000
  C   C6        1.0  0.59515  0.71303  0.89516  1.0000
  C   C7        1.0  0.11681  0.71223  0.39514  1.0000
  C   C8        1.0  0.40485  0.28698  0.10484  1.0000
  C   C9        1.0  0.11594  0.60602  0.64534  1.0000
  C   C10       1.0  0.50989  0.39488  0.85488  1.0000
  C   C11       1.0  0.88406  0.39397  0.35466  1.0000
  C   C12       1.0  0.49009  0.60512  0.14512  1.0000
  C   C13       1.0  0.79086  0.39535  0.60287  1.0000
  C   C14       1.0  0.39515  0.60516  0.89713  1.0000
  C   C15       1.0  0.20914  0.60465  0.39713  1.0000
  C   C16       1.0  0.60484  0.39484  0.10287  1.0000
  C   C17       1.0  0.57583  0.34622  0.58013  1.0000
  C   C18       1.0  0.22908  0.65395  0.91975  1.0000
  C   C19       1.0  0.42417  0.65379  0.41987  1.0000
  C   C20       1.0  0.77092  0.34605  0.08025  1.0000
  C   C21       1.0  0.79122  0.09220  0.57652  1.0000
  C   C22       1.0  0.69877  0.90862  0.92350  1.0000
  C   C23       1.0  0.20878  0.90780  0.42347  1.0000
  C   C24       1.0  0.30123  0.09138  0.07650  1.0000
  S   S1        1.0  0.13731  0.41307  0.63845  1.0000
  S   S2        1.0  0.72415  0.58800  0.86169  1.0000
  S   S3        1.0  0.86268  0.58692  0.36154  1.0000
  S   S4        1.0  0.27585  0.41201  0.13832  1.0000
  S   S5        1.0  0.31780  0.80575  0.67525  1.0000
  S   S6        1.0  0.51244  0.19543  0.82522  1.0000
  S   S7        1.0  0.68221  0.19425  0.32475  1.0000
  S   S8        1.0  0.48756  0.80457  0.17478  1.0000
  N   N1        1.0  0.92477  0.57229  0.62567  1.0000
  N   N2        1.0  0.35229  0.42830  0.87446  1.0000
  N   N3        1.0  0.07524  0.42770  0.37433  1.0000
  N   N4        1.0  0.64770  0.57170  0.12554  1.0000
  O   O1        1.0  0.07689  0.09410  0.65888  1.0000
  O   O2        1.0  0.98286  0.90712  0.84142  1.0000
  O   O3        1.0  0.92312  0.90590  0.34112  1.0000
  O   O4        1.0  0.01714  0.09288  0.15859  1.0000
  O   O5        1.0  0.80990  0.83154  0.60758  1.0000
  O   O6        1.0  0.97789  0.16940  0.89226  1.0000
  O   O7        1.0  0.19009  0.16845  0.39243  1.0000
  O   O8        1.0  0.02211  0.83060  0.10774  1.0000
