data_image0
_chemical_formula_structural       Co2H56C52N8O8
_chemical_formula_sum              "Co2 H56 C52 N8 O8"
_cell_length_a       9.592
_cell_length_b       11.8251
_cell_length_c       12.5489
_cell_angle_alpha    64.0441
_cell_angle_beta     67.2104
_cell_angle_gamma    79.0724

_space_group_name_H-M_alt    "P 1"
_space_group_IT_number       1

loop_
  _space_group_symop_operation_xyz
  'x, y, z'

loop_
  _atom_site_type_symbol
  _atom_site_label
  _atom_site_symmetry_multiplicity
  _atom_site_fract_x
  _atom_site_fract_y
  _atom_site_fract_z
  _atom_site_occupancy
  Co  Co1       1.0  0.78057  0.73556  0.20556  1.0000
  Co  Co2       1.0  0.21943  0.26445  0.79444  1.0000
  H   H1        1.0  0.78664  0.94844  0.94522  1.0000
  H   H2        1.0  0.21336  0.05155  0.05479  1.0000
  H   H3        1.0  0.71419  0.52200  0.48451  1.0000
  H   H4        1.0  0.28581  0.47801  0.51549  1.0000
  H   H5        1.0  0.80007  0.33705  0.64403  1.0000
  H   H6        1.0  0.19993  0.66296  0.35597  1.0000
  H   H7        1.0  0.62348  0.41108  0.69641  1.0000
  H   H8        1.0  0.37652  0.58892  0.30360  1.0000
  H   H9        1.0  0.81755  0.25701  0.85978  1.0000
  H   H10       1.0  0.18246  0.74299  0.14022  1.0000
  H   H11       1.0  0.64516  0.33569  0.90931  1.0000
  H   H12       1.0  0.35484  0.66430  0.09069  1.0000
  H   H13       1.0  0.02274  0.68839  0.62995  1.0000
  H   H14       1.0  0.97726  0.31161  0.37004  1.0000
  H   H15       1.0  0.94569  0.94614  0.21140  1.0000
  H   H16       1.0  0.05431  0.05386  0.78860  1.0000
  H   H17       1.0  0.50421  0.20513  0.88005  1.0000
  H   H18       1.0  0.49580  0.79488  0.11994  1.0000
  H   H19       1.0  0.67396  0.13451  0.80911  1.0000
  H   H20       1.0  0.32604  0.86549  0.19088  1.0000
  H   H21       1.0  0.25598  0.19035  0.31854  1.0000
  H   H22       1.0  0.74402  0.80965  0.68145  1.0000
  H   H23       1.0  0.76693  0.21931  0.09982  1.0000
  H   H24       1.0  0.23307  0.78068  0.90019  1.0000
  H   H25       1.0  0.49917  0.41568  0.31257  1.0000
  H   H26       1.0  0.50083  0.58432  0.68743  1.0000
  H   H27       1.0  0.67497  0.25208  0.41198  1.0000
  H   H28       1.0  0.32503  0.74792  0.58802  1.0000
  H   H29       1.0  0.59141  0.20801  0.33267  1.0000
  H   H30       1.0  0.40860  0.79199  0.66733  1.0000
  H   H31       1.0  0.80232  0.44070  0.94521  1.0000
  H   H32       1.0  0.19769  0.55930  0.05480  1.0000
  H   H33       1.0  0.87284  0.47718  0.03651  1.0000
  H   H34       1.0  0.12717  0.52281  0.96349  1.0000
  H   H35       1.0  0.36854  0.23816  0.08840  1.0000
  H   H36       1.0  0.63146  0.76185  0.91159  1.0000
  H   H37       1.0  0.13434  0.90071  0.49047  1.0000
  H   H38       1.0  0.86567  0.09929  0.50952  1.0000
  H   H39       1.0  0.55375  0.38303  0.12311  1.0000
  H   H40       1.0  0.44625  0.61697  0.87689  1.0000
  H   H41       1.0  0.59924  0.53993  0.07836  1.0000
  H   H42       1.0  0.40076  0.46006  0.92165  1.0000
  H   H43       1.0  0.55228  0.86421  0.40525  1.0000
  H   H44       1.0  0.44772  0.13579  0.59475  1.0000
  H   H45       1.0  0.09755  0.02699  0.28585  1.0000
  H   H46       1.0  0.90246  0.97301  0.71415  1.0000
  H   H47       1.0  0.91715  0.29260  0.23462  1.0000
  H   H48       1.0  0.08285  0.70740  0.76538  1.0000
  H   H49       1.0  0.85855  0.14042  0.28104  1.0000
  H   H50       1.0  0.14145  0.85958  0.71897  1.0000
  H   H51       1.0  0.34778  0.00991  0.47337  1.0000
  H   H52       1.0  0.65222  0.99010  0.52662  1.0000
  H   H53       1.0  0.75269  0.53881  0.74799  1.0000
  H   H54       1.0  0.24731  0.46120  0.25202  1.0000
  H   H55       1.0  0.92882  0.46816  0.69008  1.0000
  H   H56       1.0  0.07118  0.53185  0.30992  1.0000
  C   C1        1.0  0.91468  0.70384  0.49994  1.0000
  C   C2        1.0  0.08532  0.29616  0.50006  1.0000
  C   C3        1.0  0.70994  0.97616  0.02037  1.0000
  C   C4        1.0  0.29005  0.02384  0.97963  1.0000
  C   C5        1.0  0.52996  0.08032  0.11904  1.0000
  C   C6        1.0  0.47003  0.91969  0.88096  1.0000
  C   C7        1.0  0.77617  0.59816  0.46974  1.0000
  C   C8        1.0  0.22382  0.40184  0.53026  1.0000
  C   C9        1.0  0.89476  0.77407  0.38179  1.0000
  C   C10       1.0  0.10523  0.22593  0.61821  1.0000
  C   C11       1.0  0.73404  0.38263  0.70899  1.0000
  C   C12       1.0  0.26596  0.61738  0.29102  1.0000
  C   C13       1.0  0.57937  0.97311  0.20759  1.0000
  C   C14       1.0  0.42062  0.02689  0.79241  1.0000
  C   C15       1.0  0.70129  0.50354  0.26227  1.0000
  C   C16       1.0  0.29871  0.49646  0.73774  1.0000
  C   C17       1.0  0.70872  0.28902  0.84479  1.0000
  C   C18       1.0  0.29128  0.71098  0.15522  1.0000
  C   C19       1.0  0.00153  0.74593  0.54198  1.0000
  C   C20       1.0  0.99848  0.25407  0.45802  1.0000
  C   C21       1.0  0.96063  0.89166  0.30244  1.0000
  C   C22       1.0  0.03937  0.10834  0.69756  1.0000
  C   C23       1.0  0.00268  0.25484  0.02041  1.0000
  C   C24       1.0  0.99733  0.74515  0.97960  1.0000
  C   C25       1.0  0.62046  0.17664  0.87850  1.0000
  C   C26       1.0  0.37954  0.82336  0.12150  1.0000
  C   C27       1.0  0.34932  0.13198  0.28476  1.0000
  C   C28       1.0  0.65068  0.86803  0.71523  1.0000
  C   C29       1.0  0.84310  0.27730  0.10168  1.0000
  C   C30       1.0  0.15690  0.72270  0.89832  1.0000
  C   C31       1.0  0.61953  0.40694  0.25838  1.0000
  C   C32       1.0  0.38047  0.59306  0.74162  1.0000
  C   C33       1.0  0.67437  0.27104  0.31816  1.0000
  C   C34       1.0  0.32563  0.72895  0.68184  1.0000
  C   C35       1.0  0.79399  0.41616  0.04252  1.0000
  C   C36       1.0  0.20602  0.58383  0.95749  1.0000
  C   C37       1.0  0.41263  0.16040  0.15575  1.0000
  C   C38       1.0  0.58737  0.83960  0.84425  1.0000
  C   C39       1.0  0.06607  0.86330  0.46186  1.0000
  C   C40       1.0  0.93394  0.13670  0.53813  1.0000
  C   C41       1.0  0.63326  0.44079  0.12118  1.0000
  C   C42       1.0  0.36674  0.55920  0.87883  1.0000
  C   C43       1.0  0.51480  0.94625  0.33673  1.0000
  C   C44       1.0  0.48519  0.05374  0.66327  1.0000
  C   C45       1.0  0.04566  0.93518  0.34467  1.0000
  C   C46       1.0  0.95434  0.06483  0.65533  1.0000
  C   C47       1.0  0.83100  0.24103  0.23772  1.0000
  C   C48       1.0  0.16900  0.75897  0.76229  1.0000
  C   C49       1.0  0.40051  0.02780  0.37345  1.0000
  C   C50       1.0  0.59949  0.97221  0.62655  1.0000
  C   C51       1.0  0.81683  0.49579  0.68017  1.0000
  C   C52       1.0  0.18317  0.50422  0.31983  1.0000
  N   N1        1.0  0.61629  0.07884  0.00148  1.0000
  N   N2        1.0  0.38371  0.92116  0.99852  1.0000
  N   N3        1.0  0.80842  0.70435  0.36560  1.0000
  N   N4        1.0  0.19158  0.29565  0.63440  1.0000
  N   N5        1.0  0.83679  0.59325  0.55337  1.0000
  N   N6        1.0  0.16320  0.40675  0.44663  1.0000
  N   N7        1.0  0.69093  0.90895  0.14236  1.0000
  N   N8        1.0  0.30906  0.09105  0.85764  1.0000
  O   O1        1.0  0.64021  0.61692  0.23293  1.0000
  O   O2        1.0  0.35979  0.38308  0.76708  1.0000
  O   O3        1.0  0.01401  0.26192  0.91057  1.0000
  O   O4        1.0  0.98599  0.73809  0.08943  1.0000
  O   O5        1.0  0.11348  0.23383  0.05625  1.0000
  O   O6        1.0  0.88652  0.76616  0.94375  1.0000
  O   O7        1.0  0.81861  0.47680  0.29022  1.0000
  O   O8        1.0  0.18139  0.52320  0.70978  1.0000
