data_image0
_chemical_formula_structural       Zn2H44C48N4O10
_chemical_formula_sum              "Zn2 H44 C48 N4 O10"
_cell_length_a       8.91931
_cell_length_b       10.1847
_cell_length_c       12.9641
_cell_angle_alpha    104.002
_cell_angle_beta     93.9015
_cell_angle_gamma    95.8924

_space_group_name_H-M_alt    "P 1"
_space_group_IT_number       1

loop_
  _space_group_symop_operation_xyz
  'x, y, z'

loop_
  _atom_site_type_symbol
  _atom_site_label
  _atom_site_symmetry_multiplicity
  _atom_site_fract_x
  _atom_site_fract_y
  _atom_site_fract_z
  _atom_site_occupancy
  Zn  Zn1       1.0  0.54608  0.75295  0.68403  1.0000
  Zn  Zn2       1.0  0.45392  0.24706  0.31596  1.0000
  H   H1        1.0  0.55372  0.64889  0.46190  1.0000
  H   H2        1.0  0.44626  0.35111  0.53810  1.0000
  H   H3        1.0  0.57390  0.81181  0.49919  1.0000
  H   H4        1.0  0.42607  0.18820  0.50080  1.0000
  H   H5        1.0  0.51624  0.25843  0.67328  1.0000
  H   H6        1.0  0.48374  0.74157  0.32672  1.0000
  H   H7        1.0  0.91844  0.09462  0.75184  1.0000
  H   H8        1.0  0.08155  0.90538  0.24815  1.0000
  H   H9        1.0  0.93314  0.52559  0.76971  1.0000
  H   H10       1.0  0.06685  0.47441  0.23029  1.0000
  H   H11       1.0  0.32378  0.42632  0.74674  1.0000
  H   H12       1.0  0.67623  0.57365  0.25325  1.0000
  H   H13       1.0  0.15805  0.49315  0.71111  1.0000
  H   H14       1.0  0.84195  0.50683  0.28888  1.0000
  H   H15       1.0  0.19309  0.32795  0.64094  1.0000
  H   H16       1.0  0.80690  0.67202  0.35905  1.0000
  H   H17       1.0  0.13777  0.15483  0.86244  1.0000
  H   H18       1.0  0.86222  0.84517  0.13756  1.0000
  H   H19       1.0  0.30757  0.22557  0.82142  1.0000
  H   H20       1.0  0.69242  0.77441  0.17858  1.0000
  H   H21       1.0  0.16462  0.12790  0.72426  1.0000
  H   H22       1.0  0.83537  0.87209  0.27574  1.0000
  H   H23       1.0  0.09602  0.39206  0.97230  1.0000
  H   H24       1.0  0.90398  0.60795  0.02770  1.0000
  H   H25       1.0  0.11248  0.53346  0.91441  1.0000
  H   H26       1.0  0.88752  0.46654  0.08558  1.0000
  H   H27       1.0  0.27459  0.45284  0.93656  1.0000
  H   H28       1.0  0.72541  0.54717  0.06344  1.0000
  H   H29       1.0  0.30388  0.67372  0.48630  1.0000
  H   H30       1.0  0.69611  0.32625  0.51370  1.0000
  H   H31       1.0  0.02816  0.68740  0.45423  1.0000
  H   H32       1.0  0.97182  0.31257  0.54577  1.0000
  H   H33       1.0  0.87983  0.76776  0.61134  1.0000
  H   H34       1.0  0.12017  0.23223  0.38868  1.0000
  H   H35       1.0  0.88153  0.84576  0.81118  1.0000
  H   H36       1.0  0.11848  0.15424  0.18883  1.0000
  H   H37       1.0  0.02067  0.88854  0.99211  1.0000
  H   H38       1.0  0.97935  0.11148  0.00790  1.0000
  H   H39       1.0  0.26771  0.90358  0.10544  1.0000
  H   H40       1.0  0.73232  0.09646  0.89457  1.0000
  H   H41       1.0  0.53940  0.86611  0.11280  1.0000
  H   H42       1.0  0.46063  0.13391  0.88720  1.0000
  H   H43       1.0  0.65746  0.78831  0.94014  1.0000
  H   H44       1.0  0.34255  0.21169  0.05986  1.0000
  C   C1        1.0  0.71866  0.40413  0.71861  1.0000
  C   C2        1.0  0.28134  0.59588  0.28139  1.0000
  C   C3        1.0  0.63688  0.27460  0.69888  1.0000
  C   C4        1.0  0.36312  0.72540  0.30112  1.0000
  C   C5        1.0  0.70936  0.16415  0.71139  1.0000
  C   C6        1.0  0.29064  0.83586  0.28860  1.0000
  C   C7        1.0  0.86493  0.18373  0.74447  1.0000
  C   C8        1.0  0.13507  0.81628  0.25553  1.0000
  C   C9        1.0  0.94926  0.31285  0.76664  1.0000
  C   C10       1.0  0.05074  0.68714  0.23336  1.0000
  C   C11       1.0  0.87286  0.42302  0.75436  1.0000
  C   C12       1.0  0.12715  0.57698  0.24563  1.0000
  C   C13       1.0  0.64167  0.51740  0.69284  1.0000
  C   C14       1.0  0.35832  0.48260  0.30716  1.0000
  C   C15       1.0  0.61739  0.02612  0.68700  1.0000
  C   C16       1.0  0.38260  0.97388  0.31300  1.0000
  C   C17       1.0  0.11980  0.33612  0.80020  1.0000
  C   C18       1.0  0.88018  0.66388  0.19980  1.0000
  C   C19       1.0  0.20262  0.39962  0.72016  1.0000
  C   C20       1.0  0.79737  0.60036  0.27983  1.0000
  C   C21       1.0  0.18449  0.20283  0.80215  1.0000
  C   C22       1.0  0.81549  0.79717  0.19786  1.0000
  C   C23       1.0  0.15204  0.43431  0.91244  1.0000
  C   C24       1.0  0.84796  0.56568  0.08755  1.0000
  C   C25       1.0  0.23719  0.70639  0.55289  1.0000
  C   C26       1.0  0.76281  0.29359  0.44712  1.0000
  C   C27       1.0  0.08174  0.71515  0.53573  1.0000
  C   C28       1.0  0.91826  0.28483  0.46428  1.0000
  C   C29       1.0  0.00058  0.75927  0.62216  1.0000
  C   C30       1.0  0.99941  0.24072  0.37786  1.0000
  C   C31       1.0  0.07623  0.79159  0.72633  1.0000
  C   C32       1.0  0.92377  0.20841  0.27368  1.0000
  C   C33       1.0  0.00136  0.83458  0.82112  1.0000
  C   C34       1.0  0.99865  0.16541  0.17889  1.0000
  C   C35       1.0  0.07830  0.85845  0.92005  1.0000
  C   C36       1.0  0.92173  0.14157  0.07996  1.0000
  C   C37       1.0  0.23593  0.84366  0.93231  1.0000
  C   C38       1.0  0.76409  0.15636  0.06769  1.0000
  C   C39       1.0  0.32082  0.86759  0.03229  1.0000
  C   C40       1.0  0.67920  0.13244  0.96771  1.0000
  C   C41       1.0  0.47185  0.84741  0.03640  1.0000
  C   C42       1.0  0.52817  0.15261  0.96359  1.0000
  C   C43       1.0  0.53871  0.80576  0.94054  1.0000
  C   C44       1.0  0.46131  0.19425  0.05946  1.0000
  C   C45       1.0  0.31367  0.80353  0.84012  1.0000
  C   C46       1.0  0.68634  0.19648  0.15988  1.0000
  C   C47       1.0  0.23288  0.77750  0.73582  1.0000
  C   C48       1.0  0.76712  0.22250  0.26418  1.0000
  N   N1        1.0  0.31104  0.73764  0.64986  1.0000
  N   N2        1.0  0.68895  0.26235  0.35015  1.0000
  N   N3        1.0  0.46202  0.78609  0.84529  1.0000
  N   N4        1.0  0.53800  0.21392  0.15471  1.0000
  O   O1        1.0  0.60033  0.73049  0.52020  1.0000
  O   O2        1.0  0.39964  0.26952  0.47979  1.0000
  O   O3        1.0  0.70256  0.64044  0.73306  1.0000
  O   O4        1.0  0.29744  0.35956  0.26693  1.0000
  O   O5        1.0  0.51966  0.48975  0.63099  1.0000
  O   O6        1.0  0.48034  0.51024  0.36901  1.0000
  O   O7        1.0  0.48936  0.00759  0.63614  1.0000
  O   O8        1.0  0.51062  0.99241  0.36388  1.0000
  O   O9        1.0  0.67974  0.93370  0.72255  1.0000
  O   O10       1.0  0.32028  0.06630  0.27744  1.0000
