data_image0
_chemical_formula_structural       Zn4P4H32C26N4O12
_chemical_formula_sum              "Zn4 P4 H32 C26 N4 O12"
_cell_length_a       5.11646
_cell_length_b       11.2742
_cell_length_c       15.2816
_cell_angle_alpha    104.688
_cell_angle_beta     90
_cell_angle_gamma    90.0002

_space_group_name_H-M_alt    "P 1"
_space_group_IT_number       1

loop_
  _space_group_symop_operation_xyz
  'x, y, z'

loop_
  _atom_site_type_symbol
  _atom_site_label
  _atom_site_symmetry_multiplicity
  _atom_site_fract_x
  _atom_site_fract_y
  _atom_site_fract_z
  _atom_site_occupancy
  Zn  Zn1       1.0  0.69971  0.64242  0.49663  1.0000
  Zn  Zn2       1.0  0.69972  0.85758  0.00337  1.0000
  Zn  Zn3       1.0  0.30029  0.35757  0.50337  1.0000
  Zn  Zn4       1.0  0.30028  0.14243  0.99663  1.0000
  P   P1        1.0  0.22583  0.55544  0.38809  1.0000
  P   P2        1.0  0.22585  0.94456  0.11191  1.0000
  P   P3        1.0  0.77416  0.44456  0.61191  1.0000
  P   P4        1.0  0.77415  0.05544  0.88808  1.0000
  H   H1        1.0  0.27948  0.54522  0.29591  1.0000
  H   H2        1.0  0.27949  0.95478  0.20409  1.0000
  H   H3        1.0  0.72052  0.45477  0.70409  1.0000
  H   H4        1.0  0.72052  0.04522  0.79591  1.0000
  H   H5        1.0  0.10835  0.71630  0.63249  1.0000
  H   H6        1.0  0.10835  0.78370  0.86751  1.0000
  H   H7        1.0  0.89166  0.28370  0.36750  1.0000
  H   H8        1.0  0.89165  0.21629  0.13249  1.0000
  H   H9        1.0  0.32978  0.90913  0.71744  1.0000
  H   H10       1.0  0.32977  0.59088  0.78256  1.0000
  H   H11       1.0  0.67023  0.09087  0.28256  1.0000
  H   H12       1.0  0.67022  0.40912  0.21744  1.0000
  H   H13       1.0  0.79659  0.11084  0.58964  1.0000
  H   H14       1.0  0.79658  0.38916  0.91036  1.0000
  H   H15       1.0  0.20341  0.88916  0.41036  1.0000
  H   H16       1.0  0.20341  0.61084  0.08965  1.0000
  H   H17       1.0  0.58822  0.90986  0.51403  1.0000
  H   H18       1.0  0.58823  0.59014  0.98597  1.0000
  H   H19       1.0  0.41177  0.09014  0.48597  1.0000
  H   H20       1.0  0.41177  0.40986  0.01403  1.0000
  H   H21       1.0  0.34488  0.17069  0.65085  1.0000
  H   H22       1.0  0.34488  0.32931  0.84915  1.0000
  H   H23       1.0  0.65512  0.82930  0.34915  1.0000
  H   H24       1.0  0.65511  0.67069  0.15085  1.0000
  H   H25       1.0  0.36932  0.12255  0.75194  1.0000
  H   H26       1.0  0.36932  0.37745  0.74806  1.0000
  H   H27       1.0  0.63068  0.87745  0.24806  1.0000
  H   H28       1.0  0.63068  0.62255  0.25194  1.0000
  H   H29       1.0  0.92935  0.27692  0.70045  1.0000
  H   H30       1.0  0.92935  0.22308  0.79956  1.0000
  H   H31       1.0  0.07065  0.72307  0.29955  1.0000
  H   H32       1.0  0.07065  0.77692  0.20044  1.0000
  C   C1        1.0  0.04535  0.80598  0.62560  1.0000
  C   C2        1.0  0.04534  0.69402  0.87440  1.0000
  C   C3        1.0  0.95465  0.19402  0.37440  1.0000
  C   C4        1.0  0.95466  0.30598  0.12560  1.0000
  C   C5        1.0  0.16864  0.91328  0.67166  1.0000
  C   C6        1.0  0.16863  0.58673  0.82835  1.0000
  C   C7        1.0  0.83137  0.08672  0.32835  1.0000
  C   C8        1.0  0.83138  0.41327  0.17165  1.0000
  C   C9        1.0  0.08600  0.02637  0.65900  1.0000
  C   C10       1.0  0.08600  0.47363  0.84100  1.0000
  C   C11       1.0  0.91400  0.97363  0.34100  1.0000
  C   C12       1.0  0.91399  0.52637  0.15900  1.0000
  C   C13       1.0  0.87053  0.02577  0.60206  1.0000
  C   C14       1.0  0.87053  0.47424  0.89794  1.0000
  C   C15       1.0  0.12946  0.97423  0.39794  1.0000
  C   C16       1.0  0.12947  0.52578  0.10206  1.0000
  C   C17       1.0  0.75512  0.91483  0.55919  1.0000
  C   C18       1.0  0.75512  0.58517  0.94082  1.0000
  C   C19       1.0  0.24489  0.08517  0.44082  1.0000
  C   C20       1.0  0.24489  0.41482  0.05918  1.0000
  C   C21       1.0  0.22912  0.14210  0.70305  1.0000
  C   C22       1.0  0.22911  0.35790  0.79695  1.0000
  C   C23       1.0  0.77088  0.85790  0.29695  1.0000
  C   C24       1.0  0.77089  0.64210  0.20305  1.0000
  C   C25       1.0  0.05599  0.25000  0.75000  1.0000
  C   C26       1.0  0.94400  0.75000  0.25000  1.0000
  N   N1        1.0  0.84270  0.80656  0.56928  1.0000
  N   N2        1.0  0.84269  0.69344  0.93072  1.0000
  N   N3        1.0  0.15731  0.19343  0.43072  1.0000
  N   N4        1.0  0.15730  0.30656  0.06928  1.0000
  O   O1        1.0  0.92749  0.56545  0.39611  1.0000
  O   O2        1.0  0.92751  0.93456  0.10389  1.0000
  O   O3        1.0  0.07251  0.43455  0.60389  1.0000
  O   O4        1.0  0.07251  0.06545  0.89611  1.0000
  O   O5        1.0  0.36527  0.67294  0.44276  1.0000
  O   O6        1.0  0.36528  0.82706  0.05724  1.0000
  O   O7        1.0  0.63473  0.32705  0.55724  1.0000
  O   O8        1.0  0.63472  0.17294  0.94276  1.0000
  O   O9        1.0  0.34074  0.43765  0.40512  1.0000
  O   O10       1.0  0.34077  0.06235  0.09488  1.0000
  O   O11       1.0  0.65925  0.56234  0.59488  1.0000
  O   O12       1.0  0.65924  0.93766  0.90512  1.0000
