data_image0
_chemical_formula_structural       Mn2H56C60N4O12
_chemical_formula_sum              "Mn2 H56 C60 N4 O12"
_cell_length_a       4.60922
_cell_length_b       12.0627
_cell_length_c       23.0599
_cell_angle_alpha    95.2785
_cell_angle_beta     90.0005
_cell_angle_gamma    90.0001

_space_group_name_H-M_alt    "P 1"
_space_group_IT_number       1

loop_
  _space_group_symop_operation_xyz
  'x, y, z'

loop_
  _atom_site_type_symbol
  _atom_site_label
  _atom_site_symmetry_multiplicity
  _atom_site_fract_x
  _atom_site_fract_y
  _atom_site_fract_z
  _atom_site_occupancy
  Mn  Mn1       1.0  0.00000  0.00000  1.00000  1.0000
  Mn  Mn2       1.0  0.49999  1.00000  0.50000  1.0000
  H   H1        1.0  0.56711  0.06303  0.23751  1.0000
  H   H2        1.0  0.06712  0.93696  0.26250  1.0000
  H   H3        1.0  0.43287  0.93697  0.76249  1.0000
  H   H4        1.0  0.93289  0.06303  0.73750  1.0000
  H   H5        1.0  0.33288  0.07731  0.33498  1.0000
  H   H6        1.0  0.83289  0.92268  0.16503  1.0000
  H   H7        1.0  0.66710  0.92269  0.66502  1.0000
  H   H8        1.0  0.16711  0.07732  0.83497  1.0000
  H   H9        1.0  0.98296  0.22714  0.36391  1.0000
  H   H10       1.0  0.48296  0.77286  0.13610  1.0000
  H   H11       1.0  0.01703  0.77286  0.63609  1.0000
  H   H12       1.0  0.51702  0.22715  0.86391  1.0000
  H   H13       1.0  0.85973  0.37047  0.29719  1.0000
  H   H14       1.0  0.35973  0.62953  0.20281  1.0000
  H   H15       1.0  0.14026  0.62954  0.70281  1.0000
  H   H16       1.0  0.64026  0.37047  0.79719  1.0000
  H   H17       1.0  0.82823  0.50158  0.20245  1.0000
  H   H18       1.0  0.32822  0.49842  0.29755  1.0000
  H   H19       1.0  0.17178  0.49842  0.79755  1.0000
  H   H20       1.0  0.67180  0.50158  0.70245  1.0000
  H   H21       1.0  0.89051  0.58133  0.10827  1.0000
  H   H22       1.0  0.39049  0.41867  0.39174  1.0000
  H   H23       1.0  0.10950  0.41867  0.89173  1.0000
  H   H24       1.0  0.60950  0.58134  0.60827  1.0000
  H   H25       1.0  0.22674  0.49348  0.03275  1.0000
  H   H26       1.0  0.72672  0.50652  0.46725  1.0000
  H   H27       1.0  0.77326  0.50652  0.96724  1.0000
  H   H28       1.0  0.27327  0.49349  0.53275  1.0000
  H   H29       1.0  0.50813  0.32336  0.05075  1.0000
  H   H30       1.0  0.00813  0.67664  0.44926  1.0000
  H   H31       1.0  0.49187  0.67663  0.94925  1.0000
  H   H32       1.0  0.99188  0.32337  0.55074  1.0000
  H   H33       1.0  0.79156  0.11027  0.15619  1.0000
  H   H34       1.0  0.29155  0.88973  0.34381  1.0000
  H   H35       1.0  0.20844  0.88973  0.84381  1.0000
  H   H36       1.0  0.70844  0.11027  0.65619  1.0000
  H   H37       1.0  0.80126  0.19785  0.09987  1.0000
  H   H38       1.0  0.30127  0.80215  0.40014  1.0000
  H   H39       1.0  0.19873  0.80214  0.90013  1.0000
  H   H40       1.0  0.69874  0.19786  0.59986  1.0000
  H   H41       1.0  0.03577  0.79009  0.08973  1.0000
  H   H42       1.0  0.53578  0.20991  0.41027  1.0000
  H   H43       1.0  0.96424  0.20992  0.91027  1.0000
  H   H44       1.0  0.46423  0.79008  0.58973  1.0000
  H   H45       1.0  0.26525  0.69057  0.04936  1.0000
  H   H46       1.0  0.76527  0.30943  0.45064  1.0000
  H   H47       1.0  0.73475  0.30943  0.95064  1.0000
  H   H48       1.0  0.23474  0.69057  0.54936  1.0000
  H   H49       1.0  0.92362  0.72656  0.01995  1.0000
  H   H50       1.0  0.42363  0.27344  0.48005  1.0000
  H   H51       1.0  0.07638  0.27344  0.98005  1.0000
  H   H52       1.0  0.57637  0.72657  0.51995  1.0000
  H   H53       1.0  0.40917  0.88027  0.03709  1.0000
  H   H54       1.0  0.90918  0.11972  0.46291  1.0000
  H   H55       1.0  0.59083  0.11972  0.96290  1.0000
  H   H56       1.0  0.09082  0.88028  0.53710  1.0000
  C   C1        1.0  0.34773  0.21176  0.21280  1.0000
  C   C2        1.0  0.84774  0.78823  0.28721  1.0000
  C   C3        1.0  0.65225  0.78823  0.78720  1.0000
  C   C4        1.0  0.15228  0.21177  0.71279  1.0000
  C   C5        1.0  0.41505  0.13019  0.24990  1.0000
  C   C6        1.0  0.91507  0.86981  0.25010  1.0000
  C   C7        1.0  0.58493  0.86981  0.75010  1.0000
  C   C8        1.0  0.08495  0.13019  0.74990  1.0000
  C   C9        1.0  0.28216  0.13842  0.30446  1.0000
  C   C10       1.0  0.78217  0.86158  0.19555  1.0000
  C   C11       1.0  0.71783  0.86158  0.69554  1.0000
  C   C12       1.0  0.21783  0.13842  0.80445  1.0000
  C   C13       1.0  0.08501  0.22433  0.32126  1.0000
  C   C14       1.0  0.58501  0.77567  0.17874  1.0000
  C   C15       1.0  0.91498  0.77567  0.67874  1.0000
  C   C16       1.0  0.41498  0.22433  0.82125  1.0000
  C   C17       1.0  0.01511  0.30481  0.28389  1.0000
  C   C18       1.0  0.51512  0.69519  0.21611  1.0000
  C   C19       1.0  0.98489  0.69519  0.71611  1.0000
  C   C20       1.0  0.48489  0.30481  0.78389  1.0000
  C   C21       1.0  0.14757  0.29934  0.22909  1.0000
  C   C22       1.0  0.64757  0.70065  0.27092  1.0000
  C   C23       1.0  0.85242  0.70065  0.77091  1.0000
  C   C24       1.0  0.35244  0.29934  0.72908  1.0000
  C   C25       1.0  0.13270  0.36711  0.18061  1.0000
  C   C26       1.0  0.63269  0.63289  0.31939  1.0000
  C   C27       1.0  0.86730  0.63289  0.81939  1.0000
  C   C28       1.0  0.36732  0.36711  0.68061  1.0000
  C   C29       1.0  0.97706  0.46273  0.16994  1.0000
  C   C30       1.0  0.47704  0.53726  0.33006  1.0000
  C   C31       1.0  0.02294  0.53727  0.83005  1.0000
  C   C32       1.0  0.52297  0.46274  0.66994  1.0000
  C   C33       1.0  0.01347  0.50736  0.11675  1.0000
  C   C34       1.0  0.51346  0.49264  0.38325  1.0000
  C   C35       1.0  0.98654  0.49263  0.88325  1.0000
  C   C36       1.0  0.48654  0.50737  0.61675  1.0000
  C   C37       1.0  0.20321  0.45747  0.07423  1.0000
  C   C38       1.0  0.70320  0.54253  0.42578  1.0000
  C   C39       1.0  0.79679  0.54253  0.92577  1.0000
  C   C40       1.0  0.29681  0.45747  0.57423  1.0000
  C   C41       1.0  0.36104  0.36200  0.08363  1.0000
  C   C42       1.0  0.86102  0.63799  0.41638  1.0000
  C   C43       1.0  0.63896  0.63799  0.91637  1.0000
  C   C44       1.0  0.13898  0.36201  0.58362  1.0000
  C   C45       1.0  0.32489  0.31788  0.13708  1.0000
  C   C46       1.0  0.82489  0.68213  0.36292  1.0000
  C   C47       1.0  0.67511  0.68212  0.86292  1.0000
  C   C48       1.0  0.17513  0.31787  0.63708  1.0000
  C   C49       1.0  0.65285  0.15078  0.12579  1.0000
  C   C50       1.0  0.15286  0.84922  0.37421  1.0000
  C   C51       1.0  0.34714  0.84922  0.87421  1.0000
  C   C52       1.0  0.84715  0.15079  0.62579  1.0000
  C   C53       1.0  0.50353  0.06353  0.08366  1.0000
  C   C54       1.0  0.00352  0.93647  0.41634  1.0000
  C   C55       1.0  0.49647  0.93647  0.91634  1.0000
  C   C56       1.0  0.99647  0.06353  0.58366  1.0000
  C   C57       1.0  0.10954  0.75874  0.04593  1.0000
  C   C58       1.0  0.60955  0.24126  0.45407  1.0000
  C   C59       1.0  0.89046  0.24126  0.95407  1.0000
  C   C60       1.0  0.39045  0.75874  0.54593  1.0000
  N   N1        1.0  0.45496  0.22550  0.15766  1.0000
  N   N2        1.0  0.95496  0.77450  0.34235  1.0000
  N   N3        1.0  0.54504  0.77450  0.84234  1.0000
  N   N4        1.0  0.04505  0.22550  0.65766  1.0000
  O   O1        1.0  0.65308  0.97785  0.06398  1.0000
  O   O2        1.0  0.15308  0.02215  0.43602  1.0000
  O   O3        1.0  0.34691  0.02215  0.93602  1.0000
  O   O4        1.0  0.84692  0.97785  0.56398  1.0000
  O   O5        1.0  0.24494  0.08139  0.06913  1.0000
  O   O6        1.0  0.74493  0.91861  0.43087  1.0000
  O   O7        1.0  0.75506  0.91861  0.93086  1.0000
  O   O8        1.0  0.25506  0.08139  0.56914  1.0000
  O   O9        1.0  0.23723  0.84551  0.01563  1.0000
  O   O10       1.0  0.73724  0.15449  0.48437  1.0000
  O   O11       1.0  0.76277  0.15449  0.98437  1.0000
  O   O12       1.0  0.26276  0.84551  0.51563  1.0000
