data_image0
_chemical_formula_structural       Cu2H23C25N15O2
_chemical_formula_sum              "Cu2 H23 C25 N15 O2"
_cell_length_a       8.07425
_cell_length_b       8.06812
_cell_length_c       12.5207
_cell_angle_alpha    96.7988
_cell_angle_beta     108.026
_cell_angle_gamma    109.618

_space_group_name_H-M_alt    "P 1"
_space_group_IT_number       1

loop_
  _space_group_symop_operation_xyz
  'x, y, z'

loop_
  _atom_site_type_symbol
  _atom_site_label
  _atom_site_symmetry_multiplicity
  _atom_site_fract_x
  _atom_site_fract_y
  _atom_site_fract_z
  _atom_site_occupancy
  Cu  Cu1       1.0  0.56013  0.85775  0.47729  1.0000
  Cu  Cu2       1.0  0.38061  0.08326  0.52293  1.0000
  H   H1        1.0  0.91765  0.26988  0.34443  1.0000
  H   H2        1.0  0.92477  0.57291  0.65513  1.0000
  H   H3        1.0  0.65816  0.14271  0.99972  1.0000
  H   H4        1.0  0.14409  0.65986  0.00015  1.0000
  H   H5        1.0  0.71709  0.62415  0.36904  1.0000
  H   H6        1.0  0.25547  0.34831  0.63092  1.0000
  H   H7        1.0  0.56129  0.39169  0.32873  1.0000
  H   H8        1.0  0.06350  0.23318  0.67139  1.0000
  H   H9        1.0  0.84098  0.40592  0.94363  1.0000
  H   H10       1.0  0.46354  0.89820  0.05626  1.0000
  H   H11       1.0  0.78180  0.28189  0.49974  1.0000
  H   H12       1.0  0.92945  0.72206  0.05683  1.0000
  H   H13       1.0  0.66613  0.87283  0.94306  1.0000
  H   H14       1.0  0.82592  0.76758  0.21946  1.0000
  H   H15       1.0  0.54871  0.60637  0.78056  1.0000
  H   H16       1.0  0.54660  0.18865  0.16151  1.0000
  H   H17       1.0  0.02785  0.38644  0.83833  1.0000
  H   H18       1.0  0.17219  0.43379  0.09476  1.0000
  H   H19       1.0  0.33844  0.07724  0.90533  1.0000
  H   H20       1.0  0.26420  0.27859  0.15741  1.0000
  H   H21       1.0  0.12090  0.10683  0.84247  1.0000
  H   H22       1.0  0.47269  0.67564  0.20585  1.0000
  H   H23       1.0  0.46964  0.26669  0.79431  1.0000
  C   C1        1.0  0.67711  0.48118  0.20109  1.0000
  C   C2        1.0  0.28077  0.47658  0.79887  1.0000
  C   C3        1.0  0.97425  0.39108  0.41421  1.0000
  C   C4        1.0  0.97646  0.55987  0.58549  1.0000
  C   C5        1.0  0.22411  0.53080  0.33815  1.0000
  C   C6        1.0  0.19247  0.88581  0.66191  1.0000
  C   C7        1.0  0.69195  0.27940  0.04724  1.0000
  C   C8        1.0  0.23315  0.64588  0.95264  1.0000
  C   C9        1.0  0.60522  0.51338  0.29593  1.0000
  C   C10       1.0  0.21789  0.30969  0.70410  1.0000
  C   C11       1.0  0.79678  0.42834  0.01606  1.0000
  C   C12       1.0  0.41329  0.78157  0.98377  1.0000
  C   C13       1.0  0.12912  0.54313  0.42023  1.0000
  C   C14       1.0  0.12274  0.70880  0.57973  1.0000
  C   C15       1.0  0.89892  0.39898  0.49981  1.0000
  C   C16       1.0  0.84530  0.60397  0.07872  1.0000
  C   C17       1.0  0.52610  0.76701  0.92115  1.0000
  C   C18       1.0  0.43650  0.56892  0.25174  1.0000
  C   C19       1.0  0.31712  0.18474  0.74834  1.0000
  C   C20       1.0  0.78682  0.62986  0.17078  1.0000
  C   C21       1.0  0.45980  0.61630  0.82919  1.0000
  C   C22       1.0  0.63117  0.30558  0.13852  1.0000
  C   C23       1.0  0.16789  0.49370  0.86135  1.0000
  C   C24       1.0  0.24876  0.40786  0.17554  1.0000
  C   C25       1.0  0.23197  0.07311  0.82448  1.0000
  N   N1        1.0  0.20132  0.70123  0.50008  1.0000
  N   N2        1.0  0.39086  0.64065  0.34850  1.0000
  N   N3        1.0  0.29210  0.04232  0.65162  1.0000
  N   N4        1.0  0.36535  0.99288  0.28980  1.0000
  N   N5        1.0  0.70340  0.07597  0.71036  1.0000
  N   N6        1.0  0.46892  0.03404  0.39082  1.0000
  N   N7        1.0  0.64311  0.07825  0.60930  1.0000
  N   N8        1.0  0.27117  0.95956  0.19226  1.0000
  N   N9        1.0  0.76806  0.07965  0.80793  1.0000
  N   N10       1.0  0.58758  0.56742  0.57738  1.0000
  N   N11       1.0  0.99043  0.01034  0.42294  1.0000
  N   N12       1.0  0.66307  0.72681  0.58623  1.0000
  N   N13       1.0  0.14077  0.07703  0.41395  1.0000
  N   N14       1.0  0.52316  0.41264  0.57514  1.0000
  N   N15       1.0  0.83815  0.94812  0.42537  1.0000
  O   O1        1.0  0.13099  0.38803  0.24578  1.0000
  O   O2        1.0  0.14206  0.88504  0.75427  1.0000
