data_image0
_chemical_formula_structural       Zn2H20C24N4Cl4
_chemical_formula_sum              "Zn2 H20 C24 N4 Cl4"
_cell_length_a       5.28467
_cell_length_b       7.89513
_cell_length_c       15.112
_cell_angle_alpha    78.0024
_cell_angle_beta     89.2538
_cell_angle_gamma    89.0725

_space_group_name_H-M_alt    "P 1"
_space_group_IT_number       1

loop_
  _space_group_symop_operation_xyz
  'x, y, z'

loop_
  _atom_site_type_symbol
  _atom_site_label
  _atom_site_symmetry_multiplicity
  _atom_site_fract_x
  _atom_site_fract_y
  _atom_site_fract_z
  _atom_site_occupancy
  Zn  Zn1       1.0  0.11989  0.51003  0.25522  1.0000
  Zn  Zn2       1.0  0.88011  0.48997  0.74478  1.0000
  H   H1        1.0  0.47002  0.50015  0.10156  1.0000
  H   H2        1.0  0.52999  0.49985  0.89844  1.0000
  H   H3        1.0  0.80031  0.68187  0.01260  1.0000
  H   H4        1.0  0.19970  0.31813  0.98740  1.0000
  H   H5        1.0  0.91249  0.14696  0.04713  1.0000
  H   H6        1.0  0.08751  0.85304  0.95287  1.0000
  H   H7        1.0  0.58606  0.08572  0.15421  1.0000
  H   H8        1.0  0.41393  0.91428  0.84579  1.0000
  H   H9        1.0  0.26228  0.88309  0.23948  1.0000
  H   H10       1.0  0.73772  0.11690  0.76052  1.0000
  H   H11       1.0  0.23554  0.44076  0.45929  1.0000
  H   H12       1.0  0.76445  0.55924  0.54071  1.0000
  H   H13       1.0  0.55906  0.27001  0.56003  1.0000
  H   H14       1.0  0.44094  0.72999  0.43997  1.0000
  H   H15       1.0  0.92612  0.08694  0.57957  1.0000
  H   H16       1.0  0.07388  0.91306  0.42043  1.0000
  H   H17       1.0  0.81445  0.05908  0.33070  1.0000
  H   H18       1.0  0.18556  0.94092  0.66930  1.0000
  H   H19       1.0  0.48157  0.23854  0.24120  1.0000
  H   H20       1.0  0.51844  0.76147  0.75880  1.0000
  C   C1        1.0  0.50331  0.63078  0.11139  1.0000
  C   C2        1.0  0.49669  0.36922  0.88861  1.0000
  C   C3        1.0  0.68718  0.73364  0.06192  1.0000
  C   C4        1.0  0.31282  0.26636  0.93808  1.0000
  C   C5        1.0  0.91376  0.01938  0.02989  1.0000
  C   C6        1.0  0.08624  0.98062  0.97011  1.0000
  C   C7        1.0  0.72418  0.90151  0.07689  1.0000
  C   C8        1.0  0.27582  0.09849  0.92312  1.0000
  C   C9        1.0  0.56554  0.95609  0.14129  1.0000
  C   C10       1.0  0.43445  0.04391  0.85871  1.0000
  C   C11       1.0  0.38706  0.84500  0.18868  1.0000
  C   C12       1.0  0.61294  0.15500  0.81132  1.0000
  C   C13       1.0  0.36964  0.35556  0.43377  1.0000
  C   C14       1.0  0.63036  0.64443  0.56623  1.0000
  C   C15       1.0  0.55121  0.26021  0.48926  1.0000
  C   C16       1.0  0.44879  0.73979  0.51074  1.0000
  C   C17       1.0  0.72166  0.15141  0.45431  1.0000
  C   C18       1.0  0.27834  0.84859  0.54569  1.0000
  C   C19       1.0  0.91676  0.05713  0.51226  1.0000
  C   C20       1.0  0.08324  0.94288  0.48774  1.0000
  C   C21       1.0  0.69244  0.14105  0.36314  1.0000
  C   C22       1.0  0.30756  0.85894  0.63686  1.0000
  C   C23       1.0  0.50722  0.24071  0.31228  1.0000
  C   C24       1.0  0.49279  0.75930  0.68772  1.0000
  N   N1        1.0  0.35634  0.68371  0.17451  1.0000
  N   N2        1.0  0.64366  0.31629  0.82549  1.0000
  N   N3        1.0  0.34961  0.34824  0.34594  1.0000
  N   N4        1.0  0.65039  0.65176  0.65405  1.0000
  Cl  Cl1       1.0  0.00719  0.33547  0.16161  1.0000
  Cl  Cl2       1.0  0.99281  0.66454  0.83839  1.0000
  Cl  Cl3       1.0  0.87607  0.65786  0.33473  1.0000
  Cl  Cl4       1.0  0.12394  0.34214  0.66527  1.0000
