data_image0
_chemical_formula_structural       Cu4H28C36S4I4N12
_chemical_formula_sum              "Cu4 H28 C36 S4 I4 N12"
_cell_length_a       4.07523
_cell_length_b       9.85539
_cell_length_c       26.1137
_cell_angle_alpha    89.9974
_cell_angle_beta     90.001
_cell_angle_gamma    92.123

_space_group_name_H-M_alt    "P 1"
_space_group_IT_number       1

loop_
  _space_group_symop_operation_xyz
  'x, y, z'

loop_
  _atom_site_type_symbol
  _atom_site_label
  _atom_site_symmetry_multiplicity
  _atom_site_fract_x
  _atom_site_fract_y
  _atom_site_fract_z
  _atom_site_occupancy
  Cu  Cu1       1.0  0.72419  0.90113  0.50629  1.0000
  Cu  Cu2       1.0  0.27577  0.59890  0.00629  1.0000
  Cu  Cu3       1.0  0.27575  0.09887  0.49371  1.0000
  Cu  Cu4       1.0  0.72419  0.40112  0.99371  1.0000
  H   H1        1.0  0.94616  0.85349  0.61173  1.0000
  H   H2        1.0  0.05385  0.64650  0.11173  1.0000
  H   H3        1.0  0.05384  0.14650  0.38827  1.0000
  H   H4        1.0  0.94617  0.35350  0.88827  1.0000
  H   H5        1.0  0.79759  0.70014  0.68342  1.0000
  H   H6        1.0  0.20241  0.79984  0.18341  1.0000
  H   H7        1.0  0.20242  0.29985  0.31658  1.0000
  H   H8        1.0  0.79763  0.20016  0.81659  1.0000
  H   H9        1.0  0.22152  0.45647  0.57532  1.0000
  H   H10       1.0  0.77847  0.04353  0.07532  1.0000
  H   H11       1.0  0.77845  0.54352  0.42468  1.0000
  H   H12       1.0  0.22157  0.95648  0.92468  1.0000
  H   H13       1.0  0.38422  0.62493  0.50893  1.0000
  H   H14       1.0  0.61577  0.87508  0.00893  1.0000
  H   H15       1.0  0.61574  0.37507  0.49107  1.0000
  H   H16       1.0  0.38423  0.12492  0.99107  1.0000
  H   H17       1.0  0.12144  0.31836  0.63459  1.0000
  H   H18       1.0  0.87856  0.18162  0.13458  1.0000
  H   H19       1.0  0.87857  0.68163  0.36541  1.0000
  H   H20       1.0  0.12146  0.81839  0.86543  1.0000
  H   H21       1.0  0.92008  0.19662  0.71359  1.0000
  H   H22       1.0  0.07994  0.30336  0.21357  1.0000
  H   H23       1.0  0.07991  0.80337  0.28641  1.0000
  H   H24       1.0  0.92005  0.69665  0.78643  1.0000
  H   H25       1.0  0.55475  0.61887  0.81789  1.0000
  H   H26       1.0  0.44526  0.88114  0.31789  1.0000
  H   H27       1.0  0.44527  0.38114  0.18211  1.0000
  H   H28       1.0  0.55476  0.11885  0.68211  1.0000
  C   C1        1.0  0.78527  0.76432  0.60534  1.0000
  C   C2        1.0  0.21472  0.73567  0.10533  1.0000
  C   C3        1.0  0.21471  0.23567  0.39466  1.0000
  C   C4        1.0  0.78531  0.26434  0.89466  1.0000
  C   C5        1.0  0.48864  0.56484  0.63650  1.0000
  C   C6        1.0  0.51135  0.93515  0.13650  1.0000
  C   C7        1.0  0.51134  0.43515  0.36350  1.0000
  C   C8        1.0  0.48871  0.06486  0.86350  1.0000
  C   C9        1.0  0.70085  0.67737  0.64542  1.0000
  C   C10       1.0  0.29915  0.82263  0.14542  1.0000
  C   C11       1.0  0.29916  0.32263  0.35458  1.0000
  C   C12       1.0  0.70086  0.17736  0.85458  1.0000
  C   C13       1.0  0.38415  0.54248  0.58573  1.0000
  C   C14       1.0  0.61584  0.95753  0.08573  1.0000
  C   C15       1.0  0.61584  0.45752  0.41427  1.0000
  C   C16       1.0  0.38417  0.04246  0.91427  1.0000
  C   C17       1.0  0.47559  0.63583  0.54805  1.0000
  C   C18       1.0  0.52439  0.86417  0.04804  1.0000
  C   C19       1.0  0.52437  0.36416  0.45195  1.0000
  C   C20       1.0  0.47563  0.13584  0.95195  1.0000
  C   C21       1.0  0.17975  0.35920  0.67237  1.0000
  C   C22       1.0  0.82025  0.14079  0.17236  1.0000
  C   C23       1.0  0.82026  0.64080  0.32763  1.0000
  C   C24       1.0  0.17978  0.85922  0.82764  1.0000
  C   C25       1.0  0.36901  0.47932  0.67970  1.0000
  C   C26       1.0  0.63098  0.02067  0.17970  1.0000
  C   C27       1.0  0.63101  0.52068  0.32030  1.0000
  C   C28       1.0  0.36903  0.97932  0.82031  1.0000
  C   C29       1.0  0.31828  0.45096  0.76646  1.0000
  C   C30       1.0  0.68172  0.04903  0.26646  1.0000
  C   C31       1.0  0.68173  0.54904  0.23353  1.0000
  C   C32       1.0  0.31829  0.95096  0.73354  1.0000
  C   C33       1.0  0.06642  0.29147  0.71612  1.0000
  C   C34       1.0  0.93358  0.20852  0.21611  1.0000
  C   C35       1.0  0.93358  0.70853  0.28388  1.0000
  C   C36       1.0  0.06642  0.79148  0.78389  1.0000
  S   S1        1.0  0.39713  0.50083  0.82987  1.0000
  S   S2        1.0  0.60288  0.99917  0.32986  1.0000
  S   S3        1.0  0.60287  0.49917  0.17013  1.0000
  S   S4        1.0  0.39713  0.00083  0.67014  1.0000
  I   I1        1.0  0.78030  0.13376  0.55730  1.0000
  I   I2        1.0  0.21967  0.36625  0.05730  1.0000
  I   I3        1.0  0.21964  0.86623  0.44270  1.0000
  I   I4        1.0  0.78029  0.63377  0.94270  1.0000
  N   N1        1.0  0.66807  0.74795  0.55733  1.0000
  N   N2        1.0  0.33190  0.75205  0.05733  1.0000
  N   N3        1.0  0.33190  0.25205  0.44267  1.0000
  N   N4        1.0  0.66808  0.24794  0.94267  1.0000
  N   N5        1.0  0.44333  0.52403  0.72743  1.0000
  N   N6        1.0  0.55666  0.97596  0.22743  1.0000
  N   N7        1.0  0.55668  0.47596  0.27256  1.0000
  N   N8        1.0  0.44337  0.02404  0.77257  1.0000
  N   N9        1.0  0.12852  0.33632  0.76345  1.0000
  N   N10       1.0  0.87150  0.16368  0.26344  1.0000
  N   N11       1.0  0.87148  0.66368  0.23654  1.0000
  N   N12       1.0  0.12851  0.83633  0.73656  1.0000
