data_image0
_chemical_formula_structural       Cd3H36C36Br6N10O4
_chemical_formula_sum              "Cd3 H36 C36 Br6 N10 O4"
_cell_length_a       7.85568
_cell_length_b       8.56242
_cell_length_c       19.1602
_cell_angle_alpha    98.2828
_cell_angle_beta     91.5662
_cell_angle_gamma    100.987

_space_group_name_H-M_alt    "P 1"
_space_group_IT_number       1

loop_
  _space_group_symop_operation_xyz
  'x, y, z'

loop_
  _atom_site_type_symbol
  _atom_site_label
  _atom_site_symmetry_multiplicity
  _atom_site_fract_x
  _atom_site_fract_y
  _atom_site_fract_z
  _atom_site_occupancy
  Cd  Cd1       1.0  0.50000  0.50000  0.50000  1.0000
  Cd  Cd2       1.0  0.59709  0.60549  0.27289  1.0000
  Cd  Cd3       1.0  0.40291  0.39450  0.72711  1.0000
  H   H1        1.0  0.25088  0.56960  0.36055  1.0000
  H   H2        1.0  0.74912  0.43039  0.63945  1.0000
  H   H3        1.0  0.39755  0.88114  0.55352  1.0000
  H   H4        1.0  0.60245  0.11886  0.44648  1.0000
  H   H5        1.0  0.16584  0.00439  0.47713  1.0000
  H   H6        1.0  0.83416  0.99562  0.52286  1.0000
  H   H7        1.0  0.93135  0.81826  0.36476  1.0000
  H   H8        1.0  0.06865  0.18174  0.63523  1.0000
  H   H9        1.0  0.03955  0.69574  0.30610  1.0000
  H   H10       1.0  0.96045  0.30426  0.69390  1.0000
  H   H11       1.0  0.43074  0.17319  0.35722  1.0000
  H   H12       1.0  0.56926  0.82680  0.64278  1.0000
  H   H13       1.0  0.05630  0.37126  0.47558  1.0000
  H   H14       1.0  0.94370  0.62874  0.52442  1.0000
  H   H15       1.0  0.88807  0.10782  0.37901  1.0000
  H   H16       1.0  0.11193  0.89217  0.62099  1.0000
  H   H17       1.0  0.25222  0.93659  0.28358  1.0000
  H   H18       1.0  0.74778  0.06341  0.71642  1.0000
  H   H19       1.0  0.03125  0.94636  0.26245  1.0000
  H   H20       1.0  0.96875  0.05364  0.73755  1.0000
  H   H21       1.0  0.19594  0.07646  0.12482  1.0000
  H   H22       1.0  0.80407  0.92354  0.87518  1.0000
  H   H23       1.0  0.88751  0.92496  0.09322  1.0000
  H   H24       1.0  0.11250  0.07503  0.90679  1.0000
  H   H25       1.0  0.51917  0.03542  0.18223  1.0000
  H   H26       1.0  0.48083  0.96458  0.81777  1.0000
  H   H27       1.0  0.60905  0.86152  0.15294  1.0000
  H   H28       1.0  0.39095  0.13848  0.84705  1.0000
  H   H29       1.0  0.55136  0.74246  0.03415  1.0000
  H   H30       1.0  0.44864  0.25756  0.96585  1.0000
  H   H31       1.0  0.45917  0.75344  0.90968  1.0000
  H   H32       1.0  0.54084  0.24657  0.09032  1.0000
  H   H33       1.0  0.69030  0.24155  0.23948  1.0000
  H   H34       1.0  0.30969  0.75845  0.76052  1.0000
  H   H35       1.0  0.98717  0.40687  0.27484  1.0000
  H   H36       1.0  0.01282  0.59313  0.72516  1.0000
  C   C1        1.0  0.26077  0.66827  0.40376  1.0000
  C   C2        1.0  0.73923  0.33173  0.59624  1.0000
  C   C3        1.0  0.33329  0.83272  0.50212  1.0000
  C   C4        1.0  0.66670  0.16728  0.49788  1.0000
  C   C5        1.0  0.21983  0.89703  0.46453  1.0000
  C   C6        1.0  0.78018  0.10297  0.53547  1.0000
  C   C7        1.0  0.05839  0.80686  0.34428  1.0000
  C   C8        1.0  0.94161  0.19314  0.65572  1.0000
  C   C9        1.0  0.30845  0.19392  0.37780  1.0000
  C   C10       1.0  0.69155  0.80607  0.62220  1.0000
  C   C11       1.0  0.10982  0.29131  0.43696  1.0000
  C   C12       1.0  0.89018  0.70868  0.56304  1.0000
  C   C13       1.0  0.02447  0.16206  0.38979  1.0000
  C   C14       1.0  0.97553  0.83793  0.61021  1.0000
  C   C15       1.0  0.12689  0.94809  0.30553  1.0000
  C   C16       1.0  0.87311  0.05191  0.69447  1.0000
  C   C17       1.0  0.29782  0.34702  0.22255  1.0000
  C   C18       1.0  0.70218  0.65298  0.77745  1.0000
  C   C19       1.0  0.11487  0.25517  0.20170  1.0000
  C   C20       1.0  0.88513  0.74484  0.79830  1.0000
  C   C21       1.0  0.08653  0.11741  0.15010  1.0000
  C   C22       1.0  0.91347  0.88259  0.84990  1.0000
  C   C23       1.0  0.91943  0.03321  0.13223  1.0000
  C   C24       1.0  0.08057  0.96679  0.86777  1.0000
  C   C25       1.0  0.60552  0.98549  0.14508  1.0000
  C   C26       1.0  0.39448  0.01451  0.85492  1.0000
  C   C27       1.0  0.55168  0.99350  0.06991  1.0000
  C   C28       1.0  0.44833  0.00652  0.93010  1.0000
  C   C29       1.0  0.52839  0.85518  0.01895  1.0000
  C   C30       1.0  0.47162  0.14484  0.98105  1.0000
  C   C31       1.0  0.47691  0.86129  0.94931  1.0000
  C   C32       1.0  0.52310  0.13873  0.05069  1.0000
  C   C33       1.0  0.80665  0.21163  0.21581  1.0000
  C   C34       1.0  0.19335  0.78837  0.78419  1.0000
  C   C35       1.0  0.97198  0.30180  0.23425  1.0000
  C   C36       1.0  0.02802  0.69820  0.76575  1.0000
  Br  Br1       1.0  0.72066  0.48169  0.37785  1.0000
  Br  Br2       1.0  0.27934  0.51829  0.62215  1.0000
  Br  Br3       1.0  0.59938  0.90978  0.32036  1.0000
  Br  Br4       1.0  0.40062  0.09021  0.67964  1.0000
  Br  Br5       1.0  0.78171  0.60661  0.16157  1.0000
  Br  Br6       1.0  0.21828  0.39338  0.83843  1.0000
  N   N1        1.0  0.35717  0.68987  0.46390  1.0000
  N   N2        1.0  0.64283  0.31013  0.53610  1.0000
  N   N3        1.0  0.17507  0.79122  0.40207  1.0000
  N   N4        1.0  0.82493  0.20878  0.59793  1.0000
  N   N5        1.0  0.28658  0.31007  0.42889  1.0000
  N   N6        1.0  0.71342  0.68993  0.57111  1.0000
  N   N7        1.0  0.15232  0.10147  0.35263  1.0000
  N   N8        1.0  0.84768  0.89853  0.64737  1.0000
  N   N9        1.0  0.78314  0.08121  0.16515  1.0000
  N   N10       1.0  0.21685  0.91879  0.83486  1.0000
  O   O1        1.0  0.31071  0.49459  0.25080  1.0000
  O   O2        1.0  0.68929  0.50541  0.74921  1.0000
  O   O3        1.0  0.42069  0.27407  0.21134  1.0000
  O   O4        1.0  0.57930  0.72593  0.78866  1.0000
