data_image0
_chemical_formula_structural       CoH32C32N8O6
_chemical_formula_sum              "Co1 H32 C32 N8 O6"
_cell_length_a       8.40759
_cell_length_b       8.76591
_cell_length_c       11.0132
_cell_angle_alpha    71.0376
_cell_angle_beta     91.1099
_cell_angle_gamma    74.9214

_space_group_name_H-M_alt    "P 1"
_space_group_IT_number       1

loop_
  _space_group_symop_operation_xyz
  'x, y, z'

loop_
  _atom_site_type_symbol
  _atom_site_label
  _atom_site_symmetry_multiplicity
  _atom_site_fract_x
  _atom_site_fract_y
  _atom_site_fract_z
  _atom_site_occupancy
  Co  Co1       1.0  0.50000  0.00000  0.50000  1.0000
  H   H1        1.0  0.79064  0.03502  0.52751  1.0000
  H   H2        1.0  0.20937  0.96498  0.47248  1.0000
  H   H3        1.0  0.89721  0.78473  0.69133  1.0000
  H   H4        1.0  0.10279  0.21527  0.30867  1.0000
  H   H5        1.0  0.29540  0.20799  0.62566  1.0000
  H   H6        1.0  0.70460  0.79201  0.37434  1.0000
  H   H7        1.0  0.55100  0.29141  0.30389  1.0000
  H   H8        1.0  0.44900  0.70861  0.69611  1.0000
  H   H9        1.0  0.31257  0.87898  0.13356  1.0000
  H   H10       1.0  0.68743  0.12102  0.86643  1.0000
  H   H11       1.0  0.24229  0.09645  0.06550  1.0000
  H   H12       1.0  0.75772  0.90355  0.93450  1.0000
  H   H13       1.0  0.23444  0.71945  0.37903  1.0000
  H   H14       1.0  0.76555  0.28055  0.62097  1.0000
  H   H15       1.0  0.60934  0.88977  0.12849  1.0000
  H   H16       1.0  0.39067  0.11021  0.87152  1.0000
  H   H17       1.0  0.54237  0.11047  0.07267  1.0000
  H   H18       1.0  0.45764  0.88953  0.92733  1.0000
  H   H19       1.0  0.43840  0.60318  0.24404  1.0000
  H   H20       1.0  0.56159  0.39683  0.75597  1.0000
  H   H21       1.0  0.04682  0.19341  0.90354  1.0000
  H   H22       1.0  0.95318  0.80659  0.09646  1.0000
  H   H23       1.0  0.75046  0.69127  0.86147  1.0000
  H   H24       1.0  0.24954  0.30874  0.13853  1.0000
  H   H25       1.0  0.70745  0.26777  0.18075  1.0000
  H   H26       1.0  0.29255  0.73224  0.81925  1.0000
  H   H27       1.0  0.91959  0.07722  0.10503  1.0000
  H   H28       1.0  0.08042  0.92278  0.89498  1.0000
  H   H29       1.0  0.62011  0.57773  0.05653  1.0000
  H   H30       1.0  0.37989  0.42227  0.94347  1.0000
  H   H31       1.0  0.84829  0.93661  0.43495  1.0000
  H   H32       1.0  0.15171  0.06339  0.56504  1.0000
  C   C1        1.0  0.33435  0.00834  0.26259  1.0000
  C   C2        1.0  0.66565  0.99166  0.73740  1.0000
  C   C3        1.0  0.25038  0.47088  0.51338  1.0000
  C   C4        1.0  0.74962  0.52911  0.48662  1.0000
  C   C5        1.0  0.13590  0.52385  0.59943  1.0000
  C   C6        1.0  0.86410  0.47614  0.40058  1.0000
  C   C7        1.0  0.99151  0.51061  0.75713  1.0000
  C   C8        1.0  0.00848  0.48939  0.24287  1.0000
  C   C9        1.0  0.32187  0.29908  0.54055  1.0000
  C   C10       1.0  0.67812  0.70092  0.45945  1.0000
  C   C11       1.0  0.46553  0.34748  0.36044  1.0000
  C   C12       1.0  0.53446  0.65253  0.63956  1.0000
  C   C13       1.0  0.91058  0.44932  0.87161  1.0000
  C   C14       1.0  0.08942  0.55068  0.12839  1.0000
  C   C15       1.0  0.34591  0.99422  0.12889  1.0000
  C   C16       1.0  0.65410  0.00577  0.87111  1.0000
  C   C17       1.0  0.29023  0.58465  0.40397  1.0000
  C   C18       1.0  0.70976  0.41536  0.59604  1.0000
  C   C19       1.0  0.50745  0.99886  0.06980  1.0000
  C   C20       1.0  0.49256  0.00113  0.93020  1.0000
  C   C21       1.0  0.40164  0.52035  0.32896  1.0000
  C   C22       1.0  0.59835  0.47967  0.67104  1.0000
  C   C23       1.0  0.95445  0.27553  0.93965  1.0000
  C   C24       1.0  0.04555  0.72447  0.06035  1.0000
  C   C25       1.0  0.78874  0.55684  0.91451  1.0000
  C   C26       1.0  0.21126  0.44316  0.08549  1.0000
  C   C27       1.0  0.76136  0.31973  0.09301  1.0000
  C   C28       1.0  0.23864  0.68027  0.90699  1.0000
  C   C29       1.0  0.88139  0.21153  0.05013  1.0000
  C   C30       1.0  0.11862  0.78847  0.94987  1.0000
  C   C31       1.0  0.71444  0.49241  0.02434  1.0000
  C   C32       1.0  0.28555  0.50760  0.97566  1.0000
  N   N1        1.0  0.42444  0.23775  0.46422  1.0000
  N   N2        1.0  0.57556  0.76225  0.53577  1.0000
  N   N3        1.0  0.10155  0.41287  0.70789  1.0000
  N   N4        1.0  0.89845  0.58713  0.29212  1.0000
  N   N5        1.0  0.96398  0.67380  0.68002  1.0000
  N   N6        1.0  0.03602  0.32620  0.31998  1.0000
  N   N7        1.0  0.05354  0.68506  0.57862  1.0000
  N   N8        1.0  0.94646  0.31493  0.42139  1.0000
  O   O1        1.0  0.46093  0.02524  0.31822  1.0000
  O   O2        1.0  0.53906  0.97476  0.68178  1.0000
  O   O3        1.0  0.19738  0.00544  0.30930  1.0000
  O   O4        1.0  0.80262  0.99455  0.69070  1.0000
  O   O5        1.0  0.76029  0.03135  0.44062  1.0000
  O   O6        1.0  0.23971  0.96865  0.55937  1.0000
