data_image0
_chemical_formula_structural       Cd2H36C44N4O8
_chemical_formula_sum              "Cd2 H36 C44 N4 O8"
_cell_length_a       9.53831
_cell_length_b       10.4043
_cell_length_c       10.6784
_cell_angle_alpha    83.3557
_cell_angle_beta     90.1303
_cell_angle_gamma    62.7162

_space_group_name_H-M_alt    "P 1"
_space_group_IT_number       1

loop_
  _space_group_symop_operation_xyz
  'x, y, z'

loop_
  _atom_site_type_symbol
  _atom_site_label
  _atom_site_symmetry_multiplicity
  _atom_site_fract_x
  _atom_site_fract_y
  _atom_site_fract_z
  _atom_site_occupancy
  Cd  Cd1       1.0  0.89823  0.43205  0.36542  1.0000
  Cd  Cd2       1.0  0.10177  0.56795  0.63458  1.0000
  H   H1        1.0  0.37349  0.49954  0.24528  1.0000
  H   H2        1.0  0.62651  0.50046  0.75471  1.0000
  H   H3        1.0  0.46076  0.49056  0.09879  1.0000
  H   H4        1.0  0.53924  0.50944  0.90121  1.0000
  H   H5        1.0  0.59621  0.27126  0.00903  1.0000
  H   H6        1.0  0.40379  0.72875  0.99097  1.0000
  H   H7        1.0  0.66309  0.01168  0.00559  1.0000
  H   H8        1.0  0.33691  0.98832  0.99441  1.0000
  H   H9        1.0  0.62403  0.86957  0.19545  1.0000
  H   H10       1.0  0.37597  0.13043  0.80455  1.0000
  H   H11       1.0  0.51049  0.99338  0.38310  1.0000
  H   H12       1.0  0.48951  0.00662  0.61690  1.0000
  H   H13       1.0  0.43023  0.36552  0.43184  1.0000
  H   H14       1.0  0.56977  0.63448  0.56816  1.0000
  H   H15       1.0  0.46538  0.19405  0.50416  1.0000
  H   H16       1.0  0.53462  0.80595  0.49584  1.0000
  H   H17       1.0  0.65146  0.37205  0.52317  1.0000
  H   H18       1.0  0.34854  0.62795  0.47683  1.0000
  H   H19       1.0  0.62614  0.19417  0.68394  1.0000
  H   H20       1.0  0.37386  0.80582  0.31606  1.0000
  H   H21       1.0  0.13619  0.93726  0.69906  1.0000
  H   H22       1.0  0.86381  0.06274  0.30094  1.0000
  H   H23       1.0  0.13910  0.12818  0.53632  1.0000
  H   H24       1.0  0.86090  0.87182  0.46368  1.0000
  H   H25       1.0  0.09868  0.59854  0.29377  1.0000
  H   H26       1.0  0.90132  0.40146  0.70623  1.0000
  H   H27       1.0  0.14503  0.75070  0.11696  1.0000
  H   H28       1.0  0.85497  0.24931  0.88304  1.0000
  H   H29       1.0  0.77460  0.73412  0.89606  1.0000
  H   H30       1.0  0.22540  0.26588  0.10394  1.0000
  H   H31       1.0  0.74674  0.57996  0.08179  1.0000
  H   H32       1.0  0.25327  0.42004  0.91821  1.0000
  H   H33       1.0  0.09035  0.86334  0.89706  1.0000
  H   H34       1.0  0.90965  0.13667  0.10293  1.0000
  H   H35       1.0  0.75062  0.94498  0.80154  1.0000
  H   H36       1.0  0.24938  0.05502  0.19846  1.0000
  C   C1        1.0  0.61951  0.44860  0.25746  1.0000
  C   C2        1.0  0.38049  0.55140  0.74254  1.0000
  C   C3        1.0  0.48014  0.43689  0.19688  1.0000
  C   C4        1.0  0.51985  0.56311  0.80312  1.0000
  C   C5        1.0  0.51430  0.28033  0.19710  1.0000
  C   C6        1.0  0.48570  0.71967  0.80290  1.0000
  C   C7        1.0  0.57726  0.20961  0.09137  1.0000
  C   C8        1.0  0.42274  0.79039  0.90863  1.0000
  C   C9        1.0  0.61573  0.06353  0.08927  1.0000
  C   C10       1.0  0.38427  0.93647  0.91073  1.0000
  C   C11       1.0  0.59327  0.98429  0.19515  1.0000
  C   C12       1.0  0.40673  0.01571  0.80485  1.0000
  C   C13       1.0  0.53077  0.05369  0.30055  1.0000
  C   C14       1.0  0.46923  0.94631  0.69946  1.0000
  C   C15       1.0  0.49023  0.20092  0.30355  1.0000
  C   C16       1.0  0.50976  0.79908  0.69644  1.0000
  C   C17       1.0  0.41335  0.27081  0.41720  1.0000
  C   C18       1.0  0.58665  0.72919  0.58280  1.0000
  C   C19       1.0  0.23583  0.31806  0.41427  1.0000
  C   C20       1.0  0.76417  0.68194  0.58573  1.0000
  C   C21       1.0  0.75593  0.27356  0.56333  1.0000
  C   C22       1.0  0.24407  0.72644  0.43667  1.0000
  C   C23       1.0  0.74288  0.17257  0.65308  1.0000
  C   C24       1.0  0.25712  0.82743  0.34692  1.0000
  C   C25       1.0  0.87982  0.04853  0.70627  1.0000
  C   C26       1.0  0.12018  0.95147  0.29373  1.0000
  C   C27       1.0  0.02585  0.03249  0.66338  1.0000
  C   C28       1.0  0.97415  0.96751  0.33662  1.0000
  C   C29       1.0  0.02824  0.13775  0.57207  1.0000
  C   C30       1.0  0.97175  0.86225  0.42793  1.0000
  C   C31       1.0  0.02971  0.63089  0.20389  1.0000
  C   C32       1.0  0.97029  0.36911  0.79611  1.0000
  C   C33       1.0  0.05478  0.71567  0.10524  1.0000
  C   C34       1.0  0.94522  0.28433  0.89476  1.0000
  C   C35       1.0  0.95964  0.76052  0.99231  1.0000
  C   C36       1.0  0.04036  0.23948  0.00770  1.0000
  C   C37       1.0  0.84674  0.70954  0.98335  1.0000
  C   C38       1.0  0.15326  0.29046  0.01665  1.0000
  C   C39       1.0  0.83117  0.62314  0.08603  1.0000
  C   C40       1.0  0.16883  0.37686  0.91397  1.0000
  C   C41       1.0  0.97855  0.85847  0.89296  1.0000
  C   C42       1.0  0.02145  0.14153  0.10704  1.0000
  C   C43       1.0  0.86482  0.94565  0.80280  1.0000
  C   C44       1.0  0.13519  0.05434  0.19721  1.0000
  N   N1        1.0  0.91918  0.58553  0.19577  1.0000
  N   N2        1.0  0.08082  0.41447  0.80423  1.0000
  N   N3        1.0  0.89602  0.25676  0.52228  1.0000
  N   N4        1.0  0.10398  0.74324  0.47772  1.0000
  O   O1        1.0  0.59314  0.53855  0.33602  1.0000
  O   O2        1.0  0.40686  0.46145  0.66398  1.0000
  O   O3        1.0  0.75722  0.36506  0.22456  1.0000
  O   O4        1.0  0.24278  0.63494  0.77544  1.0000
  O   O5        1.0  0.17372  0.28181  0.32872  1.0000
  O   O6        1.0  0.82628  0.71819  0.67128  1.0000
  O   O7        1.0  0.15500  0.39167  0.49911  1.0000
  O   O8        1.0  0.84500  0.60833  0.50089  1.0000
