data_image0
_chemical_formula_structural       Na2Sm2H44C40O30
_chemical_formula_sum              "Na2 Sm2 H44 C40 O30"
_cell_length_a       8.3201
_cell_length_b       12.8228
_cell_length_c       11.7977
_cell_angle_alpha    68.8528
_cell_angle_beta     82.5089
_cell_angle_gamma    83.4282

_space_group_name_H-M_alt    "P 1"
_space_group_IT_number       1

loop_
  _space_group_symop_operation_xyz
  'x, y, z'

loop_
  _atom_site_type_symbol
  _atom_site_label
  _atom_site_symmetry_multiplicity
  _atom_site_fract_x
  _atom_site_fract_y
  _atom_site_fract_z
  _atom_site_occupancy
  Na  Na1       1.0  0.31027  0.54493  0.94536  1.0000
  Na  Na2       1.0  0.68973  0.45507  0.05464  1.0000
  Sm  Sm1       1.0  0.33964  0.27095  0.22279  1.0000
  Sm  Sm2       1.0  0.66036  0.72905  0.77721  1.0000
  H   H1        1.0  0.81726  0.31583  0.29166  1.0000
  H   H2        1.0  0.18274  0.68416  0.70833  1.0000
  H   H3        1.0  0.88015  0.17024  0.33115  1.0000
  H   H4        1.0  0.11985  0.82976  0.66885  1.0000
  H   H5        1.0  0.45934  0.36948  0.50964  1.0000
  H   H6        1.0  0.54066  0.63052  0.49036  1.0000
  H   H7        1.0  0.35410  0.49853  0.42642  1.0000
  H   H8        1.0  0.64590  0.50147  0.57358  1.0000
  H   H9        1.0  0.21288  0.41087  0.60644  1.0000
  H   H10       1.0  0.78712  0.58913  0.39356  1.0000
  H   H11       1.0  0.94586  0.38567  0.72936  1.0000
  H   H12       1.0  0.05414  0.61432  0.27064  1.0000
  H   H13       1.0  0.72507  0.30887  0.66900  1.0000
  H   H14       1.0  0.27493  0.69113  0.33100  1.0000
  H   H15       1.0  0.77054  0.25651  0.48249  1.0000
  H   H16       1.0  0.22946  0.74349  0.51751  1.0000
  H   H17       1.0  0.36661  0.24756  0.85974  1.0000
  H   H18       1.0  0.63339  0.75244  0.14026  1.0000
  H   H19       1.0  0.55078  0.16338  0.90565  1.0000
  H   H20       1.0  0.44923  0.83662  0.09436  1.0000
  H   H21       1.0  0.24187  0.91917  0.39904  1.0000
  H   H22       1.0  0.75812  0.08083  0.60096  1.0000
  H   H23       1.0  0.05917  0.00230  0.41451  1.0000
  H   H24       1.0  0.94083  0.99770  0.58549  1.0000
  H   H25       1.0  0.03829  0.90492  0.28820  1.0000
  H   H26       1.0  0.96172  0.09508  0.71179  1.0000
  H   H27       1.0  0.03299  0.82188  0.12896  1.0000
  H   H28       1.0  0.96702  0.17812  0.87103  1.0000
  H   H29       1.0  0.18835  0.90183  0.92702  1.0000
  H   H30       1.0  0.81167  0.09817  0.07298  1.0000
  H   H31       1.0  0.35069  0.06402  0.88252  1.0000
  H   H32       1.0  0.64933  0.93598  0.11748  1.0000
  H   H33       1.0  0.09946  0.48987  0.15094  1.0000
  H   H34       1.0  0.90053  0.51013  0.84906  1.0000
  H   H35       1.0  0.27201  0.53227  0.16240  1.0000
  H   H36       1.0  0.72799  0.46773  0.83760  1.0000
  H   H37       1.0  0.63498  0.10145  0.29940  1.0000
  H   H38       1.0  0.36501  0.89855  0.70060  1.0000
  H   H39       1.0  0.69059  0.20193  0.17650  1.0000
  H   H40       1.0  0.30941  0.79807  0.82350  1.0000
  H   H41       1.0  0.19083  0.46747  0.80310  1.0000
  H   H42       1.0  0.80917  0.53252  0.19690  1.0000
  H   H43       1.0  0.11179  0.39442  0.93926  1.0000
  H   H44       1.0  0.88820  0.60557  0.06074  1.0000
  C   C1        1.0  0.01882  0.30101  0.44196  1.0000
  C   C2        1.0  0.98118  0.69899  0.55804  1.0000
  C   C3        1.0  0.91956  0.25593  0.28372  1.0000
  C   C4        1.0  0.08044  0.74407  0.71628  1.0000
  C   C5        1.0  0.96337  0.27777  0.14845  1.0000
  C   C6        1.0  0.03663  0.72223  0.85155  1.0000
  C   C7        1.0  0.14421  0.34468  0.47685  1.0000
  C   C8        1.0  0.85579  0.65532  0.52315  1.0000
  C   C9        1.0  0.40805  0.41742  0.42240  1.0000
  C   C10       1.0  0.59194  0.58258  0.57760  1.0000
  C   C11       1.0  0.54268  0.43673  0.31844  1.0000
  C   C12       1.0  0.45732  0.56327  0.68156  1.0000
  C   C13       1.0  0.11769  0.37486  0.58029  1.0000
  C   C14       1.0  0.88230  0.62514  0.41970  1.0000
  C   C15       1.0  0.96596  0.36221  0.64841  1.0000
  C   C16       1.0  0.03404  0.63779  0.35159  1.0000
  C   C17       1.0  0.84146  0.32010  0.61351  1.0000
  C   C18       1.0  0.15854  0.67990  0.38649  1.0000
  C   C19       1.0  0.86781  0.28956  0.50982  1.0000
  C   C20       1.0  0.13219  0.71044  0.49017  1.0000
  C   C21       1.0  0.28816  0.07630  0.06134  1.0000
  C   C22       1.0  0.71185  0.92370  0.93866  1.0000
  C   C23       1.0  0.45415  0.21999  0.92958  1.0000
  C   C24       1.0  0.54586  0.78001  0.07042  1.0000
  C   C25       1.0  0.52841  0.32270  0.92887  1.0000
  C   C26       1.0  0.47159  0.67730  0.07113  1.0000
  C   C27       1.0  0.20300  0.02894  0.17703  1.0000
  C   C28       1.0  0.79701  0.97106  0.82297  1.0000
  C   C29       1.0  0.19115  0.00471  0.38871  1.0000
  C   C30       1.0  0.80884  0.99529  0.61129  1.0000
  C   C31       1.0  0.27189  0.04573  0.47237  1.0000
  C   C32       1.0  0.72810  0.95427  0.52763  1.0000
  C   C33       1.0  0.10917  0.93900  0.20051  1.0000
  C   C34       1.0  0.89084  0.06099  0.79948  1.0000
  C   C35       1.0  0.10537  0.89274  0.11020  1.0000
  C   C36       1.0  0.89464  0.10726  0.88980  1.0000
  C   C37       1.0  0.19192  0.93778  0.99695  1.0000
  C   C38       1.0  0.80810  0.06222  0.00305  1.0000
  C   C39       1.0  0.28272  0.03028  0.97151  1.0000
  C   C40       1.0  0.71730  0.96972  0.02848  1.0000
  O   O1        1.0  0.05518  0.27320  0.33772  1.0000
  O   O2        1.0  0.94482  0.72680  0.66227  1.0000
  O   O3        1.0  0.10880  0.29769  0.10235  1.0000
  O   O4        1.0  0.89120  0.70231  0.89765  1.0000
  O   O5        1.0  0.84729  0.27790  0.08923  1.0000
  O   O6        1.0  0.15270  0.72209  0.91077  1.0000
  O   O7        1.0  0.28712  0.35691  0.40155  1.0000
  O   O8        1.0  0.71288  0.64309  0.59845  1.0000
  O   O9        1.0  0.53774  0.38671  0.24232  1.0000
  O   O10       1.0  0.46226  0.61329  0.75768  1.0000
  O   O11       1.0  0.65149  0.49833  0.31503  1.0000
  O   O12       1.0  0.34852  0.50167  0.68497  1.0000
  O   O13       1.0  0.37455  0.16575  0.04776  1.0000
  O   O14       1.0  0.62545  0.83425  0.95224  1.0000
  O   O15       1.0  0.47883  0.36101  0.01576  1.0000
  O   O16       1.0  0.52117  0.63899  0.98424  1.0000
  O   O17       1.0  0.63029  0.36529  0.84055  1.0000
  O   O18       1.0  0.36970  0.63471  0.15945  1.0000
  O   O19       1.0  0.22193  0.07619  0.26319  1.0000
  O   O20       1.0  0.77807  0.92381  0.73682  1.0000
  O   O21       1.0  0.35162  0.13262  0.42302  1.0000
  O   O22       1.0  0.64837  0.86738  0.57699  1.0000
  O   O23       1.0  0.25089  0.98828  0.58432  1.0000
  O   O24       1.0  0.74910  0.01172  0.41569  1.0000
  O   O25       1.0  0.21890  0.47033  0.15041  1.0000
  O   O26       1.0  0.78110  0.52967  0.84960  1.0000
  O   O27       1.0  0.59511  0.16090  0.22554  1.0000
  O   O28       1.0  0.40488  0.83909  0.77446  1.0000
  O   O29       1.0  0.10720  0.46797  0.87189  1.0000
  O   O30       1.0  0.89279  0.53202  0.12811  1.0000
