data_image0
_chemical_formula_structural       Sr4H48C32O36
_chemical_formula_sum              "Sr4 H48 C32 O36"
_cell_length_a       7.07227
_cell_length_b       9.42252
_cell_length_c       18.7368
_cell_angle_alpha    90.0002
_cell_angle_beta     90.0001
_cell_angle_gamma    99.4457

_space_group_name_H-M_alt    "P 1"
_space_group_IT_number       1

loop_
  _space_group_symop_operation_xyz
  'x, y, z'

loop_
  _atom_site_type_symbol
  _atom_site_label
  _atom_site_symmetry_multiplicity
  _atom_site_fract_x
  _atom_site_fract_y
  _atom_site_fract_z
  _atom_site_occupancy
  Sr  Sr1       1.0  0.48585  0.28948  0.03789  1.0000
  Sr  Sr2       1.0  0.01415  0.71052  0.53789  1.0000
  Sr  Sr3       1.0  0.51415  0.71052  0.96211  1.0000
  Sr  Sr4       1.0  0.98585  0.28948  0.46211  1.0000
  H   H1        1.0  0.20425  0.43036  0.12536  1.0000
  H   H2        1.0  0.29574  0.56965  0.62536  1.0000
  H   H3        1.0  0.79574  0.56964  0.87464  1.0000
  H   H4        1.0  0.70425  0.43035  0.37464  1.0000
  H   H5        1.0  0.07009  0.32606  0.07692  1.0000
  H   H6        1.0  0.42991  0.67394  0.57692  1.0000
  H   H7        1.0  0.92991  0.67394  0.92308  1.0000
  H   H8        1.0  0.57009  0.32606  0.42308  1.0000
  H   H9        1.0  0.75713  0.08504  0.11179  1.0000
  H   H10       1.0  0.74287  0.91496  0.61179  1.0000
  H   H11       1.0  0.24287  0.91496  0.88821  1.0000
  H   H12       1.0  0.25713  0.08504  0.38821  1.0000
  H   H13       1.0  0.55585  0.98227  0.09519  1.0000
  H   H14       1.0  0.94415  0.01773  0.59519  1.0000
  H   H15       1.0  0.44415  0.01774  0.90481  1.0000
  H   H16       1.0  0.05585  0.98226  0.40481  1.0000
  H   H17       1.0  0.85840  0.45359  0.03867  1.0000
  H   H18       1.0  0.64159  0.54641  0.53867  1.0000
  H   H19       1.0  0.14159  0.54641  0.96133  1.0000
  H   H20       1.0  0.35840  0.45359  0.46133  1.0000
  H   H21       1.0  0.85906  0.35512  0.97234  1.0000
  H   H22       1.0  0.64094  0.64488  0.47234  1.0000
  H   H23       1.0  0.14094  0.64488  0.02766  1.0000
  H   H24       1.0  0.35906  0.35512  0.52766  1.0000
  H   H25       1.0  0.44447  0.88193  0.68336  1.0000
  H   H26       1.0  0.05553  0.11807  0.18336  1.0000
  H   H27       1.0  0.55553  0.11807  0.31664  1.0000
  H   H28       1.0  0.94447  0.88193  0.81664  1.0000
  H   H29       1.0  0.64919  0.18591  0.58460  1.0000
  H   H30       1.0  0.85081  0.81409  0.08461  1.0000
  H   H31       1.0  0.35081  0.81408  0.41540  1.0000
  H   H32       1.0  0.14920  0.18591  0.91540  1.0000
  H   H33       1.0  0.81965  0.44758  0.76864  1.0000
  H   H34       1.0  0.68035  0.55242  0.26864  1.0000
  H   H35       1.0  0.18035  0.55242  0.23136  1.0000
  H   H36       1.0  0.31966  0.44758  0.73136  1.0000
  H   H37       1.0  0.52335  0.01178  0.79532  1.0000
  H   H38       1.0  0.97666  0.98822  0.29533  1.0000
  H   H39       1.0  0.47665  0.98822  0.20468  1.0000
  H   H40       1.0  0.02335  0.01178  0.70468  1.0000
  H   H41       1.0  0.13817  0.04071  0.06499  1.0000
  H   H42       1.0  0.36183  0.95929  0.56498  1.0000
  H   H43       1.0  0.86183  0.95930  0.93502  1.0000
  H   H44       1.0  0.63817  0.04070  0.43501  1.0000
  H   H45       1.0  0.25344  0.98746  0.00009  1.0000
  H   H46       1.0  0.24656  0.01254  0.50009  1.0000
  H   H47       1.0  0.74656  0.01254  0.99991  1.0000
  H   H48       1.0  0.75344  0.98746  0.49991  1.0000
  C   C1        1.0  0.68224  0.25818  0.86989  1.0000
  C   C2        1.0  0.81776  0.74182  0.36989  1.0000
  C   C3        1.0  0.31776  0.74182  0.13011  1.0000
  C   C4        1.0  0.18224  0.25818  0.63011  1.0000
  C   C5        1.0  0.83375  0.45200  0.62578  1.0000
  C   C6        1.0  0.66625  0.54800  0.12578  1.0000
  C   C7        1.0  0.16625  0.54800  0.37422  1.0000
  C   C8        1.0  0.33375  0.45200  0.87422  1.0000
  C   C9        1.0  0.74246  0.33012  0.67221  1.0000
  C   C10       1.0  0.75754  0.66987  0.17222  1.0000
  C   C11       1.0  0.25754  0.66987  0.32778  1.0000
  C   C12       1.0  0.24246  0.33013  0.82779  1.0000
  C   C13       1.0  0.57940  0.08655  0.68697  1.0000
  C   C14       1.0  0.92060  0.91345  0.18697  1.0000
  C   C15       1.0  0.42060  0.91345  0.31303  1.0000
  C   C16       1.0  0.07940  0.08656  0.81303  1.0000
  C   C17       1.0  0.65576  0.20000  0.64233  1.0000
  C   C18       1.0  0.84424  0.80000  0.14233  1.0000
  C   C19       1.0  0.34425  0.79999  0.35767  1.0000
  C   C20       1.0  0.15576  0.20000  0.85767  1.0000
  C   C21       1.0  0.74934  0.34630  0.74616  1.0000
  C   C22       1.0  0.75066  0.65370  0.24617  1.0000
  C   C23       1.0  0.25066  0.65370  0.25383  1.0000
  C   C24       1.0  0.24934  0.34630  0.75383  1.0000
  C   C25       1.0  0.58415  0.10135  0.76106  1.0000
  C   C26       1.0  0.91586  0.89865  0.26107  1.0000
  C   C27       1.0  0.41586  0.89865  0.23894  1.0000
  C   C28       1.0  0.08415  0.10135  0.73894  1.0000
  C   C29       1.0  0.66982  0.23330  0.79079  1.0000
  C   C30       1.0  0.83018  0.76670  0.29079  1.0000
  C   C31       1.0  0.33018  0.76670  0.20921  1.0000
  C   C32       1.0  0.16982  0.23330  0.70921  1.0000
  O   O1        1.0  0.58618  0.16870  0.91300  1.0000
  O   O2        1.0  0.91383  0.83130  0.41300  1.0000
  O   O3        1.0  0.41382  0.83130  0.08700  1.0000
  O   O4        1.0  0.08617  0.16870  0.58700  1.0000
  O   O5        1.0  0.79088  0.37153  0.89145  1.0000
  O   O6        1.0  0.70912  0.62847  0.39145  1.0000
  O   O7        1.0  0.20912  0.62847  0.10855  1.0000
  O   O8        1.0  0.29087  0.37153  0.60855  1.0000
  O   O9        1.0  0.89792  0.57195  0.65362  1.0000
  O   O10       1.0  0.60208  0.42805  0.15362  1.0000
  O   O11       1.0  0.10208  0.42805  0.34638  1.0000
  O   O12       1.0  0.39792  0.57195  0.84638  1.0000
  O   O13       1.0  0.84117  0.42913  0.55756  1.0000
  O   O14       1.0  0.65883  0.57086  0.05756  1.0000
  O   O15       1.0  0.15883  0.57086  0.44244  1.0000
  O   O16       1.0  0.34117  0.42914  0.94244  1.0000
  O   O17       1.0  0.18179  0.32897  0.10977  1.0000
  O   O18       1.0  0.31820  0.67103  0.60977  1.0000
  O   O19       1.0  0.81820  0.67103  0.89023  1.0000
  O   O20       1.0  0.68179  0.32897  0.39023  1.0000
  O   O21       1.0  0.63415  0.08067  0.08716  1.0000
  O   O22       1.0  0.86585  0.91934  0.58716  1.0000
  O   O23       1.0  0.36585  0.91934  0.91284  1.0000
  O   O24       1.0  0.13415  0.08066  0.41284  1.0000
  O   O25       1.0  0.87432  0.35489  0.02619  1.0000
  O   O26       1.0  0.62568  0.64511  0.52619  1.0000
  O   O27       1.0  0.12568  0.64511  0.97381  1.0000
  O   O28       1.0  0.37432  0.35489  0.47381  1.0000
  O   O29       1.0  0.50542  0.95910  0.65200  1.0000
  O   O30       1.0  0.99458  0.04089  0.15200  1.0000
  O   O31       1.0  0.49457  0.04089  0.34800  1.0000
  O   O32       1.0  0.00543  0.95911  0.84800  1.0000
  O   O33       1.0  0.21831  0.07282  0.02350  1.0000
  O   O34       1.0  0.28169  0.92718  0.52350  1.0000
  O   O35       1.0  0.78169  0.92718  0.97650  1.0000
  O   O36       1.0  0.71831  0.07282  0.47650  1.0000
