data_image0
_chemical_formula_structural       Ca4H40C32O32
_chemical_formula_sum              "Ca4 H40 C32 O32"
_cell_length_a       6.57103
_cell_length_b       9.23973
_cell_length_c       18.6843
_cell_angle_alpha    89.9999
_cell_angle_beta     90.0001
_cell_angle_gamma    105.692

_space_group_name_H-M_alt    "P 1"
_space_group_IT_number       1

loop_
  _space_group_symop_operation_xyz
  'x, y, z'

loop_
  _atom_site_type_symbol
  _atom_site_label
  _atom_site_symmetry_multiplicity
  _atom_site_fract_x
  _atom_site_fract_y
  _atom_site_fract_z
  _atom_site_occupancy
  Ca  Ca1       1.0  0.59633  0.81018  0.48526  1.0000
  Ca  Ca2       1.0  0.90367  0.18982  0.98526  1.0000
  Ca  Ca3       1.0  0.40367  0.18982  0.51474  1.0000
  Ca  Ca4       1.0  0.09633  0.81017  0.01474  1.0000
  H   H1        1.0  0.43567  0.35314  0.80131  1.0000
  H   H2        1.0  0.06434  0.64686  0.30131  1.0000
  H   H3        1.0  0.56434  0.64686  0.19869  1.0000
  H   H4        1.0  0.93566  0.35314  0.69869  1.0000
  H   H5        1.0  0.26452  0.52436  0.49321  1.0000
  H   H6        1.0  0.23548  0.47564  0.99321  1.0000
  H   H7        1.0  0.73547  0.47564  0.50679  1.0000
  H   H8        1.0  0.76452  0.52436  0.00679  1.0000
  H   H9        1.0  0.18417  0.59648  0.42558  1.0000
  H   H10       1.0  0.31583  0.40352  0.92558  1.0000
  H   H11       1.0  0.81583  0.40352  0.57441  1.0000
  H   H12       1.0  0.68417  0.59648  0.07441  1.0000
  H   H13       1.0  0.83435  0.96904  0.73876  1.0000
  H   H14       1.0  0.66565  0.03097  0.23876  1.0000
  H   H15       1.0  0.16565  0.03096  0.26124  1.0000
  H   H16       1.0  0.33435  0.96903  0.76124  1.0000
  H   H17       1.0  0.63862  0.66586  0.91642  1.0000
  H   H18       1.0  0.86137  0.33414  0.41642  1.0000
  H   H19       1.0  0.36137  0.33414  0.08358  1.0000
  H   H20       1.0  0.13863  0.66586  0.58358  1.0000
  H   H21       1.0  0.53832  0.49989  0.69966  1.0000
  H   H22       1.0  0.96169  0.50011  0.19966  1.0000
  H   H23       1.0  0.46169  0.50011  0.30034  1.0000
  H   H24       1.0  0.03831  0.49989  0.80034  1.0000
  H   H25       1.0  0.56524  0.50102  0.41257  1.0000
  H   H26       1.0  0.93476  0.49898  0.91257  1.0000
  H   H27       1.0  0.43476  0.49898  0.58743  1.0000
  H   H28       1.0  0.06524  0.50102  0.08743  1.0000
  H   H29       1.0  0.79920  0.61451  0.40246  1.0000
  H   H30       1.0  0.70080  0.38549  0.90246  1.0000
  H   H31       1.0  0.20080  0.38550  0.59754  1.0000
  H   H32       1.0  0.29920  0.61450  0.09754  1.0000
  H   H33       1.0  0.07819  0.85113  0.49137  1.0000
  H   H34       1.0  0.42181  0.14887  0.99137  1.0000
  H   H35       1.0  0.92182  0.14887  0.50863  1.0000
  H   H36       1.0  0.57819  0.85113  0.00863  1.0000
  H   H37       1.0  0.04617  0.94091  0.42474  1.0000
  H   H38       1.0  0.45383  0.05909  0.92474  1.0000
  H   H39       1.0  0.95383  0.05909  0.57526  1.0000
  H   H40       1.0  0.54617  0.94091  0.07526  1.0000
  C   C1        1.0  0.68743  0.73780  0.71126  1.0000
  C   C2        1.0  0.81257  0.26220  0.21126  1.0000
  C   C3        1.0  0.31257  0.26220  0.28874  1.0000
  C   C4        1.0  0.18743  0.73780  0.78874  1.0000
  C   C5        1.0  0.76305  0.85641  0.75906  1.0000
  C   C6        1.0  0.73695  0.14359  0.25906  1.0000
  C   C7        1.0  0.23694  0.14359  0.24094  1.0000
  C   C8        1.0  0.26305  0.85641  0.74094  1.0000
  C   C9        1.0  0.74679  0.83022  0.83274  1.0000
  C   C10       1.0  0.75322  0.16978  0.33274  1.0000
  C   C11       1.0  0.25321  0.16978  0.16726  1.0000
  C   C12       1.0  0.24679  0.83022  0.66726  1.0000
  C   C13       1.0  0.65188  0.68564  0.85886  1.0000
  C   C14       1.0  0.84812  0.31436  0.35886  1.0000
  C   C15       1.0  0.34812  0.31436  0.14114  1.0000
  C   C16       1.0  0.15188  0.68564  0.64114  1.0000
  C   C17       1.0  0.57744  0.56833  0.81066  1.0000
  C   C18       1.0  0.92256  0.43168  0.31066  1.0000
  C   C19       1.0  0.42256  0.43167  0.18934  1.0000
  C   C20       1.0  0.07744  0.56833  0.68934  1.0000
  C   C21       1.0  0.59568  0.59245  0.73719  1.0000
  C   C22       1.0  0.90432  0.40755  0.23719  1.0000
  C   C23       1.0  0.40432  0.40755  0.26281  1.0000
  C   C24       1.0  0.09568  0.59245  0.76281  1.0000
  C   C25       1.0  0.69579  0.76641  0.63236  1.0000
  C   C26       1.0  0.80421  0.23359  0.13236  1.0000
  C   C27       1.0  0.30421  0.23359  0.36764  1.0000
  C   C28       1.0  0.19578  0.76641  0.86764  1.0000
  C   C29       1.0  0.83006  0.95591  0.88474  1.0000
  C   C30       1.0  0.66994  0.04409  0.38474  1.0000
  C   C31       1.0  0.16993  0.04409  0.11526  1.0000
  C   C32       1.0  0.33007  0.95591  0.61526  1.0000
  O   O1        1.0  0.62059  0.65561  0.58985  1.0000
  O   O2        1.0  0.87941  0.34439  0.08985  1.0000
  O   O3        1.0  0.37941  0.34439  0.41015  1.0000
  O   O4        1.0  0.12059  0.65561  0.91015  1.0000
  O   O5        1.0  0.76846  0.89886  0.60860  1.0000
  O   O6        1.0  0.73154  0.10114  0.10860  1.0000
  O   O7        1.0  0.23154  0.10113  0.39140  1.0000
  O   O8        1.0  0.26846  0.89886  0.89140  1.0000
  O   O9        1.0  0.89472  0.09002  0.86303  1.0000
  O   O10       1.0  0.60528  0.90998  0.36303  1.0000
  O   O11       1.0  0.10527  0.90998  0.13697  1.0000
  O   O12       1.0  0.39474  0.09002  0.63697  1.0000
  O   O13       1.0  0.82934  0.92129  0.95211  1.0000
  O   O14       1.0  0.67066  0.07871  0.45211  1.0000
  O   O15       1.0  0.17065  0.07871  0.04789  1.0000
  O   O16       1.0  0.32935  0.92129  0.54789  1.0000
  O   O17       1.0  0.48460  0.42666  0.83934  1.0000
  O   O18       1.0  0.01540  0.57334  0.33934  1.0000
  O   O19       1.0  0.51540  0.57334  0.16066  1.0000
  O   O20       1.0  0.98460  0.42666  0.66066  1.0000
  O   O21       1.0  0.25614  0.62045  0.47167  1.0000
  O   O22       1.0  0.24385  0.37955  0.97167  1.0000
  O   O23       1.0  0.74385  0.37955  0.52833  1.0000
  O   O24       1.0  0.75615  0.62045  0.02833  1.0000
  O   O25       1.0  0.67211  0.59096  0.43230  1.0000
  O   O26       1.0  0.82789  0.40904  0.93230  1.0000
  O   O27       1.0  0.32789  0.40904  0.56770  1.0000
  O   O28       1.0  0.17211  0.59096  0.06770  1.0000
  O   O29       1.0  0.97364  0.85294  0.45383  1.0000
  O   O30       1.0  0.52635  0.14706  0.95383  1.0000
  O   O31       1.0  0.02636  0.14706  0.54617  1.0000
  O   O32       1.0  0.47365  0.85294  0.04617  1.0000
