data_image0
_chemical_formula_structural       Zn4H32C24N8O28
_chemical_formula_sum              "Zn4 H32 C24 N8 O28"
_cell_length_a       5.33458
_cell_length_b       10.7893
_cell_length_c       15.5102
_cell_angle_alpha    90
_cell_angle_beta     89.9999
_cell_angle_gamma    93.7802

_space_group_name_H-M_alt    "P 1"
_space_group_IT_number       1

loop_
  _space_group_symop_operation_xyz
  'x, y, z'

loop_
  _atom_site_type_symbol
  _atom_site_label
  _atom_site_symmetry_multiplicity
  _atom_site_fract_x
  _atom_site_fract_y
  _atom_site_fract_z
  _atom_site_occupancy
  Zn  Zn1       1.0  0.54728  0.30473  0.36306  1.0000
  Zn  Zn2       1.0  0.95272  0.19527  0.86307  1.0000
  Zn  Zn3       1.0  0.45273  0.69526  0.63694  1.0000
  Zn  Zn4       1.0  0.04727  0.80474  0.13694  1.0000
  H   H1        1.0  0.35648  0.04427  0.75457  1.0000
  H   H2        1.0  0.14352  0.45573  0.25457  1.0000
  H   H3        1.0  0.64351  0.95573  0.24544  1.0000
  H   H4        1.0  0.85648  0.54427  0.74544  1.0000
  H   H5        1.0  0.41367  0.00386  0.59532  1.0000
  H   H6        1.0  0.08633  0.49614  0.09532  1.0000
  H   H7        1.0  0.58634  0.99613  0.40469  1.0000
  H   H8        1.0  0.91367  0.50387  0.90468  1.0000
  H   H9        1.0  0.21255  0.13838  0.43719  1.0000
  H   H10       1.0  0.28745  0.36162  0.93720  1.0000
  H   H11       1.0  0.78745  0.86162  0.56281  1.0000
  H   H12       1.0  0.71254  0.63838  0.06281  1.0000
  H   H13       1.0  0.09041  0.17178  0.34617  1.0000
  H   H14       1.0  0.40959  0.32822  0.84617  1.0000
  H   H15       1.0  0.90959  0.82822  0.65383  1.0000
  H   H16       1.0  0.59040  0.67179  0.15384  1.0000
  H   H17       1.0  0.19912  0.41389  0.45847  1.0000
  H   H18       1.0  0.30089  0.08611  0.95847  1.0000
  H   H19       1.0  0.80087  0.58610  0.54152  1.0000
  H   H20       1.0  0.69912  0.91389  0.04152  1.0000
  H   H21       1.0  0.36564  0.52059  0.40855  1.0000
  H   H22       1.0  0.13437  0.97940  0.90855  1.0000
  H   H23       1.0  0.63436  0.47940  0.59145  1.0000
  H   H24       1.0  0.86564  0.02060  0.09145  1.0000
  H   H25       1.0  0.88573  0.52081  0.39373  1.0000
  H   H26       1.0  0.61426  0.97918  0.89373  1.0000
  H   H27       1.0  0.11427  0.47919  0.60627  1.0000
  H   H28       1.0  0.38573  0.02081  0.10627  1.0000
  H   H29       1.0  0.69226  0.55899  0.32548  1.0000
  H   H30       1.0  0.80774  0.94101  0.82548  1.0000
  H   H31       1.0  0.30774  0.44101  0.67452  1.0000
  H   H32       1.0  0.19226  0.05899  0.17452  1.0000
  C   C1        1.0  0.96224  0.19532  0.58682  1.0000
  C   C2        1.0  0.53778  0.30469  0.08682  1.0000
  C   C3        1.0  0.03777  0.80468  0.41318  1.0000
  C   C4        1.0  0.46223  0.69532  0.91318  1.0000
  C   C5        1.0  0.91539  0.21064  0.67496  1.0000
  C   C6        1.0  0.58461  0.28937  0.17496  1.0000
  C   C7        1.0  0.08461  0.78936  0.32504  1.0000
  C   C8        1.0  0.41538  0.71063  0.82504  1.0000
  C   C9        1.0  0.23726  0.08434  0.70612  1.0000
  C   C10       1.0  0.26275  0.41566  0.20612  1.0000
  C   C11       1.0  0.76274  0.91565  0.29388  1.0000
  C   C12       1.0  0.73726  0.58435  0.79388  1.0000
  C   C13       1.0  0.27342  0.06535  0.61782  1.0000
  C   C14       1.0  0.22658  0.43465  0.11782  1.0000
  C   C15       1.0  0.72659  0.93464  0.38218  1.0000
  C   C16       1.0  0.77342  0.56536  0.88218  1.0000
  C   C17       1.0  0.84412  0.26948  0.51741  1.0000
  C   C18       1.0  0.65589  0.23053  0.01741  1.0000
  C   C19       1.0  0.15590  0.73051  0.48259  1.0000
  C   C20       1.0  0.34409  0.76948  0.98259  1.0000
  C   C21       1.0  0.70740  0.28567  0.70980  1.0000
  C   C22       1.0  0.79259  0.21433  0.20980  1.0000
  C   C23       1.0  0.29261  0.71433  0.29019  1.0000
  C   C24       1.0  0.20739  0.78566  0.79020  1.0000
  N   N1        1.0  0.13853  0.12130  0.55844  1.0000
  N   N2        1.0  0.36147  0.37870  0.05844  1.0000
  N   N3        1.0  0.86148  0.87869  0.44156  1.0000
  N   N4        1.0  0.63852  0.62131  0.94156  1.0000
  N   N5        1.0  0.05752  0.15572  0.73329  1.0000
  N   N6        1.0  0.44248  0.34428  0.23329  1.0000
  N   N7        1.0  0.94247  0.84428  0.26671  1.0000
  N   N8        1.0  0.55752  0.65572  0.76671  1.0000
  O   O1        1.0  0.67996  0.21474  0.46955  1.0000
  O   O2        1.0  0.82004  0.28527  0.96955  1.0000
  O   O3        1.0  0.32005  0.78525  0.53045  1.0000
  O   O4        1.0  0.17995  0.71474  0.03045  1.0000
  O   O5        1.0  0.93824  0.37938  0.50955  1.0000
  O   O6        1.0  0.56178  0.12063  0.00956  1.0000
  O   O7        1.0  0.06177  0.62061  0.49045  1.0000
  O   O8        1.0  0.43822  0.87938  0.99045  1.0000
  O   O9        1.0  0.57043  0.33877  0.65712  1.0000
  O   O10       1.0  0.92958  0.16124  0.15712  1.0000
  O   O11       1.0  0.42957  0.66123  0.34288  1.0000
  O   O12       1.0  0.07042  0.83877  0.84288  1.0000
  O   O13       1.0  0.68298  0.28688  0.79187  1.0000
  O   O14       1.0  0.81703  0.21312  0.29187  1.0000
  O   O15       1.0  0.31701  0.71313  0.20812  1.0000
  O   O16       1.0  0.18296  0.78688  0.70813  1.0000
  O   O17       1.0  0.25136  0.15688  0.37553  1.0000
  O   O18       1.0  0.24864  0.34312  0.87553  1.0000
  O   O19       1.0  0.74864  0.84311  0.62447  1.0000
  O   O20       1.0  0.75135  0.65689  0.12447  1.0000
  O   O21       1.0  0.35534  0.43232  0.42455  1.0000
  O   O22       1.0  0.14467  0.06768  0.92455  1.0000
  O   O23       1.0  0.64465  0.56768  0.57545  1.0000
  O   O24       1.0  0.85535  0.93232  0.07544  1.0000
  O   O25       1.0  0.81392  0.49576  0.33742  1.0000
  O   O26       1.0  0.68607  0.00423  0.83742  1.0000
  O   O27       1.0  0.18607  0.50423  0.66257  1.0000
  O   O28       1.0  0.31392  0.99577  0.16258  1.0000
