data_image0
_chemical_formula_structural       Er3H15C18N6O21
_chemical_formula_sum              "Er3 H15 C18 N6 O21"
_cell_length_a       9.64246
_cell_length_b       9.64245
_cell_length_c       9.64248
_cell_angle_alpha    79.1363
_cell_angle_beta     79.1361
_cell_angle_gamma    79.1367

_space_group_name_H-M_alt    "P 1"
_space_group_IT_number       1

loop_
  _space_group_symop_operation_xyz
  'x, y, z'

loop_
  _atom_site_type_symbol
  _atom_site_label
  _atom_site_symmetry_multiplicity
  _atom_site_fract_x
  _atom_site_fract_y
  _atom_site_fract_z
  _atom_site_occupancy
  Er  Er1       1.0  0.50000  0.00907  0.99094  1.0000
  Er  Er2       1.0  0.99094  0.50000  0.00907  1.0000
  Er  Er3       1.0  0.00907  0.99094  0.50000  1.0000
  H   H1        1.0  0.41079  0.58922  0.00000  1.0000
  H   H2        1.0  0.00000  0.41078  0.58922  1.0000
  H   H3        1.0  0.58922  0.00001  0.41078  1.0000
  H   H4        1.0  0.76399  0.85354  0.07517  1.0000
  H   H5        1.0  0.07517  0.76399  0.85354  1.0000
  H   H6        1.0  0.85354  0.07517  0.76399  1.0000
  H   H7        1.0  0.92485  0.14646  0.23602  1.0000
  H   H8        1.0  0.14647  0.23601  0.92483  1.0000
  H   H9        1.0  0.23601  0.92483  0.14647  1.0000
  H   H10       1.0  0.76611  0.02319  0.06272  1.0000
  H   H11       1.0  0.06271  0.76611  0.02320  1.0000
  H   H12       1.0  0.02319  0.06272  0.76611  1.0000
  H   H13       1.0  0.93729  0.97681  0.23389  1.0000
  H   H14       1.0  0.97681  0.23389  0.93729  1.0000
  H   H15       1.0  0.23389  0.93729  0.97681  1.0000
  C   C1        1.0  0.67004  0.66650  0.00139  1.0000
  C   C2        1.0  0.00138  0.67005  0.66651  1.0000
  C   C3        1.0  0.66651  0.00138  0.67004  1.0000
  C   C4        1.0  0.99862  0.33350  0.32996  1.0000
  C   C5        1.0  0.33351  0.32996  0.99861  1.0000
  C   C6        1.0  0.32997  0.99862  0.33350  1.0000
  C   C7        1.0  0.63902  0.51957  0.99857  1.0000
  C   C8        1.0  0.99856  0.63902  0.51958  1.0000
  C   C9        1.0  0.51958  0.99856  0.63901  1.0000
  C   C10       1.0  0.00144  0.48043  0.36100  1.0000
  C   C11       1.0  0.48043  0.36098  0.00144  1.0000
  C   C12       1.0  0.36099  0.00144  0.48043  1.0000
  C   C13       1.0  0.49926  0.50074  0.00000  1.0000
  C   C14       1.0  0.00000  0.49926  0.50075  1.0000
  C   C15       1.0  0.50075  0.00001  0.49926  1.0000
  C   C16       1.0  0.72355  0.27646  0.00001  1.0000
  C   C17       1.0  0.00000  0.72354  0.27647  1.0000
  C   C18       1.0  0.27646  0.00001  0.72354  1.0000
  N   N1        1.0  0.74984  0.41253  0.00023  1.0000
  N   N2        1.0  0.00023  0.74983  0.41253  1.0000
  N   N3        1.0  0.41253  0.00022  0.74983  1.0000
  N   N4        1.0  0.99978  0.58747  0.25018  1.0000
  N   N5        1.0  0.58748  0.25016  0.99978  1.0000
  N   N6        1.0  0.25017  0.99978  0.58748  1.0000
  O   O1        1.0  0.57435  0.77110  0.97294  1.0000
  O   O2        1.0  0.97292  0.57435  0.77110  1.0000
  O   O3        1.0  0.77111  0.97292  0.57435  1.0000
  O   O4        1.0  0.02708  0.22889  0.42565  1.0000
  O   O5        1.0  0.22891  0.42566  0.02706  1.0000
  O   O6        1.0  0.42565  0.02709  0.22889  1.0000
  O   O7        1.0  0.79015  0.67323  0.03554  1.0000
  O   O8        1.0  0.03553  0.79015  0.67325  1.0000
  O   O9        1.0  0.67324  0.03552  0.79015  1.0000
  O   O10       1.0  0.96448  0.32677  0.20985  1.0000
  O   O11       1.0  0.32677  0.20985  0.96447  1.0000
  O   O12       1.0  0.20985  0.96447  0.32677  1.0000
  O   O13       1.0  0.82729  0.17272  0.00001  1.0000
  O   O14       1.0  0.00000  0.82728  0.17272  1.0000
  O   O15       1.0  0.17272  0.00001  0.82728  1.0000
  O   O16       1.0  0.70496  0.94568  0.09363  1.0000
  O   O17       1.0  0.09362  0.70497  0.94568  1.0000
  O   O18       1.0  0.94568  0.09362  0.70497  1.0000
  O   O19       1.0  0.90638  0.05433  0.29504  1.0000
  O   O20       1.0  0.05433  0.29504  0.90637  1.0000
  O   O21       1.0  0.29504  0.90639  0.05433  1.0000
