data_image0
_chemical_formula_structural       Dy3H15C18N6O21
_chemical_formula_sum              "Dy3 H15 C18 N6 O21"
_cell_length_a       9.67993
_cell_length_b       9.67994
_cell_length_c       9.67992
_cell_angle_alpha    79.3718
_cell_angle_beta     79.372
_cell_angle_gamma    79.3718

_space_group_name_H-M_alt    "P 1"
_space_group_IT_number       1

loop_
  _space_group_symop_operation_xyz
  'x, y, z'

loop_
  _atom_site_type_symbol
  _atom_site_label
  _atom_site_symmetry_multiplicity
  _atom_site_fract_x
  _atom_site_fract_y
  _atom_site_fract_z
  _atom_site_occupancy
  Dy  Dy1       1.0  0.50000  0.00907  0.99093  1.0000
  Dy  Dy2       1.0  0.99093  0.50000  0.00907  1.0000
  Dy  Dy3       1.0  0.00907  0.99093  0.50000  1.0000
  H   H1        1.0  0.41174  0.58826  1.00000  1.0000
  H   H2        1.0  0.00000  0.41174  0.58827  1.0000
  H   H3        1.0  0.58827  1.00000  0.41174  1.0000
  H   H4        1.0  0.76505  0.85432  0.07514  1.0000
  H   H5        1.0  0.07514  0.76505  0.85433  1.0000
  H   H6        1.0  0.85432  0.07514  0.76505  1.0000
  H   H7        1.0  0.92487  0.14568  0.23496  1.0000
  H   H8        1.0  0.14568  0.23496  0.92487  1.0000
  H   H9        1.0  0.23496  0.92487  0.14568  1.0000
  H   H10       1.0  0.76682  0.02356  0.06302  1.0000
  H   H11       1.0  0.06302  0.76682  0.02356  1.0000
  H   H12       1.0  0.02356  0.06301  0.76682  1.0000
  H   H13       1.0  0.93699  0.97644  0.23319  1.0000
  H   H14       1.0  0.97644  0.23318  0.93699  1.0000
  H   H15       1.0  0.23319  0.93699  0.97644  1.0000
  C   C1        1.0  0.66974  0.66605  0.00150  1.0000
  C   C2        1.0  0.00150  0.66974  0.66605  1.0000
  C   C3        1.0  0.66605  0.00150  0.66974  1.0000
  C   C4        1.0  0.99850  0.33395  0.33027  1.0000
  C   C5        1.0  0.33396  0.33027  0.99850  1.0000
  C   C6        1.0  0.33027  0.99850  0.33396  1.0000
  C   C7        1.0  0.63879  0.51943  0.99893  1.0000
  C   C8        1.0  0.99893  0.63879  0.51943  1.0000
  C   C9        1.0  0.51943  0.99893  0.63879  1.0000
  C   C10       1.0  0.00108  0.48057  0.36122  1.0000
  C   C11       1.0  0.48058  0.36122  0.00108  1.0000
  C   C12       1.0  0.36122  0.00108  0.48058  1.0000
  C   C13       1.0  0.49967  0.50034  0.00000  1.0000
  C   C14       1.0  0.00000  0.49967  0.50034  1.0000
  C   C15       1.0  0.50034  0.00000  0.49967  1.0000
  C   C16       1.0  0.72254  0.27746  0.00000  1.0000
  C   C17       1.0  0.00000  0.72253  0.27746  1.0000
  C   C18       1.0  0.27746  0.00000  0.72254  1.0000
  N   N1        1.0  0.74881  0.41297  0.00061  1.0000
  N   N2        1.0  0.00061  0.74880  0.41297  1.0000
  N   N3        1.0  0.41297  0.00060  0.74881  1.0000
  N   N4        1.0  0.99940  0.58704  0.25120  1.0000
  N   N5        1.0  0.58704  0.25120  0.99940  1.0000
  N   N6        1.0  0.25120  0.99940  0.58704  1.0000
  O   O1        1.0  0.57434  0.76968  0.97310  1.0000
  O   O2        1.0  0.97310  0.57434  0.76968  1.0000
  O   O3        1.0  0.76968  0.97310  0.57434  1.0000
  O   O4        1.0  0.02690  0.23032  0.42567  1.0000
  O   O5        1.0  0.23032  0.42566  0.02690  1.0000
  O   O6        1.0  0.42567  0.02690  0.23032  1.0000
  O   O7        1.0  0.78941  0.67382  0.03509  1.0000
  O   O8        1.0  0.03509  0.78941  0.67382  1.0000
  O   O9        1.0  0.67382  0.03509  0.78941  1.0000
  O   O10       1.0  0.96491  0.32618  0.21059  1.0000
  O   O11       1.0  0.32619  0.21059  0.96491  1.0000
  O   O12       1.0  0.21059  0.96491  0.32618  1.0000
  O   O13       1.0  0.82561  0.17439  0.00000  1.0000
  O   O14       1.0  0.00000  0.82561  0.17439  1.0000
  O   O15       1.0  0.17439  0.00000  0.82561  1.0000
  O   O16       1.0  0.70653  0.94584  0.09408  1.0000
  O   O17       1.0  0.09408  0.70652  0.94584  1.0000
  O   O18       1.0  0.94584  0.09408  0.70653  1.0000
  O   O19       1.0  0.90593  0.05416  0.29348  1.0000
  O   O20       1.0  0.05417  0.29348  0.90593  1.0000
  O   O21       1.0  0.29348  0.90593  0.05417  1.0000
