data_image0
_chemical_formula_structural       Li6H26C28S4O32
_chemical_formula_sum              "Li6 H26 C28 S4 O32"
_cell_length_a       9.48133
_cell_length_b       10.7122
_cell_length_c       11.4226
_cell_angle_alpha    103.303
_cell_angle_beta     106.129
_cell_angle_gamma    110.552

_space_group_name_H-M_alt    "P 1"
_space_group_IT_number       1

loop_
  _space_group_symop_operation_xyz
  'x, y, z'

loop_
  _atom_site_type_symbol
  _atom_site_label
  _atom_site_symmetry_multiplicity
  _atom_site_fract_x
  _atom_site_fract_y
  _atom_site_fract_z
  _atom_site_occupancy
  Li  Li1       1.0  0.00873  0.27532  0.38878  1.0000
  Li  Li2       1.0  0.99127  0.72468  0.61122  1.0000
  Li  Li3       1.0  0.38399  0.36244  0.38838  1.0000
  Li  Li4       1.0  0.61601  0.63756  0.61162  1.0000
  Li  Li5       1.0  0.14037  0.83787  0.08324  1.0000
  Li  Li6       1.0  0.85963  0.16213  0.91676  1.0000
  H   H1        1.0  0.07205  0.47807  0.29629  1.0000
  H   H2        1.0  0.92795  0.52194  0.70371  1.0000
  H   H3        1.0  0.88964  0.41235  0.28785  1.0000
  H   H4        1.0  0.11036  0.58765  0.71215  1.0000
  H   H5        1.0  0.14309  0.76586  0.86408  1.0000
  H   H6        1.0  0.85691  0.23414  0.13592  1.0000
  H   H7        1.0  0.27119  0.93037  0.92615  1.0000
  H   H8        1.0  0.72881  0.06963  0.07385  1.0000
  H   H9        1.0  0.61066  0.31741  0.53061  1.0000
  H   H10       1.0  0.38933  0.68259  0.46939  1.0000
  H   H11       1.0  0.29789  0.78308  0.67413  1.0000
  H   H12       1.0  0.70211  0.21692  0.32588  1.0000
  H   H13       1.0  0.76905  0.68153  0.86268  1.0000
  H   H14       1.0  0.23095  0.31847  0.13733  1.0000
  H   H15       1.0  0.03229  0.62423  0.14759  1.0000
  H   H16       1.0  0.96772  0.37577  0.85241  1.0000
  H   H17       1.0  0.21542  0.10790  0.84387  1.0000
  H   H18       1.0  0.78458  0.89210  0.15613  1.0000
  H   H19       1.0  0.54373  0.03721  0.76157  1.0000
  H   H20       1.0  0.45627  0.96279  0.23843  1.0000
  H   H21       1.0  0.07218  0.86893  0.44829  1.0000
  H   H22       1.0  0.92781  0.13107  0.55171  1.0000
  H   H23       1.0  0.64335  0.33667  0.03021  1.0000
  H   H24       1.0  0.35665  0.66333  0.96979  1.0000
  H   H25       1.0  0.19384  0.24606  0.72543  1.0000
  H   H26       1.0  0.80615  0.75394  0.27457  1.0000
  C   C1        1.0  0.26350  0.05320  0.44979  1.0000
  C   C2        1.0  0.73650  0.94680  0.55021  1.0000
  C   C3        1.0  0.42967  0.15335  0.51225  1.0000
  C   C4        1.0  0.57033  0.84665  0.48775  1.0000
  C   C5        1.0  0.53152  0.14928  0.62715  1.0000
  C   C6        1.0  0.46848  0.85072  0.37285  1.0000
  C   C7        1.0  0.46587  0.04151  0.67384  1.0000
  C   C8        1.0  0.53414  0.95849  0.32616  1.0000
  C   C9        1.0  0.30219  0.94084  0.60886  1.0000
  C   C10       1.0  0.69781  0.05916  0.39114  1.0000
  C   C11       1.0  0.20022  0.94761  0.49802  1.0000
  C   C12       1.0  0.79978  0.05239  0.50198  1.0000
  C   C13       1.0  0.70430  0.26205  0.69656  1.0000
  C   C14       1.0  0.29570  0.73795  0.30344  1.0000
  C   C15       1.0  0.40584  0.43079  0.75570  1.0000
  C   C16       1.0  0.59417  0.56921  0.24431  1.0000
  C   C17       1.0  0.57499  0.51720  0.82472  1.0000
  C   C18       1.0  0.42501  0.48280  0.17528  1.0000
  C   C19       1.0  0.65936  0.48326  0.92644  1.0000
  C   C20       1.0  0.34064  0.51674  0.07356  1.0000
  C   C21       1.0  0.57670  0.36222  0.95243  1.0000
  C   C22       1.0  0.42331  0.63778  0.04757  1.0000
  C   C23       1.0  0.40996  0.27431  0.87898  1.0000
  C   C24       1.0  0.59004  0.72569  0.12102  1.0000
  C   C25       1.0  0.32467  0.31100  0.78142  1.0000
  C   C26       1.0  0.67533  0.68900  0.21858  1.0000
  C   C27       1.0  0.83344  0.57966  0.00597  1.0000
  C   C28       1.0  0.16656  0.42034  0.99403  1.0000
  S   S1        1.0  0.13594  0.05885  0.30546  1.0000
  S   S2        1.0  0.86406  0.94115  0.69454  1.0000
  S   S3        1.0  0.29369  0.47768  0.63656  1.0000
  S   S4        1.0  0.70631  0.52232  0.36344  1.0000
  O   O1        1.0  0.19229  0.02043  0.20175  1.0000
  O   O2        1.0  0.80771  0.97957  0.79825  1.0000
  O   O3        1.0  0.98004  0.38813  0.28398  1.0000
  O   O4        1.0  0.01996  0.61187  0.71602  1.0000
  O   O5        1.0  0.96879  0.96015  0.28059  1.0000
  O   O6        1.0  0.03121  0.03985  0.71941  1.0000
  O   O7        1.0  0.21714  0.84815  0.94740  1.0000
  O   O8        1.0  0.78286  0.15185  0.05260  1.0000
  O   O9        1.0  0.15779  0.20835  0.33704  1.0000
  O   O10       1.0  0.84221  0.79165  0.66296  1.0000
  O   O11       1.0  0.49006  0.25203  0.46206  1.0000
  O   O12       1.0  0.50994  0.74797  0.53794  1.0000
  O   O13       1.0  0.75152  0.36079  0.65040  1.0000
  O   O14       1.0  0.24848  0.63921  0.34959  1.0000
  O   O15       1.0  0.79956  0.25978  0.79895  1.0000
  O   O16       1.0  0.20043  0.74022  0.20105  1.0000
  O   O17       1.0  0.23143  0.83436  0.65329  1.0000
  O   O18       1.0  0.76857  0.16564  0.34671  1.0000
  O   O19       1.0  0.30575  0.61783  0.70537  1.0000
  O   O20       1.0  0.69425  0.38217  0.29463  1.0000
  O   O21       1.0  0.12450  0.36457  0.57620  1.0000
  O   O22       1.0  0.87550  0.63543  0.42380  1.0000
  O   O23       1.0  0.37509  0.48629  0.54361  1.0000
  O   O24       1.0  0.62491  0.51371  0.45639  1.0000
  O   O25       1.0  0.65266  0.62950  0.79331  1.0000
  O   O26       1.0  0.34734  0.37050  0.20669  1.0000
  O   O27       1.0  0.90845  0.54618  0.09986  1.0000
  O   O28       1.0  0.09155  0.45382  0.90014  1.0000
  O   O29       1.0  0.90680  0.69108  0.98508  1.0000
  O   O30       1.0  0.09319  0.30891  0.01492  1.0000
  O   O31       1.0  0.33270  0.15658  0.90515  1.0000
  O   O32       1.0  0.66730  0.84342  0.09485  1.0000
