data_image0
_chemical_formula_structural       Li4H20C14S2O20
_chemical_formula_sum              "Li4 H20 C14 S2 O20"
_cell_length_a       7.35385
_cell_length_b       7.97004
_cell_length_c       11.6746
_cell_angle_alpha    103.927
_cell_angle_beta     94.1281
_cell_angle_gamma    116.643

_space_group_name_H-M_alt    "P 1"
_space_group_IT_number       1

loop_
  _space_group_symop_operation_xyz
  'x, y, z'

loop_
  _atom_site_type_symbol
  _atom_site_label
  _atom_site_symmetry_multiplicity
  _atom_site_fract_x
  _atom_site_fract_y
  _atom_site_fract_z
  _atom_site_occupancy
  Li  Li1       1.0  0.05593  0.42883  0.84379  1.0000
  Li  Li2       1.0  0.94408  0.57117  0.15621  1.0000
  Li  Li3       1.0  0.04268  0.95963  0.20500  1.0000
  Li  Li4       1.0  0.95732  0.04037  0.79500  1.0000
  H   H1        1.0  0.36857  0.57227  0.01834  1.0000
  H   H2        1.0  0.63143  0.42774  0.98166  1.0000
  H   H3        1.0  0.42111  0.51651  0.89109  1.0000
  H   H4        1.0  0.57890  0.48349  0.10891  1.0000
  H   H5        1.0  0.71513  0.17714  0.88577  1.0000
  H   H6        1.0  0.28487  0.82286  0.11422  1.0000
  H   H7        1.0  0.90162  0.25415  0.99572  1.0000
  H   H8        1.0  0.09838  0.74584  0.00428  1.0000
  H   H9        1.0  0.76568  0.87153  0.00650  1.0000
  H   H10       1.0  0.23433  0.12847  0.99350  1.0000
  H   H11       1.0  0.78666  0.02538  0.12654  1.0000
  H   H12       1.0  0.21335  0.97463  0.87346  1.0000
  H   H13       1.0  0.87413  0.07290  0.39082  1.0000
  H   H14       1.0  0.12586  0.92709  0.60918  1.0000
  H   H15       1.0  0.65764  0.94903  0.58330  1.0000
  H   H16       1.0  0.34236  0.05097  0.41671  1.0000
  H   H17       1.0  0.29562  0.59482  0.70319  1.0000
  H   H18       1.0  0.70437  0.40518  0.29681  1.0000
  H   H19       1.0  0.49651  0.75032  0.38867  1.0000
  H   H20       1.0  0.50349  0.24967  0.61133  1.0000
  C   C1        1.0  0.24419  0.45799  0.35705  1.0000
  C   C2        1.0  0.75580  0.54200  0.64294  1.0000
  C   C3        1.0  0.10678  0.31789  0.40603  1.0000
  C   C4        1.0  0.89322  0.68210  0.59396  1.0000
  C   C5        1.0  0.12658  0.36831  0.53271  1.0000
  C   C6        1.0  0.87341  0.63168  0.46729  1.0000
  C   C7        1.0  0.27906  0.55582  0.60559  1.0000
  C   C8        1.0  0.72093  0.44417  0.39441  1.0000
  C   C9        1.0  0.41256  0.69571  0.55588  1.0000
  C   C10       1.0  0.58743  0.30429  0.44412  1.0000
  C   C11       1.0  0.39451  0.64494  0.43011  1.0000
  C   C12       1.0  0.60549  0.35506  0.56990  1.0000
  C   C13       1.0  0.98559  0.21890  0.58570  1.0000
  C   C14       1.0  0.01440  0.78110  0.41430  1.0000
  S   S1        1.0  0.22268  0.39321  0.19933  1.0000
  S   S2        1.0  0.77732  0.60679  0.80067  1.0000
  O   O1        1.0  0.01443  0.36244  0.14731  1.0000
  O   O2        1.0  0.98557  0.63756  0.85269  1.0000
  O   O3        1.0  0.33149  0.56068  0.93306  1.0000
  O   O4        1.0  0.66851  0.43933  0.06693  1.0000
  O   O5        1.0  0.39269  0.55907  0.17304  1.0000
  O   O6        1.0  0.60732  0.44095  0.82696  1.0000
  O   O7        1.0  0.86251  0.21773  0.90660  1.0000
  O   O8        1.0  0.13749  0.78227  0.09339  1.0000
  O   O9        1.0  0.23451  0.20929  0.15993  1.0000
  O   O10       1.0  0.76551  0.79071  0.84007  1.0000
  O   O11       1.0  0.77925  0.89709  0.09432  1.0000
  O   O12       1.0  0.22077  0.10292  0.90568  1.0000
  O   O13       1.0  0.96108  0.13795  0.33227  1.0000
  O   O14       1.0  0.03891  0.86205  0.66773  1.0000
  O   O15       1.0  0.83060  0.06204  0.51201  1.0000
  O   O16       1.0  0.16939  0.93795  0.48798  1.0000
  O   O17       1.0  0.01909  0.24568  0.69835  1.0000
  O   O18       1.0  0.98090  0.75432  0.30165  1.0000
  O   O19       1.0  0.55604  0.87616  0.63044  1.0000
  O   O20       1.0  0.44396  0.12383  0.36956  1.0000
