data_image0
_chemical_formula_structural       Li2H14C14S2O16
_chemical_formula_sum              "Li2 H14 C14 S2 O16"
_cell_length_a       6.51806
_cell_length_b       6.58936
_cell_length_c       12.2211
_cell_angle_alpha    84.4058
_cell_angle_beta     71.5473
_cell_angle_gamma    74.3192

_space_group_name_H-M_alt    "P 1"
_space_group_IT_number       1

loop_
  _space_group_symop_operation_xyz
  'x, y, z'

loop_
  _atom_site_type_symbol
  _atom_site_label
  _atom_site_symmetry_multiplicity
  _atom_site_fract_x
  _atom_site_fract_y
  _atom_site_fract_z
  _atom_site_occupancy
  Li  Li1       1.0  0.78640  0.46366  0.01028  1.0000
  Li  Li2       1.0  0.21360  0.53632  0.98972  1.0000
  H   H1        1.0  0.89937  0.78116  0.90476  1.0000
  H   H2        1.0  0.10062  0.21885  0.09523  1.0000
  H   H3        1.0  0.03806  0.59031  0.82277  1.0000
  H   H4        1.0  0.96194  0.40969  0.17721  1.0000
  H   H5        1.0  0.48268  0.18165  0.15076  1.0000
  H   H6        1.0  0.51733  0.81835  0.84925  1.0000
  H   H7        1.0  0.23275  0.28847  0.62702  1.0000
  H   H8        1.0  0.76725  0.71152  0.37298  1.0000
  H   H9        1.0  0.95782  0.88628  0.69172  1.0000
  H   H10       1.0  0.04217  0.11371  0.30829  1.0000
  H   H11       1.0  0.48031  0.08991  0.34269  1.0000
  H   H12       1.0  0.51970  0.91008  0.65730  1.0000
  H   H13       1.0  0.20159  0.86419  0.40337  1.0000
  H   H14       1.0  0.79840  0.13582  0.59663  1.0000
  C   C1        1.0  0.34867  0.61837  0.27687  1.0000
  C   C2        1.0  0.65132  0.38164  0.72312  1.0000
  C   C3        1.0  0.42443  0.39698  0.26041  1.0000
  C   C4        1.0  0.57558  0.60303  0.73959  1.0000
  C   C5        1.0  0.41729  0.25939  0.35461  1.0000
  C   C6        1.0  0.58272  0.74063  0.64539  1.0000
  C   C7        1.0  0.32431  0.33737  0.46686  1.0000
  C   C8        1.0  0.67569  0.66263  0.53314  1.0000
  C   C9        1.0  0.24482  0.55917  0.48422  1.0000
  C   C10       1.0  0.75519  0.44082  0.51578  1.0000
  C   C11       1.0  0.26226  0.69585  0.38795  1.0000
  C   C12       1.0  0.73772  0.30416  0.61206  1.0000
  C   C13       1.0  0.13811  0.63753  0.60119  1.0000
  C   C14       1.0  0.86188  0.36247  0.39881  1.0000
  S   S1        1.0  0.35385  0.78625  0.15388  1.0000
  S   S2        1.0  0.64615  0.21375  0.84613  1.0000
  O   O1        1.0  0.58720  0.74080  0.08060  1.0000
  O   O2        1.0  0.41280  0.25918  0.91940  1.0000
  O   O3        1.0  0.99265  0.63724  0.90408  1.0000
  O   O4        1.0  0.00736  0.36277  0.09592  1.0000
  O   O5        1.0  0.19933  0.74333  0.09973  1.0000
  O   O6        1.0  0.80065  0.25668  0.90027  1.0000
  O   O7        1.0  0.27682  0.00658  0.19723  1.0000
  O   O8        1.0  0.72317  0.99343  0.80278  1.0000
  O   O9        1.0  0.50299  0.32530  0.15058  1.0000
  O   O10       1.0  0.49703  0.67470  0.84942  1.0000
  O   O11       1.0  0.31032  0.19991  0.55552  1.0000
  O   O12       1.0  0.68969  0.80009  0.44447  1.0000
  O   O13       1.0  0.11757  0.51393  0.68719  1.0000
  O   O14       1.0  0.88245  0.48606  0.31281  1.0000
  O   O15       1.0  0.06007  0.84458  0.61204  1.0000
  O   O16       1.0  0.93992  0.15542  0.38798  1.0000
