data_image0
_chemical_formula_structural       Li6H26C14S2O24
_chemical_formula_sum              "Li6 H26 C14 S2 O24"
_cell_length_a       6.52485
_cell_length_b       8.8145
_cell_length_c       11.7266
_cell_angle_alpha    96.7338
_cell_angle_beta     96.9621
_cell_angle_gamma    105.055

_space_group_name_H-M_alt    "P 1"
_space_group_IT_number       1

loop_
  _space_group_symop_operation_xyz
  'x, y, z'

loop_
  _atom_site_type_symbol
  _atom_site_label
  _atom_site_symmetry_multiplicity
  _atom_site_fract_x
  _atom_site_fract_y
  _atom_site_fract_z
  _atom_site_occupancy
  Li  Li1       1.0  0.30684  0.87720  0.01368  1.0000
  Li  Li2       1.0  0.69316  0.12280  0.98632  1.0000
  Li  Li3       1.0  0.12998  0.69644  0.78569  1.0000
  Li  Li4       1.0  0.87002  0.30356  0.21431  1.0000
  Li  Li5       1.0  0.48334  0.41018  0.60167  1.0000
  Li  Li6       1.0  0.51666  0.58983  0.39834  1.0000
  H   H1        1.0  0.30309  0.15127  0.92806  1.0000
  H   H2        1.0  0.69691  0.84873  0.07195  1.0000
  H   H3        1.0  0.33025  0.02258  0.83394  1.0000
  H   H4        1.0  0.66975  0.97742  0.16606  1.0000
  H   H5        1.0  0.91784  0.73059  0.95334  1.0000
  H   H6        1.0  0.08216  0.26941  0.04666  1.0000
  H   H7        1.0  0.91570  0.87290  0.88323  1.0000
  H   H8        1.0  0.08430  0.12710  0.11677  1.0000
  H   H9        1.0  0.55368  0.83033  0.84918  1.0000
  H   H10       1.0  0.44632  0.16967  0.15082  1.0000
  H   H11       1.0  0.47226  0.64222  0.84046  1.0000
  H   H12       1.0  0.52774  0.35778  0.15955  1.0000
  H   H13       1.0  0.22223  0.58317  0.54024  1.0000
  H   H14       1.0  0.77777  0.41683  0.45976  1.0000
  H   H15       1.0  0.14953  0.41735  0.45700  1.0000
  H   H16       1.0  0.85047  0.58266  0.54301  1.0000
  H   H17       1.0  0.32812  0.11966  0.63267  1.0000
  H   H18       1.0  0.67188  0.88034  0.36733  1.0000
  H   H19       1.0  0.61730  0.41400  0.82440  1.0000
  H   H20       1.0  0.38271  0.58599  0.17560  1.0000
  H   H21       1.0  0.37265  0.39199  0.81275  1.0000
  H   H22       1.0  0.62736  0.60800  0.18725  1.0000
  H   H23       1.0  0.37897  0.22222  0.34510  1.0000
  H   H24       1.0  0.62102  0.77778  0.65489  1.0000
  H   H25       1.0  0.03626  0.66896  0.39937  1.0000
  H   H26       1.0  0.96375  0.33103  0.60063  1.0000
  C   C1        1.0  0.12828  0.82438  0.27764  1.0000
  C   C2        1.0  0.87172  0.17562  0.72236  1.0000
  C   C3        1.0  0.22545  0.98222  0.25777  1.0000
  C   C4        1.0  0.77455  0.01777  0.74223  1.0000
  C   C5        1.0  0.30258  0.10096  0.35733  1.0000
  C   C6        1.0  0.69742  0.89903  0.64267  1.0000
  C   C7        1.0  0.28601  0.06537  0.46872  1.0000
  C   C8        1.0  0.71399  0.93462  0.53127  1.0000
  C   C9        1.0  0.19014  0.90695  0.48642  1.0000
  C   C10       1.0  0.80986  0.09305  0.51358  1.0000
  C   C11       1.0  0.11185  0.79044  0.38872  1.0000
  C   C12       1.0  0.88815  0.20956  0.61128  1.0000
  C   C13       1.0  0.17869  0.86549  0.60299  1.0000
  C   C14       1.0  0.82131  0.13451  0.39701  1.0000
  S   S1        1.0  0.02986  0.66516  0.16290  1.0000
  S   S2        1.0  0.97014  0.33483  0.83709  1.0000
  O   O1        1.0  0.83200  0.68438  0.09534  1.0000
  O   O2        1.0  0.16800  0.31562  0.90466  1.0000
  O   O3        1.0  0.37503  0.06696  0.91782  1.0000
  O   O4        1.0  0.62497  0.93304  0.08218  1.0000
  O   O5        1.0  0.98131  0.52391  0.21996  1.0000
  O   O6        1.0  0.01869  0.47609  0.78004  1.0000
  O   O7        1.0  0.99631  0.79349  0.90035  1.0000
  O   O8        1.0  0.00369  0.20651  0.09965  1.0000
  O   O9        1.0  0.42740  0.74000  0.85647  1.0000
  O   O10       1.0  0.57260  0.26000  0.14353  1.0000
  O   O11       1.0  0.20015  0.66713  0.09043  1.0000
  O   O12       1.0  0.79986  0.33287  0.90957  1.0000
  O   O13       1.0  0.24108  0.01448  0.15227  1.0000
  O   O14       1.0  0.75891  0.98552  0.84773  1.0000
  O   O15       1.0  0.27955  0.50127  0.49870  1.0000
  O   O16       1.0  0.72045  0.49873  0.50131  1.0000
  O   O17       1.0  0.36147  0.18129  0.56282  1.0000
  O   O18       1.0  0.63853  0.81871  0.43717  1.0000
  O   O19       1.0  0.49861  0.44079  0.77673  1.0000
  O   O20       1.0  0.50139  0.55921  0.22327  1.0000
  O   O21       1.0  0.24738  0.97912  0.68945  1.0000
  O   O22       1.0  0.75262  0.02088  0.31055  1.0000
  O   O23       1.0  0.10539  0.71906  0.61749  1.0000
  O   O24       1.0  0.89461  0.28095  0.38251  1.0000
