data_image0
_chemical_formula_structural       Sr4H56C48O20
_chemical_formula_sum              "Sr4 H56 C48 O20"
_cell_length_a       7.17677
_cell_length_b       11.7313
_cell_length_c       14.6012
_cell_angle_alpha    90
_cell_angle_beta     89.9999
_cell_angle_gamma    90

_space_group_name_H-M_alt    "P 1"
_space_group_IT_number       1

loop_
  _space_group_symop_operation_xyz
  'x, y, z'

loop_
  _atom_site_type_symbol
  _atom_site_label
  _atom_site_symmetry_multiplicity
  _atom_site_fract_x
  _atom_site_fract_y
  _atom_site_fract_z
  _atom_site_occupancy
  Sr  Sr1       1.0  0.06169  0.06023  0.01436  1.0000
  Sr  Sr2       1.0  0.56169  0.93977  0.98564  1.0000
  Sr  Sr3       1.0  0.56168  0.43977  0.01436  1.0000
  Sr  Sr4       1.0  0.06168  0.56023  0.98564  1.0000
  H   H1        1.0  0.49201  0.54891  0.38896  1.0000
  H   H2        1.0  0.99201  0.45109  0.61104  1.0000
  H   H3        1.0  0.99201  0.95109  0.38896  1.0000
  H   H4        1.0  0.49201  0.04891  0.61104  1.0000
  H   H5        1.0  0.54350  0.53166  0.55448  1.0000
  H   H6        1.0  0.04350  0.46834  0.44552  1.0000
  H   H7        1.0  0.04350  0.96834  0.55448  1.0000
  H   H8        1.0  0.54350  0.03166  0.44552  1.0000
  H   H9        1.0  0.30035  0.19599  0.54903  1.0000
  H   H10       1.0  0.80035  0.80402  0.45097  1.0000
  H   H11       1.0  0.80035  0.30401  0.54903  1.0000
  H   H12       1.0  0.30035  0.69599  0.45097  1.0000
  H   H13       1.0  0.24498  0.21395  0.38470  1.0000
  H   H14       1.0  0.74498  0.78605  0.61530  1.0000
  H   H15       1.0  0.74498  0.28605  0.38470  1.0000
  H   H16       1.0  0.24498  0.71395  0.61530  1.0000
  H   H17       1.0  0.47639  0.39771  0.23682  1.0000
  H   H18       1.0  0.97639  0.60230  0.76318  1.0000
  H   H19       1.0  0.97639  0.10230  0.23682  1.0000
  H   H20       1.0  0.47639  0.89771  0.76318  1.0000
  H   H21       1.0  0.27929  0.48169  0.25692  1.0000
  H   H22       1.0  0.77929  0.51831  0.74308  1.0000
  H   H23       1.0  0.77929  0.01831  0.25692  1.0000
  H   H24       1.0  0.27929  0.98169  0.74308  1.0000
  H   H25       1.0  0.28087  0.22124  0.23075  1.0000
  H   H26       1.0  0.78087  0.77876  0.76926  1.0000
  H   H27       1.0  0.78087  0.27876  0.23075  1.0000
  H   H28       1.0  0.28087  0.72124  0.76925  1.0000
  H   H29       1.0  0.08383  0.29913  0.26379  1.0000
  H   H30       1.0  0.58383  0.70087  0.73621  1.0000
  H   H31       1.0  0.58383  0.20087  0.26379  1.0000
  H   H32       1.0  0.08383  0.79913  0.73621  1.0000
  H   H33       1.0  0.60780  0.37218  0.68114  1.0000
  H   H34       1.0  0.10780  0.62782  0.31886  1.0000
  H   H35       1.0  0.10780  0.12783  0.68114  1.0000
  H   H36       1.0  0.60780  0.87218  0.31886  1.0000
  H   H37       1.0  0.44787  0.25854  0.68584  1.0000
  H   H38       1.0  0.94787  0.74146  0.31416  1.0000
  H   H39       1.0  0.94787  0.24146  0.68584  1.0000
  H   H40       1.0  0.44787  0.75854  0.31416  1.0000
  H   H41       1.0  0.33552  0.51060  0.70474  1.0000
  H   H42       1.0  0.83552  0.48940  0.29527  1.0000
  H   H43       1.0  0.83552  0.98940  0.70474  1.0000
  H   H44       1.0  0.33552  0.01060  0.29526  1.0000
  H   H45       1.0  0.18798  0.39243  0.71809  1.0000
  H   H46       1.0  0.68798  0.60757  0.28191  1.0000
  H   H47       1.0  0.68798  0.10757  0.71809  1.0000
  H   H48       1.0  0.18798  0.89243  0.28191  1.0000
  H   H49       1.0  0.95666  0.81899  0.99524  1.0000
  H   H50       1.0  0.45665  0.18101  0.00476  1.0000
  H   H51       1.0  0.45666  0.68101  0.99524  1.0000
  H   H52       1.0  0.95666  0.31899  0.00476  1.0000
  H   H53       1.0  0.89818  0.80951  0.09733  1.0000
  H   H54       1.0  0.39818  0.19049  0.90267  1.0000
  H   H55       1.0  0.39818  0.69048  0.09733  1.0000
  H   H56       1.0  0.89818  0.30951  0.90267  1.0000
  C   C1        1.0  0.36600  0.38284  0.37302  1.0000
  C   C2        1.0  0.86600  0.61716  0.62698  1.0000
  C   C3        1.0  0.86600  0.11716  0.37302  1.0000
  C   C4        1.0  0.36600  0.88284  0.62698  1.0000
  C   C5        1.0  0.44880  0.47100  0.42387  1.0000
  C   C6        1.0  0.94880  0.52900  0.57613  1.0000
  C   C7        1.0  0.94880  0.02900  0.42387  1.0000
  C   C8        1.0  0.44880  0.97100  0.57613  1.0000
  C   C9        1.0  0.47732  0.46137  0.51783  1.0000
  C   C10       1.0  0.97732  0.53863  0.48217  1.0000
  C   C11       1.0  0.97732  0.03863  0.51783  1.0000
  C   C12       1.0  0.47732  0.96137  0.48217  1.0000
  C   C13       1.0  0.42563  0.36184  0.56489  1.0000
  C   C14       1.0  0.92563  0.63816  0.43511  1.0000
  C   C15       1.0  0.92563  0.13817  0.56489  1.0000
  C   C16       1.0  0.42563  0.86184  0.43511  1.0000
  C   C17       1.0  0.34206  0.27440  0.51461  1.0000
  C   C18       1.0  0.84206  0.72560  0.48540  1.0000
  C   C19       1.0  0.84206  0.22560  0.51460  1.0000
  C   C20       1.0  0.34206  0.77440  0.48539  1.0000
  C   C21       1.0  0.31213  0.28445  0.42040  1.0000
  C   C22       1.0  0.81213  0.71555  0.57960  1.0000
  C   C23       1.0  0.81212  0.21555  0.42040  1.0000
  C   C24       1.0  0.31213  0.78445  0.57960  1.0000
  C   C25       1.0  0.33924  0.39704  0.27091  1.0000
  C   C26       1.0  0.83924  0.60296  0.72909  1.0000
  C   C27       1.0  0.83924  0.10296  0.27091  1.0000
  C   C28       1.0  0.33924  0.89704  0.72909  1.0000
  C   C29       1.0  0.21709  0.30651  0.22689  1.0000
  C   C30       1.0  0.71710  0.69349  0.77311  1.0000
  C   C31       1.0  0.71709  0.19349  0.22689  1.0000
  C   C32       1.0  0.21710  0.80651  0.77311  1.0000
  C   C33       1.0  0.17053  0.32626  0.12710  1.0000
  C   C34       1.0  0.67053  0.67373  0.87290  1.0000
  C   C35       1.0  0.67053  0.17373  0.12710  1.0000
  C   C36       1.0  0.17053  0.82627  0.87290  1.0000
  C   C37       1.0  0.46237  0.34853  0.66610  1.0000
  C   C38       1.0  0.96236  0.65147  0.33390  1.0000
  C   C39       1.0  0.96236  0.15147  0.66610  1.0000
  C   C40       1.0  0.46236  0.84853  0.33390  1.0000
  C   C41       1.0  0.33353  0.42075  0.72625  1.0000
  C   C42       1.0  0.83352  0.57925  0.27375  1.0000
  C   C43       1.0  0.83352  0.07926  0.72625  1.0000
  C   C44       1.0  0.33352  0.92074  0.27375  1.0000
  C   C45       1.0  0.37697  0.41583  0.82806  1.0000
  C   C46       1.0  0.87697  0.58417  0.17194  1.0000
  C   C47       1.0  0.87696  0.08417  0.82806  1.0000
  C   C48       1.0  0.37696  0.91583  0.17194  1.0000
  O   O1        1.0  0.06349  0.25328  0.08898  1.0000
  O   O2        1.0  0.56348  0.74672  0.91102  1.0000
  O   O3        1.0  0.56349  0.24672  0.08898  1.0000
  O   O4        1.0  0.06349  0.75328  0.91102  1.0000
  O   O5        1.0  0.23422  0.41341  0.08587  1.0000
  O   O6        1.0  0.73422  0.58659  0.91413  1.0000
  O   O7        1.0  0.73422  0.08659  0.08587  1.0000
  O   O8        1.0  0.23422  0.91341  0.91413  1.0000
  O   O9        1.0  0.31123  0.49563  0.87872  1.0000
  O   O10       1.0  0.81123  0.50438  0.12128  1.0000
  O   O11       1.0  0.81123  0.00437  0.87872  1.0000
  O   O12       1.0  0.31123  0.99563  0.12128  1.0000
  O   O13       1.0  0.47706  0.33565  0.85990  1.0000
  O   O14       1.0  0.97706  0.66435  0.14010  1.0000
  O   O15       1.0  0.97706  0.16436  0.85990  1.0000
  O   O16       1.0  0.47706  0.83565  0.14010  1.0000
  O   O17       1.0  0.89091  0.86268  0.04522  1.0000
  O   O18       1.0  0.39091  0.13732  0.95478  1.0000
  O   O19       1.0  0.39091  0.63732  0.04522  1.0000
  O   O20       1.0  0.89091  0.36268  0.95478  1.0000
