data_image0
_chemical_formula_structural       Co4H20C24S4O22
_chemical_formula_sum              "Co4 H20 C24 S4 O22"
_cell_length_a       7.4829
_cell_length_b       10.5544
_cell_length_c       10.6112
_cell_angle_alpha    101.963
_cell_angle_beta     89.9771
_cell_angle_gamma    110.779

_space_group_name_H-M_alt    "P 1"
_space_group_IT_number       1

loop_
  _space_group_symop_operation_xyz
  'x, y, z'

loop_
  _atom_site_type_symbol
  _atom_site_label
  _atom_site_symmetry_multiplicity
  _atom_site_fract_x
  _atom_site_fract_y
  _atom_site_fract_z
  _atom_site_occupancy
  Co  Co1       1.0  0.66757  0.98546  0.41613  1.0000
  Co  Co2       1.0  0.68236  0.01449  0.08372  1.0000
  Co  Co3       1.0  0.33210  0.01444  0.58387  1.0000
  Co  Co4       1.0  0.31775  0.98531  0.91627  1.0000
  H   H1        1.0  0.87259  0.64246  0.96930  1.0000
  H   H2        1.0  0.22973  0.35786  0.53092  1.0000
  H   H3        1.0  0.12769  0.35791  0.03081  1.0000
  H   H4        1.0  0.76984  0.64234  0.46929  1.0000
  H   H5        1.0  0.76603  0.36725  0.93339  1.0000
  H   H6        1.0  0.39795  0.63314  0.56680  1.0000
  H   H7        1.0  0.23446  0.63310  0.06637  1.0000
  H   H8        1.0  0.60170  0.36704  0.43310  1.0000
  H   H9        1.0  0.90727  0.93263  0.58307  1.0000
  H   H10       1.0  0.97489  0.06715  0.91694  1.0000
  H   H11       1.0  0.09212  0.06712  0.41707  1.0000
  H   H12       1.0  0.02537  0.93275  0.08323  1.0000
  H   H13       1.0  0.84198  0.06058  0.64517  1.0000
  H   H14       1.0  0.78147  0.93936  0.85466  1.0000
  H   H15       1.0  0.15785  0.93940  0.35484  1.0000
  H   H16       1.0  0.21863  0.06076  0.14533  1.0000
  H   H17       1.0  0.47759  0.08311  0.25872  1.0000
  H   H18       1.0  0.39429  0.91702  0.24115  1.0000
  H   H19       1.0  0.52265  0.91689  0.74095  1.0000
  H   H20       1.0  0.60539  0.08295  0.75869  1.0000
  C   C1        1.0  0.52802  0.24085  0.12276  1.0000
  C   C2        1.0  0.28655  0.75917  0.37728  1.0000
  C   C3        1.0  0.47269  0.75914  0.87706  1.0000
  C   C4        1.0  0.71303  0.24076  0.62256  1.0000
  C   C5        1.0  0.72893  0.43465  0.01297  1.0000
  C   C6        1.0  0.29369  0.56556  0.48716  1.0000
  C   C7        1.0  0.27148  0.56553  0.98689  1.0000
  C   C8        1.0  0.70598  0.43450  0.51278  1.0000
  C   C9        1.0  0.73736  0.78336  0.19133  1.0000
  C   C10       1.0  0.95422  0.21658  0.30857  1.0000
  C   C11       1.0  0.26288  0.21661  0.80889  1.0000
  C   C12       1.0  0.04552  0.78335  0.69164  1.0000
  C   C13       1.0  0.71745  0.63751  0.14287  1.0000
  C   C14       1.0  0.08015  0.36248  0.35703  1.0000
  C   C15       1.0  0.28281  0.36249  0.85722  1.0000
  C   C16       1.0  0.91954  0.63749  0.64305  1.0000
  C   C17       1.0  0.78560  0.57997  0.03228  1.0000
  C   C18       1.0  0.20538  0.42023  0.46783  1.0000
  C   C19       1.0  0.21475  0.42025  0.96776  1.0000
  C   C20       1.0  0.79426  0.57986  0.53227  1.0000
  C   C21       1.0  0.61689  0.38394  0.10902  1.0000
  C   C22       1.0  0.23245  0.61610  0.39098  1.0000
  C   C23       1.0  0.38359  0.61606  0.89080  1.0000
  C   C24       1.0  0.76725  0.38382  0.60883  1.0000
  S   S1        1.0  0.58467  0.51402  0.22292  1.0000
  S   S2        1.0  0.07073  0.48584  0.27693  1.0000
  S   S3        1.0  0.41567  0.48580  0.77704  1.0000
  S   S4        1.0  0.92902  0.51400  0.72296  1.0000
  O   O1        1.0  0.69713  0.81655  0.30716  1.0000
  O   O2        1.0  0.88107  0.18342  0.19269  1.0000
  O   O3        1.0  0.30299  0.18339  0.69303  1.0000
  O   O4        1.0  0.11877  0.81640  0.80749  1.0000
  O   O5        1.0  0.55017  0.14451  0.03123  1.0000
  O   O6        1.0  0.40508  0.85548  0.46879  1.0000
  O   O7        1.0  0.45033  0.85546  0.96852  1.0000
  O   O8        1.0  0.59449  0.14444  0.53105  1.0000
  O   O9        1.0  0.80412  0.97111  0.58186  1.0000
  O   O10       1.0  0.83320  0.02885  0.91795  1.0000
  O   O11       1.0  0.19545  0.02881  0.41824  1.0000
  O   O12       1.0  0.16707  0.97120  0.08216  1.0000
  O   O13       1.0  0.78975  0.86535  0.11259  1.0000
  O   O14       1.0  0.92434  0.13463  0.38733  1.0000
  O   O15       1.0  0.21058  0.13469  0.88768  1.0000
  O   O16       1.0  0.07532  0.86542  0.61299  1.0000
  O   O17       1.0  0.43602  0.21554  0.22086  1.0000
  O   O18       1.0  0.21984  0.78458  0.27931  1.0000
  O   O19       1.0  0.56500  0.78450  0.77911  1.0000
  O   O20       1.0  0.77960  0.21541  0.72062  1.0000
  O   O21       1.0  0.51785  0.99999  0.24995  1.0000
  O   O22       1.0  0.48200  0.99981  0.74992  1.0000
