data_image0
_chemical_formula_structural       Zn4H40C24N16O20
_chemical_formula_sum              "Zn4 H40 C24 N16 O20"
_cell_length_a       6.49333
_cell_length_b       7.747
_cell_length_c       21.3806
_cell_angle_alpha    90.0005
_cell_angle_beta     89.9999
_cell_angle_gamma    113.758

_space_group_name_H-M_alt    "P 1"
_space_group_IT_number       1

loop_
  _space_group_symop_operation_xyz
  'x, y, z'

loop_
  _atom_site_type_symbol
  _atom_site_label
  _atom_site_symmetry_multiplicity
  _atom_site_fract_x
  _atom_site_fract_y
  _atom_site_fract_z
  _atom_site_occupancy
  Zn  Zn1       1.0  0.26543  0.34280  0.90260  1.0000
  Zn  Zn2       1.0  0.23457  0.15719  0.40260  1.0000
  Zn  Zn3       1.0  0.73457  0.65720  0.09740  1.0000
  Zn  Zn4       1.0  0.76543  0.84281  0.59740  1.0000
  H   H1        1.0  0.09385  0.59247  0.68421  1.0000
  H   H2        1.0  0.40616  0.90751  0.18421  1.0000
  H   H3        1.0  0.90615  0.40753  0.31579  1.0000
  H   H4        1.0  0.59385  0.09249  0.81579  1.0000
  H   H5        1.0  0.18763  0.36699  0.75331  1.0000
  H   H6        1.0  0.31237  0.13299  0.25330  1.0000
  H   H7        1.0  0.81237  0.63301  0.24669  1.0000
  H   H8        1.0  0.68763  0.86700  0.74670  1.0000
  H   H9        1.0  0.67402  0.59398  0.87298  1.0000
  H   H10       1.0  0.82597  0.90601  0.37298  1.0000
  H   H11       1.0  0.32598  0.40602  0.12702  1.0000
  H   H12       1.0  0.17402  0.09399  0.62702  1.0000
  H   H13       1.0  0.58974  0.41512  0.82254  1.0000
  H   H14       1.0  0.91026  0.08487  0.32254  1.0000
  H   H15       1.0  0.41026  0.58487  0.17746  1.0000
  H   H16       1.0  0.08974  0.91513  0.67746  1.0000
  H   H17       1.0  0.69443  0.38973  0.89066  1.0000
  H   H18       1.0  0.80557  0.11027  0.39066  1.0000
  H   H19       1.0  0.30556  0.61027  0.10934  1.0000
  H   H20       1.0  0.19443  0.88973  0.60934  1.0000
  H   H21       1.0  0.26627  0.07590  0.97526  1.0000
  H   H22       1.0  0.23373  0.42410  0.47526  1.0000
  H   H23       1.0  0.73373  0.92410  0.02474  1.0000
  H   H24       1.0  0.76627  0.57590  0.52474  1.0000
  H   H25       1.0  0.17171  0.20948  0.01655  1.0000
  H   H26       1.0  0.32828  0.29053  0.51655  1.0000
  H   H27       1.0  0.82828  0.79052  0.98345  1.0000
  H   H28       1.0  0.67172  0.70948  0.48345  1.0000
  H   H29       1.0  0.44637  0.28145  0.00402  1.0000
  H   H30       1.0  0.05362  0.21855  0.50402  1.0000
  H   H31       1.0  0.55362  0.71855  0.99598  1.0000
  H   H32       1.0  0.94638  0.78145  0.49598  1.0000
  H   H33       1.0  0.83140  0.09663  0.89941  1.0000
  H   H34       1.0  0.66860  0.40337  0.39941  1.0000
  H   H35       1.0  0.16860  0.90337  0.10059  1.0000
  H   H36       1.0  0.33140  0.59663  0.60059  1.0000
  H   H37       1.0  0.84633  0.21151  0.96261  1.0000
  H   H38       1.0  0.65367  0.28849  0.46261  1.0000
  H   H39       1.0  0.15367  0.78849  0.03739  1.0000
  H   H40       1.0  0.34633  0.71151  0.53739  1.0000
  C   C1        1.0  0.15197  0.66067  0.85941  1.0000
  C   C2        1.0  0.34804  0.83932  0.35941  1.0000
  C   C3        1.0  0.84804  0.33934  0.14059  1.0000
  C   C4        1.0  0.65196  0.16068  0.64059  1.0000
  C   C5        1.0  0.08933  0.77976  0.82135  1.0000
  C   C6        1.0  0.41066  0.72023  0.32135  1.0000
  C   C7        1.0  0.91067  0.22024  0.17865  1.0000
  C   C8        1.0  0.58934  0.27977  0.67865  1.0000
  C   C9        1.0  0.10859  0.61083  0.73479  1.0000
  C   C10       1.0  0.39142  0.88916  0.23479  1.0000
  C   C11       1.0  0.89141  0.38916  0.26521  1.0000
  C   C12       1.0  0.60859  0.11084  0.76521  1.0000
  C   C13       1.0  0.16136  0.48706  0.77243  1.0000
  C   C14       1.0  0.33863  0.01292  0.27243  1.0000
  C   C15       1.0  0.83863  0.51294  0.22757  1.0000
  C   C16       1.0  0.66137  0.98708  0.72757  1.0000
  C   C17       1.0  0.19164  0.68751  0.92920  1.0000
  C   C18       1.0  0.30837  0.81249  0.42920  1.0000
  C   C19       1.0  0.80837  0.31249  0.07080  1.0000
  C   C20       1.0  0.69164  0.18751  0.57080  1.0000
  C   C21       1.0  0.03279  0.93828  0.84685  1.0000
  C   C22       1.0  0.46720  0.56170  0.34685  1.0000
  C   C23       1.0  0.96721  0.06172  0.15315  1.0000
  C   C24       1.0  0.53280  0.43829  0.65315  1.0000
  N   N1        1.0  0.18413  0.51487  0.83415  1.0000
  N   N2        1.0  0.31585  0.98512  0.33415  1.0000
  N   N3        1.0  0.81587  0.48513  0.16585  1.0000
  N   N4        1.0  0.68415  0.01489  0.66585  1.0000
  N   N5        1.0  0.07237  0.75564  0.75894  1.0000
  N   N6        1.0  0.42762  0.74434  0.25894  1.0000
  N   N7        1.0  0.92763  0.24437  0.24106  1.0000
  N   N8        1.0  0.57238  0.25565  0.74106  1.0000
  N   N9        1.0  0.59714  0.44964  0.86927  1.0000
  N   N10       1.0  0.90285  0.05036  0.36927  1.0000
  N   N11       1.0  0.40285  0.55036  0.13073  1.0000
  N   N12       1.0  0.09715  0.94964  0.63073  1.0000
  N   N13       1.0  0.28980  0.21273  0.98422  1.0000
  N   N14       1.0  0.21020  0.28727  0.48422  1.0000
  N   N15       1.0  0.71020  0.78727  0.01578  1.0000
  N   N16       1.0  0.78980  0.71273  0.51578  1.0000
  O   O1        1.0  0.27184  0.58218  0.95618  1.0000
  O   O2        1.0  0.22818  0.91782  0.45618  1.0000
  O   O3        1.0  0.72816  0.41782  0.04382  1.0000
  O   O4        1.0  0.77183  0.08218  0.54382  1.0000
  O   O5        1.0  0.14557  0.81340  0.95581  1.0000
  O   O6        1.0  0.35445  0.68660  0.45581  1.0000
  O   O7        1.0  0.85443  0.18660  0.04419  1.0000
  O   O8        1.0  0.64557  0.31340  0.54419  1.0000
  O   O9        1.0  0.83213  0.89361  0.86502  1.0000
  O   O10       1.0  0.66784  0.60638  0.36502  1.0000
  O   O11       1.0  0.16786  0.10639  0.13498  1.0000
  O   O12       1.0  0.33216  0.39362  0.63498  1.0000
  O   O13       1.0  0.19086  0.10118  0.84415  1.0000
  O   O14       1.0  0.30911  0.39880  0.34415  1.0000
  O   O15       1.0  0.80913  0.89882  0.15585  1.0000
  O   O16       1.0  0.69089  0.60120  0.65585  1.0000
  O   O17       1.0  0.86460  0.22533  0.91638  1.0000
  O   O18       1.0  0.63540  0.27466  0.41638  1.0000
  O   O19       1.0  0.13540  0.77466  0.08362  1.0000
  O   O20       1.0  0.36460  0.72533  0.58362  1.0000
