data_image0
_chemical_formula_structural       Zn2H20C24S2N4O8
_chemical_formula_sum              "Zn2 H20 C24 S2 N4 O8"
_cell_length_a       4.89968
_cell_length_b       8.05278
_cell_length_c       16.2351
_cell_angle_alpha    88.8049
_cell_angle_beta     85.9583
_cell_angle_gamma    72.3144

_space_group_name_H-M_alt    "P 1"
_space_group_IT_number       1

loop_
  _space_group_symop_operation_xyz
  'x, y, z'

loop_
  _atom_site_type_symbol
  _atom_site_label
  _atom_site_symmetry_multiplicity
  _atom_site_fract_x
  _atom_site_fract_y
  _atom_site_fract_z
  _atom_site_occupancy
  Zn  Zn1       1.0  0.47234  0.05525  0.24975  1.0000
  Zn  Zn2       1.0  0.52766  0.94475  0.75025  1.0000
  H   H1        1.0  0.41308  0.99709  0.07284  1.0000
  H   H2        1.0  0.59039  0.99677  0.42667  1.0000
  H   H3        1.0  0.58692  0.00291  0.92716  1.0000
  H   H4        1.0  0.40961  0.00322  0.57332  1.0000
  H   H5        1.0  0.06201  0.13813  0.96780  1.0000
  H   H6        1.0  0.79897  0.13810  0.53193  1.0000
  H   H7        1.0  0.93798  0.86187  0.03220  1.0000
  H   H8        1.0  0.20104  0.86190  0.46807  1.0000
  H   H9        1.0  0.71054  0.56607  0.14027  1.0000
  H   H10       1.0  0.72205  0.56657  0.35999  1.0000
  H   H11       1.0  0.28946  0.43393  0.85973  1.0000
  H   H12       1.0  0.27794  0.43344  0.64001  1.0000
  H   H13       1.0  0.08134  0.41770  0.23274  1.0000
  H   H14       1.0  0.50006  0.41833  0.26740  1.0000
  H   H15       1.0  0.91866  0.58230  0.76726  1.0000
  H   H16       1.0  0.49994  0.58167  0.73260  1.0000
  H   H17       1.0  0.65197  0.36885  0.93009  1.0000
  H   H18       1.0  0.97833  0.36940  0.57000  1.0000
  H   H19       1.0  0.34803  0.63115  0.06991  1.0000
  H   H20       1.0  0.02168  0.63060  0.43000  1.0000
  C   C1        1.0  0.25586  0.12466  0.08383  1.0000
  C   C2        1.0  0.61951  0.12450  0.41581  1.0000
  C   C3        1.0  0.74413  0.87534  0.91617  1.0000
  C   C4        1.0  0.38050  0.87549  0.58419  1.0000
  C   C5        1.0  0.05743  0.20178  0.02684  1.0000
  C   C6        1.0  0.74013  0.20184  0.47294  1.0000
  C   C7        1.0  0.94257  0.79822  0.97316  1.0000
  C   C8        1.0  0.25987  0.79816  0.52706  1.0000
  C   C9        1.0  0.84441  0.36053  0.04655  1.0000
  C   C10       1.0  0.79458  0.36065  0.45341  1.0000
  C   C11       1.0  0.15560  0.63947  0.95345  1.0000
  C   C12       1.0  0.20542  0.63935  0.54659  1.0000
  C   C13       1.0  0.86139  0.44087  0.12137  1.0000
  C   C14       1.0  0.69723  0.44105  0.37866  1.0000
  C   C15       1.0  0.13861  0.55913  0.87863  1.0000
  C   C16       1.0  0.30277  0.55895  0.62134  1.0000
  C   C17       1.0  0.06968  0.35730  0.17415  1.0000
  C   C18       1.0  0.57278  0.35738  0.32577  1.0000
  C   C19       1.0  0.93033  0.64270  0.82585  1.0000
  C   C20       1.0  0.42722  0.64262  0.67424  1.0000
  C   C21       1.0  0.61937  0.43255  0.99043  1.0000
  C   C22       1.0  0.94768  0.43270  0.50960  1.0000
  C   C23       1.0  0.38064  0.56745  0.00957  1.0000
  C   C24       1.0  0.05232  0.56730  0.49040  1.0000
  S   S1        1.0  0.08979  0.81975  0.24974  1.0000
  S   S2        1.0  0.91021  0.18025  0.75026  1.0000
  N   N1        1.0  0.26066  0.19917  0.15726  1.0000
  N   N2        1.0  0.54063  0.19900  0.34238  1.0000
  N   N3        1.0  0.73933  0.80083  0.84274  1.0000
  N   N4        1.0  0.45937  0.80100  0.65762  1.0000
  O   O1        1.0  0.31928  0.71645  0.19226  1.0000
  O   O2        1.0  0.96397  0.71655  0.30735  1.0000
  O   O3        1.0  0.68072  0.28355  0.80774  1.0000
  O   O4        1.0  0.03603  0.28346  0.69265  1.0000
  O   O5        1.0  0.20552  0.93744  0.30091  1.0000
  O   O6        1.0  0.85642  0.93680  0.19847  1.0000
  O   O7        1.0  0.79448  0.06256  0.69909  1.0000
  O   O8        1.0  0.14357  0.06320  0.80153  1.0000
