data_image0
_chemical_formula_structural       Zn4H16C20S4N4O12
_chemical_formula_sum              "Zn4 H16 C20 S4 N4 O12"
_cell_length_a       4.77744
_cell_length_b       8.44968
_cell_length_c       19.3669
_cell_angle_alpha    101.801
_cell_angle_beta     90.1047
_cell_angle_gamma    106.309

_space_group_name_H-M_alt    "P 1"
_space_group_IT_number       1

loop_
  _space_group_symop_operation_xyz
  'x, y, z'

loop_
  _atom_site_type_symbol
  _atom_site_label
  _atom_site_symmetry_multiplicity
  _atom_site_fract_x
  _atom_site_fract_y
  _atom_site_fract_z
  _atom_site_occupancy
  Zn  Zn1       1.0  0.93943  0.42964  0.81694  1.0000
  Zn  Zn2       1.0  0.50986  0.56931  0.68306  1.0000
  Zn  Zn3       1.0  0.06057  0.57036  0.18306  1.0000
  Zn  Zn4       1.0  0.49014  0.43069  0.31694  1.0000
  H   H1        1.0  0.12436  0.39374  0.95760  1.0000
  H   H2        1.0  0.73440  0.60674  0.54298  1.0000
  H   H3        1.0  0.87566  0.60624  0.04240  1.0000
  H   H4        1.0  0.26560  0.39327  0.45702  1.0000
  H   H5        1.0  0.93640  0.21834  0.04443  1.0000
  H   H6        1.0  0.72188  0.78246  0.45610  1.0000
  H   H7        1.0  0.06363  0.78164  0.95556  1.0000
  H   H8        1.0  0.27809  0.21754  0.54390  1.0000
  H   H9        1.0  0.21807  0.93166  0.88999  1.0000
  H   H10       1.0  0.28589  0.06799  0.60968  1.0000
  H   H11       1.0  0.78192  0.06834  0.11001  1.0000
  H   H12       1.0  0.71411  0.93202  0.39032  1.0000
  H   H13       1.0  0.42850  0.12960  0.81283  1.0000
  H   H14       1.0  0.29839  0.86990  0.68690  1.0000
  H   H15       1.0  0.57150  0.87041  0.18718  1.0000
  H   H16       1.0  0.70163  0.13012  0.31310  1.0000
  C   C1        1.0  0.92096  0.29150  0.94585  1.0000
  C   C2        1.0  0.63154  0.70858  0.55443  1.0000
  C   C3        1.0  0.07905  0.70850  0.05415  1.0000
  C   C4        1.0  0.36844  0.29141  0.44557  1.0000
  C   C5        1.0  0.81568  0.18993  0.99351  1.0000
  C   C6        1.0  0.62792  0.81039  0.50677  1.0000
  C   C7        1.0  0.18432  0.81006  0.00649  1.0000
  C   C8        1.0  0.37207  0.18961  0.49323  1.0000
  C   C9        1.0  0.55765  0.05627  0.97546  1.0000
  C   C10       1.0  0.50137  0.94350  0.52453  1.0000
  C   C11       1.0  0.44235  0.94373  0.02454  1.0000
  C   C12       1.0  0.49862  0.05650  0.47548  1.0000
  C   C13       1.0  0.41629  0.03384  0.90887  1.0000
  C   C14       1.0  0.38162  0.96557  0.59091  1.0000
  C   C15       1.0  0.58371  0.96616  0.09114  1.0000
  C   C16       1.0  0.61837  0.03443  0.40909  1.0000
  C   C17       1.0  0.53308  0.14261  0.86458  1.0000
  C   C18       1.0  0.38978  0.85673  0.63523  1.0000
  C   C19       1.0  0.46692  0.85739  0.13542  1.0000
  C   C20       1.0  0.61022  0.14328  0.36477  1.0000
  S   S1        1.0  0.55804  0.67007  0.84674  1.0000
  S   S2        1.0  0.88918  0.32869  0.65318  1.0000
  S   S3        1.0  0.44196  0.32993  0.15326  1.0000
  S   S4        1.0  0.11082  0.67131  0.34682  1.0000
  N   N1        1.0  0.78191  0.26959  0.88257  1.0000
  N   N2        1.0  0.51262  0.72989  0.61744  1.0000
  N   N3        1.0  0.21809  0.73041  0.11743  1.0000
  N   N4        1.0  0.48738  0.27011  0.38256  1.0000
  O   O1        1.0  0.36826  0.48356  0.83778  1.0000
  O   O2        1.0  0.88425  0.51509  0.66213  1.0000
  O   O3        1.0  0.63173  0.51645  0.16222  1.0000
  O   O4        1.0  0.11574  0.48491  0.33787  1.0000
  O   O5        1.0  0.87100  0.65210  0.85178  1.0000
  O   O6        1.0  0.22004  0.34697  0.64825  1.0000
  O   O7        1.0  0.12900  0.34790  0.14822  1.0000
  O   O8        1.0  0.77996  0.65303  0.35175  1.0000
  O   O9        1.0  0.52070  0.71820  0.77553  1.0000
  O   O10       1.0  0.80465  0.28042  0.72437  1.0000
  O   O11       1.0  0.47929  0.28180  0.22447  1.0000
  O   O12       1.0  0.19535  0.71958  0.27563  1.0000
