data_image0
_chemical_formula_structural       Cd4H8C24N8O16
_chemical_formula_sum              "Cd4 H8 C24 N8 O16"
_cell_length_a       7.81128
_cell_length_b       8.77289
_cell_length_c       10.593
_cell_angle_alpha    112.008
_cell_angle_beta     89.9995
_cell_angle_gamma    89.9996

_space_group_name_H-M_alt    "P 1"
_space_group_IT_number       1

loop_
  _space_group_symop_operation_xyz
  'x, y, z'

loop_
  _atom_site_type_symbol
  _atom_site_label
  _atom_site_symmetry_multiplicity
  _atom_site_fract_x
  _atom_site_fract_y
  _atom_site_fract_z
  _atom_site_occupancy
  Cd  Cd1       1.0  0.14043  0.53435  0.35865  1.0000
  Cd  Cd2       1.0  0.64043  0.96566  0.64135  1.0000
  Cd  Cd3       1.0  0.85957  0.46565  0.64135  1.0000
  Cd  Cd4       1.0  0.35957  0.03434  0.35864  1.0000
  H   H1        1.0  0.85620  0.73189  0.97472  1.0000
  H   H2        1.0  0.35621  0.76811  0.02529  1.0000
  H   H3        1.0  0.14380  0.26812  0.02529  1.0000
  H   H4        1.0  0.64380  0.23188  0.97471  1.0000
  H   H5        1.0  0.09698  0.67268  0.10879  1.0000
  H   H6        1.0  0.59698  0.82732  0.89121  1.0000
  H   H7        1.0  0.90302  0.32732  0.89121  1.0000
  H   H8        1.0  0.40302  0.17268  0.10878  1.0000
  C   C1        1.0  0.76819  0.62235  0.28187  1.0000
  C   C2        1.0  0.26820  0.87765  0.71813  1.0000
  C   C3        1.0  0.23180  0.37765  0.71813  1.0000
  C   C4        1.0  0.73180  0.12236  0.28187  1.0000
  C   C5        1.0  0.63433  0.65339  0.20614  1.0000
  C   C6        1.0  0.13433  0.84661  0.79386  1.0000
  C   C7        1.0  0.36567  0.34661  0.79386  1.0000
  C   C8        1.0  0.86567  0.15339  0.20614  1.0000
  C   C9        1.0  0.82921  0.69878  0.06235  1.0000
  C   C10       1.0  0.32922  0.80122  0.93765  1.0000
  C   C11       1.0  0.17079  0.30123  0.93765  1.0000
  C   C12       1.0  0.67078  0.19877  0.06235  1.0000
  C   C13       1.0  0.96345  0.66434  0.13455  1.0000
  C   C14       1.0  0.46345  0.83566  0.86545  1.0000
  C   C15       1.0  0.03655  0.33566  0.86545  1.0000
  C   C16       1.0  0.53655  0.16434  0.13455  1.0000
  C   C17       1.0  0.44810  0.64267  0.24065  1.0000
  C   C18       1.0  0.94811  0.85733  0.75935  1.0000
  C   C19       1.0  0.55190  0.35733  0.75935  1.0000
  C   C20       1.0  0.05189  0.14267  0.24065  1.0000
  C   C21       1.0  0.74140  0.59971  0.41528  1.0000
  C   C22       1.0  0.24141  0.90030  0.58472  1.0000
  C   C23       1.0  0.25861  0.40028  0.58472  1.0000
  C   C24       1.0  0.75858  0.09970  0.41527  1.0000
  N   N1        1.0  0.93156  0.62300  0.24172  1.0000
  N   N2        1.0  0.43156  0.87700  0.75828  1.0000
  N   N3        1.0  0.06844  0.37700  0.75828  1.0000
  N   N4        1.0  0.56844  0.12300  0.24172  1.0000
  N   N5        1.0  0.66548  0.69106  0.09658  1.0000
  N   N6        1.0  0.16548  0.80893  0.90341  1.0000
  N   N7        1.0  0.33453  0.30894  0.90342  1.0000
  N   N8        1.0  0.83452  0.19107  0.09659  1.0000
  O   O1        1.0  0.84436  0.49764  0.43616  1.0000
  O   O2        1.0  0.34435  0.00237  0.56385  1.0000
  O   O3        1.0  0.15564  0.50236  0.56385  1.0000
  O   O4        1.0  0.65565  0.99764  0.43615  1.0000
  O   O5        1.0  0.34731  0.75391  0.23655  1.0000
  O   O6        1.0  0.84732  0.74608  0.76345  1.0000
  O   O7        1.0  0.65269  0.24609  0.76345  1.0000
  O   O8        1.0  0.15269  0.25392  0.23656  1.0000
  O   O9        1.0  0.40399  0.51822  0.26651  1.0000
  O   O10       1.0  0.90399  0.98176  0.73348  1.0000
  O   O11       1.0  0.59602  0.48177  0.73349  1.0000
  O   O12       1.0  0.09600  0.01823  0.26651  1.0000
  O   O13       1.0  0.62886  0.68319  0.49564  1.0000
  O   O14       1.0  0.12887  0.81681  0.50436  1.0000
  O   O15       1.0  0.37113  0.31682  0.50437  1.0000
  O   O16       1.0  0.87113  0.18319  0.49564  1.0000
