data_image0
_chemical_formula_structural       Li4H32C16Cl4O8
_chemical_formula_sum              "Li4 H32 C16 Cl4 O8"
_cell_length_a       7.09023
_cell_length_b       7.62643
_cell_length_c       11.3739
_cell_angle_alpha    90
_cell_angle_beta     90
_cell_angle_gamma    90

_space_group_name_H-M_alt    "P 1"
_space_group_IT_number       1

loop_
  _space_group_symop_operation_xyz
  'x, y, z'

loop_
  _atom_site_type_symbol
  _atom_site_label
  _atom_site_symmetry_multiplicity
  _atom_site_fract_x
  _atom_site_fract_y
  _atom_site_fract_z
  _atom_site_occupancy
  Li  Li1       1.0  0.86548  0.12828  0.03567  1.0000
  Li  Li2       1.0  0.63452  0.87172  0.53567  1.0000
  Li  Li3       1.0  0.13452  0.62828  0.46433  1.0000
  Li  Li4       1.0  0.36548  0.37172  0.96433  1.0000
  H   H1        1.0  0.07545  0.02335  0.25001  1.0000
  H   H2        1.0  0.42455  0.97665  0.75000  1.0000
  H   H3        1.0  0.92455  0.52335  0.25000  1.0000
  H   H4        1.0  0.57545  0.47665  0.75000  1.0000
  H   H5        1.0  0.89566  0.86812  0.28937  1.0000
  H   H6        1.0  0.60434  0.13188  0.78937  1.0000
  H   H7        1.0  0.10434  0.36812  0.21063  1.0000
  H   H8        1.0  0.39566  0.63188  0.71063  1.0000
  H   H9        1.0  0.00195  0.02125  0.46851  1.0000
  H   H10       1.0  0.49805  0.97875  0.96850  1.0000
  H   H11       1.0  0.99805  0.52125  0.03150  1.0000
  H   H12       1.0  0.50195  0.47875  0.53150  1.0000
  H   H13       1.0  0.95549  0.23026  0.40215  1.0000
  H   H14       1.0  0.54451  0.76974  0.90215  1.0000
  H   H15       1.0  0.04451  0.73026  0.09785  1.0000
  H   H16       1.0  0.45549  0.26974  0.59785  1.0000
  H   H17       1.0  0.63867  0.30893  0.36164  1.0000
  H   H18       1.0  0.86132  0.69107  0.86164  1.0000
  H   H19       1.0  0.36133  0.80893  0.13836  1.0000
  H   H20       1.0  0.13867  0.19107  0.63836  1.0000
  H   H21       1.0  0.45396  0.15529  0.39711  1.0000
  H   H22       1.0  0.04604  0.84471  0.89712  1.0000
  H   H23       1.0  0.54604  0.65529  0.10288  1.0000
  H   H24       1.0  0.95396  0.34471  0.60288  1.0000
  H   H25       1.0  0.56993  0.94946  0.24652  1.0000
  H   H26       1.0  0.93007  0.05054  0.74652  1.0000
  H   H27       1.0  0.43007  0.44946  0.25348  1.0000
  H   H28       1.0  0.06993  0.55054  0.75348  1.0000
  H   H29       1.0  0.52921  0.15768  0.17786  1.0000
  H   H30       1.0  0.97079  0.84233  0.67786  1.0000
  H   H31       1.0  0.47079  0.65767  0.32214  1.0000
  H   H32       1.0  0.02921  0.34233  0.82214  1.0000
  C   C1        1.0  0.93182  0.00855  0.28455  1.0000
  C   C2        1.0  0.56818  0.99145  0.78455  1.0000
  C   C3        1.0  0.06818  0.50855  0.21545  1.0000
  C   C4        1.0  0.43182  0.49145  0.71545  1.0000
  C   C5        1.0  0.91331  0.09109  0.40493  1.0000
  C   C6        1.0  0.58668  0.90891  0.90493  1.0000
  C   C7        1.0  0.08669  0.59109  0.09507  1.0000
  C   C8        1.0  0.41332  0.40891  0.59507  1.0000
  C   C9        1.0  0.59844  0.16928  0.36364  1.0000
  C   C10       1.0  0.90156  0.83072  0.86364  1.0000
  C   C11       1.0  0.40156  0.66928  0.13636  1.0000
  C   C12       1.0  0.09844  0.33072  0.63636  1.0000
  C   C13       1.0  0.61570  0.08765  0.24285  1.0000
  C   C14       1.0  0.88430  0.91235  0.74285  1.0000
  C   C15       1.0  0.38430  0.58765  0.25715  1.0000
  C   C16       1.0  0.11570  0.41235  0.75715  1.0000
  Cl  Cl1       1.0  0.69046  0.36903  0.97404  1.0000
  Cl  Cl2       1.0  0.80954  0.63097  0.47404  1.0000
  Cl  Cl3       1.0  0.30954  0.86903  0.52596  1.0000
  Cl  Cl4       1.0  0.19046  0.13097  0.02596  1.0000
  O   O1        1.0  0.80775  0.09469  0.20176  1.0000
  O   O2        1.0  0.69225  0.90531  0.70176  1.0000
  O   O3        1.0  0.19225  0.59469  0.29824  1.0000
  O   O4        1.0  0.30775  0.40531  0.79824  1.0000
  O   O5        1.0  0.72050  0.08059  0.44599  1.0000
  O   O6        1.0  0.77950  0.91941  0.94599  1.0000
  O   O7        1.0  0.27950  0.58059  0.05401  1.0000
  O   O8        1.0  0.22050  0.41941  0.55401  1.0000
