data_image0
_chemical_formula_structural       CoP2H46C56O6
_chemical_formula_sum              "Co1 P2 H46 C56 O6"
_cell_length_a       9.4637
_cell_length_b       10.9223
_cell_length_c       11.3101
_cell_angle_alpha    86.9819
_cell_angle_beta     88.6919
_cell_angle_gamma    70.7237

_space_group_name_H-M_alt    "P 1"
_space_group_IT_number       1

loop_
  _space_group_symop_operation_xyz
  'x, y, z'

loop_
  _atom_site_type_symbol
  _atom_site_label
  _atom_site_symmetry_multiplicity
  _atom_site_fract_x
  _atom_site_fract_y
  _atom_site_fract_z
  _atom_site_occupancy
  Co  Co1       1.0  0.50000  0.50000  0.50000  1.0000
  P   P1        1.0  0.83547  0.52833  0.64385  1.0000
  P   P2        1.0  0.16454  0.47167  0.35615  1.0000
  H   H1        1.0  0.42660  0.21147  0.73019  1.0000
  H   H2        1.0  0.57340  0.78853  0.26982  1.0000
  H   H3        1.0  0.43941  0.05818  0.90363  1.0000
  H   H4        1.0  0.56059  0.94182  0.09637  1.0000
  H   H5        1.0  0.42033  0.13729  0.10929  1.0000
  H   H6        1.0  0.57967  0.86271  0.89071  1.0000
  H   H7        1.0  0.38973  0.36823  0.13836  1.0000
  H   H8        1.0  0.61028  0.63178  0.86164  1.0000
  H   H9        1.0  0.37007  0.52086  0.96658  1.0000
  H   H10       1.0  0.62993  0.47914  0.03342  1.0000
  H   H11       1.0  0.26671  0.63361  0.82233  1.0000
  H   H12       1.0  0.73331  0.36639  0.17767  1.0000
  H   H13       1.0  0.29968  0.80973  0.86179  1.0000
  H   H14       1.0  0.70032  0.19028  0.13821  1.0000
  H   H15       1.0  0.18128  0.04402  0.89676  1.0000
  H   H16       1.0  0.81873  0.95599  0.10324  1.0000
  H   H17       1.0  0.07792  0.20099  0.72910  1.0000
  H   H18       1.0  0.92208  0.79901  0.27091  1.0000
  H   H19       1.0  0.09170  0.12259  0.52342  1.0000
  H   H20       1.0  0.90829  0.87741  0.47660  1.0000
  H   H21       1.0  0.20825  0.88710  0.48947  1.0000
  H   H22       1.0  0.79175  0.11290  0.51053  1.0000
  H   H23       1.0  0.05689  0.48397  0.84187  1.0000
  H   H24       1.0  0.94311  0.51602  0.15814  1.0000
  H   H25       1.0  0.10712  0.33010  0.01534  1.0000
  H   H26       1.0  0.89288  0.66989  0.98466  1.0000
  H   H27       1.0  0.95153  0.18785  0.05466  1.0000
  H   H28       1.0  0.04846  0.81215  0.94534  1.0000
  H   H29       1.0  0.74289  0.20079  0.91821  1.0000
  H   H30       1.0  0.25711  0.79922  0.08178  1.0000
  H   H31       1.0  0.69447  0.35376  0.74054  1.0000
  H   H32       1.0  0.30554  0.64624  0.25945  1.0000
  H   H33       1.0  0.57890  0.74515  0.59174  1.0000
  H   H34       1.0  0.42110  0.25484  0.40826  1.0000
  H   H35       1.0  0.50752  0.98180  0.62252  1.0000
  H   H36       1.0  0.49246  0.01820  0.37747  1.0000
  H   H37       1.0  0.69035  0.07015  0.71211  1.0000
  H   H38       1.0  0.30962  0.92986  0.28788  1.0000
  H   H39       1.0  0.94348  0.92183  0.76846  1.0000
  H   H40       1.0  0.05650  0.07819  0.23153  1.0000
  H   H41       1.0  0.01307  0.68569  0.74336  1.0000
  H   H42       1.0  0.98693  0.31433  0.25664  1.0000
  H   H43       1.0  0.09780  0.50493  0.60648  1.0000
  H   H44       1.0  0.90220  0.49508  0.39352  1.0000
  H   H45       1.0  0.05097  0.36702  0.56990  1.0000
  H   H46       1.0  0.94904  0.63299  0.43009  1.0000
  C   C1        1.0  0.39601  0.46517  0.73187  1.0000
  C   C2        1.0  0.60400  0.53482  0.26813  1.0000
  C   C3        1.0  0.39640  0.37631  0.83608  1.0000
  C   C4        1.0  0.60360  0.62369  0.16391  1.0000
  C   C5        1.0  0.41774  0.24477  0.82010  1.0000
  C   C6        1.0  0.58225  0.75523  0.17990  1.0000
  C   C7        1.0  0.42590  0.15928  0.91760  1.0000
  C   C8        1.0  0.57409  0.84072  0.08240  1.0000
  C   C9        1.0  0.41509  0.20318  0.03253  1.0000
  C   C10       1.0  0.58491  0.79682  0.96747  1.0000
  C   C11       1.0  0.39533  0.33361  0.04923  1.0000
  C   C12       1.0  0.60467  0.66639  0.95077  1.0000
  C   C13       1.0  0.38413  0.41982  0.95192  1.0000
  C   C14       1.0  0.61586  0.58018  0.04808  1.0000
  C   C15       1.0  0.32599  0.59947  0.74071  1.0000
  C   C16       1.0  0.67403  0.40053  0.25930  1.0000
  C   C17       1.0  0.32887  0.69274  0.65110  1.0000
  C   C18       1.0  0.67114  0.30726  0.34891  1.0000
  C   C19       1.0  0.25778  0.83262  0.67333  1.0000
  C   C20       1.0  0.74223  0.16738  0.32668  1.0000
  C   C21       1.0  0.25033  0.87777  0.78819  1.0000
  C   C22       1.0  0.74968  0.12223  0.21181  1.0000
  C   C23       1.0  0.18568  0.00953  0.80762  1.0000
  C   C24       1.0  0.81432  0.99047  0.19238  1.0000
  C   C25       1.0  0.12812  0.09822  0.71276  1.0000
  C   C26       1.0  0.87188  0.90178  0.28724  1.0000
  C   C27       1.0  0.13613  0.05427  0.59813  1.0000
  C   C28       1.0  0.86387  0.94573  0.40188  1.0000
  C   C29       1.0  0.20098  0.92241  0.57845  1.0000
  C   C30       1.0  0.79902  0.07759  0.42155  1.0000
  C   C31       1.0  0.86982  0.43035  0.78119  1.0000
  C   C32       1.0  0.13019  0.56965  0.21881  1.0000
  C   C33       1.0  0.98647  0.42342  0.85827  1.0000
  C   C34       1.0  0.01354  0.57658  0.14173  1.0000
  C   C35       1.0  0.01517  0.33638  0.95657  1.0000
  C   C36       1.0  0.98483  0.66362  0.04343  1.0000
  C   C37       1.0  0.92769  0.25650  0.97830  1.0000
  C   C38       1.0  0.07231  0.74350  0.02170  1.0000
  C   C39       1.0  0.81124  0.26327  0.90176  1.0000
  C   C40       1.0  0.18876  0.73673  0.09823  1.0000
  C   C41       1.0  0.78242  0.34956  0.80282  1.0000
  C   C42       1.0  0.21759  0.65044  0.19717  1.0000
  C   C43       1.0  0.79770  0.69914  0.66945  1.0000
  C   C44       1.0  0.20230  0.30086  0.33054  1.0000
  C   C45       1.0  0.65655  0.78404  0.63371  1.0000
  C   C46       1.0  0.34345  0.21596  0.36629  1.0000
  C   C47       1.0  0.61777  0.91694  0.65010  1.0000
  C   C48       1.0  0.38222  0.08306  0.34989  1.0000
  C   C49       1.0  0.72009  0.96618  0.70035  1.0000
  C   C50       1.0  0.27990  0.03382  0.29964  1.0000
  C   C51       1.0  0.86200  0.88248  0.73326  1.0000
  C   C52       1.0  0.13799  0.11753  0.26673  1.0000
  C   C53       1.0  0.90105  0.74919  0.71853  1.0000
  C   C54       1.0  0.09895  0.25082  0.28147  1.0000
  C   C55       1.0  0.01241  0.47389  0.56428  1.0000
  C   C56       1.0  0.98760  0.52612  0.43572  1.0000
  O   O1        1.0  0.46595  0.41026  0.63946  1.0000
  O   O2        1.0  0.53406  0.58974  0.36054  1.0000
  O   O3        1.0  0.39152  0.66762  0.54884  1.0000
  O   O4        1.0  0.60848  0.33238  0.45116  1.0000
  O   O5        1.0  0.71159  0.50887  0.57552  1.0000
  O   O6        1.0  0.28842  0.49113  0.42447  1.0000
