data_image0
_chemical_formula_structural       Zn4H44C72N4O16
_chemical_formula_sum              "Zn4 H44 C72 N4 O16"
_cell_length_a       10.2017
_cell_length_b       12.0338
_cell_length_c       13.0781
_cell_angle_alpha    93.5156
_cell_angle_beta     111.849
_cell_angle_gamma    96.1204

_space_group_name_H-M_alt    "P 1"
_space_group_IT_number       1

loop_
  _space_group_symop_operation_xyz
  'x, y, z'

loop_
  _atom_site_type_symbol
  _atom_site_label
  _atom_site_symmetry_multiplicity
  _atom_site_fract_x
  _atom_site_fract_y
  _atom_site_fract_z
  _atom_site_occupancy
  Zn  Zn1       1.0  0.16001  0.49396  0.20592  1.0000
  Zn  Zn2       1.0  0.83999  0.50603  0.79408  1.0000
  Zn  Zn3       1.0  0.92669  0.49674  0.34323  1.0000
  Zn  Zn4       1.0  0.07331  0.50326  0.65677  1.0000
  H   H1        1.0  0.43465  0.53846  0.17296  1.0000
  H   H2        1.0  0.56535  0.46154  0.82705  1.0000
  H   H3        1.0  0.66599  0.66743  0.26382  1.0000
  H   H4        1.0  0.33401  0.33257  0.73618  1.0000
  H   H5        1.0  0.69924  0.80165  0.42814  1.0000
  H   H6        1.0  0.30076  0.19835  0.57186  1.0000
  H   H7        1.0  0.27253  0.67099  0.39437  1.0000
  H   H8        1.0  0.72747  0.32901  0.60563  1.0000
  H   H9        1.0  0.39255  0.81465  0.53314  1.0000
  H   H10       1.0  0.60745  0.18535  0.46687  1.0000
  H   H11       1.0  0.69734  0.91384  0.56255  1.0000
  H   H12       1.0  0.30266  0.08617  0.43745  1.0000
  H   H13       1.0  0.81180  0.06710  0.69869  1.0000
  H   H14       1.0  0.18820  0.93290  0.30131  1.0000
  H   H15       1.0  0.83019  0.19118  0.86273  1.0000
  H   H16       1.0  0.16981  0.80882  0.13727  1.0000
  H   H17       1.0  0.41908  0.02969  0.83746  1.0000
  H   H18       1.0  0.58092  0.97031  0.16254  1.0000
  H   H19       1.0  0.40034  0.90868  0.67523  1.0000
  H   H20       1.0  0.59967  0.09132  0.32477  1.0000
  H   H21       1.0  0.75222  0.24466  0.99903  1.0000
  H   H22       1.0  0.24778  0.75534  0.00097  1.0000
  H   H23       1.0  0.45735  0.13577  0.98665  1.0000
  H   H24       1.0  0.54264  0.86423  0.01335  1.0000
  H   H25       1.0  0.37859  0.21145  0.12274  1.0000
  H   H26       1.0  0.62141  0.78856  0.87726  1.0000
  H   H27       1.0  0.42791  0.32537  0.30258  1.0000
  H   H28       1.0  0.57210  0.67463  0.69742  1.0000
  H   H29       1.0  0.67297  0.43566  0.40312  1.0000
  H   H30       1.0  0.32703  0.56434  0.59688  1.0000
  H   H31       1.0  0.81175  0.32378  0.15985  1.0000
  H   H32       1.0  0.18825  0.67622  0.84015  1.0000
  H   H33       1.0  0.84785  0.11573  0.50002  1.0000
  H   H34       1.0  0.15215  0.88427  0.49998  1.0000
  H   H35       1.0  0.80140  0.95300  0.35786  1.0000
  H   H36       1.0  0.19860  0.04700  0.64213  1.0000
  H   H37       1.0  0.05023  0.14895  0.21199  1.0000
  H   H38       1.0  0.94977  0.85105  0.78801  1.0000
  H   H39       1.0  0.91142  0.81530  0.28996  1.0000
  H   H40       1.0  0.08859  0.18470  0.71004  1.0000
  H   H41       1.0  0.85700  0.90976  0.91360  1.0000
  H   H42       1.0  0.14301  0.09024  0.08640  1.0000
  H   H43       1.0  0.86632  0.05888  0.05463  1.0000
  H   H44       1.0  0.13368  0.94113  0.94537  1.0000
  C   C1        1.0  0.45375  0.59867  0.24438  1.0000
  C   C2        1.0  0.54625  0.40133  0.75562  1.0000
  C   C3        1.0  0.58136  0.67133  0.29535  1.0000
  C   C4        1.0  0.41864  0.32867  0.70466  1.0000
  C   C5        1.0  0.59880  0.74613  0.38617  1.0000
  C   C6        1.0  0.40120  0.25387  0.61383  1.0000
  C   C7        1.0  0.48707  0.74941  0.42448  1.0000
  C   C8        1.0  0.51293  0.25059  0.57552  1.0000
  C   C9        1.0  0.36285  0.67243  0.36859  1.0000
  C   C10       1.0  0.63715  0.32757  0.63141  1.0000
  C   C11       1.0  0.49012  0.82516  0.51633  1.0000
  C   C12       1.0  0.50989  0.17485  0.48367  1.0000
  C   C13       1.0  0.60029  0.90370  0.58017  1.0000
  C   C14       1.0  0.39971  0.09630  0.41983  1.0000
  C   C15       1.0  0.60541  0.97719  0.67414  1.0000
  C   C16       1.0  0.39459  0.02281  0.32586  1.0000
  C   C17       1.0  0.72563  0.05873  0.72926  1.0000
  C   C18       1.0  0.27437  0.94127  0.27074  1.0000
  C   C19       1.0  0.73631  0.12852  0.82144  1.0000
  C   C20       1.0  0.26369  0.87148  0.17856  1.0000
  C   C21       1.0  0.62778  0.11948  0.86407  1.0000
  C   C22       1.0  0.37222  0.88052  0.13593  1.0000
  C   C23       1.0  0.50581  0.03927  0.80756  1.0000
  C   C24       1.0  0.49419  0.96073  0.19245  1.0000
  C   C25       1.0  0.49508  0.97052  0.71531  1.0000
  C   C26       1.0  0.50492  0.02948  0.28469  1.0000
  C   C27       1.0  0.64983  0.18971  0.96498  1.0000
  C   C28       1.0  0.35016  0.81029  0.03502  1.0000
  C   C29       1.0  0.56057  0.18961  0.02019  1.0000
  C   C30       1.0  0.43942  0.81039  0.97981  1.0000
  C   C31       1.0  0.58967  0.25699  0.12458  1.0000
  C   C32       1.0  0.41032  0.74301  0.87542  1.0000
  C   C33       1.0  0.48326  0.25950  0.16864  1.0000
  C   C34       1.0  0.51674  0.74051  0.83137  1.0000
  C   C35       1.0  0.51030  0.32269  0.26872  1.0000
  C   C36       1.0  0.48970  0.67731  0.73128  1.0000
  C   C37       1.0  0.64479  0.38385  0.32466  1.0000
  C   C38       1.0  0.35521  0.61616  0.67534  1.0000
  C   C39       1.0  0.72253  0.32112  0.18707  1.0000
  C   C40       1.0  0.27746  0.67888  0.81293  1.0000
  C   C41       1.0  0.97138  0.22329  0.43483  1.0000
  C   C42       1.0  0.02862  0.77671  0.56517  1.0000
  C   C43       1.0  0.89136  0.12107  0.43566  1.0000
  C   C44       1.0  0.10864  0.87893  0.56434  1.0000
  C   C45       1.0  0.86609  0.03063  0.35658  1.0000
  C   C46       1.0  0.13391  0.96937  0.64341  1.0000
  C   C47       1.0  0.91895  0.04074  0.27211  1.0000
  C   C48       1.0  0.08104  0.95926  0.72789  1.0000
  C   C49       1.0  0.00446  0.14091  0.27452  1.0000
  C   C50       1.0  0.99555  0.85909  0.72548  1.0000
  C   C51       1.0  0.03200  0.23245  0.35446  1.0000
  C   C52       1.0  0.96800  0.76755  0.64554  1.0000
  C   C53       1.0  0.89176  0.94888  0.18356  1.0000
  C   C54       1.0  0.10824  0.05112  0.81643  1.0000
  C   C55       1.0  0.89500  0.83681  0.20673  1.0000
  C   C56       1.0  0.10500  0.16319  0.79327  1.0000
  C   C57       1.0  0.89389  0.75245  0.12784  1.0000
  C   C58       1.0  0.10612  0.24755  0.87216  1.0000
  C   C59       1.0  0.88462  0.77832  0.02229  1.0000
  C   C60       1.0  0.11538  0.22168  0.97771  1.0000
  C   C61       1.0  0.86895  0.88857  0.99620  1.0000
  C   C62       1.0  0.13106  0.11143  0.00380  1.0000
  C   C63       1.0  0.87361  0.97290  0.07564  1.0000
  C   C64       1.0  0.12639  0.02710  0.92436  1.0000
  C   C65       1.0  0.12955  0.33147  0.34486  1.0000
  C   C66       1.0  0.87045  0.66853  0.65515  1.0000
  C   C67       1.0  0.98457  0.31815  0.51820  1.0000
  C   C68       1.0  0.01543  0.68185  0.48180  1.0000
  C   C69       1.0  0.92605  0.64000  0.16580  1.0000
  C   C70       1.0  0.07395  0.36000  0.83420  1.0000
  C   C71       1.0  0.90179  0.69295  0.94069  1.0000
  C   C72       1.0  0.09821  0.30705  0.05931  1.0000
  N   N1        1.0  0.34697  0.59890  0.28182  1.0000
  N   N2        1.0  0.65303  0.40110  0.71819  1.0000
  N   N3        1.0  0.74809  0.38251  0.28355  1.0000
  N   N4        1.0  0.25191  0.61750  0.71645  1.0000
  O   O1        1.0  0.07631  0.42492  0.31120  1.0000
  O   O2        1.0  0.92368  0.57507  0.68880  1.0000
  O   O3        1.0  0.25171  0.31854  0.35504  1.0000
  O   O4        1.0  0.74829  0.68146  0.64497  1.0000
  O   O5        1.0  0.07795  0.40566  0.52935  1.0000
  O   O6        1.0  0.92205  0.59434  0.47066  1.0000
  O   O7        1.0  0.90667  0.31296  0.57314  1.0000
  O   O8        1.0  0.09333  0.68704  0.42686  1.0000
  O   O9        1.0  0.85787  0.59629  0.22045  1.0000
  O   O10       1.0  0.14213  0.40371  0.77955  1.0000
  O   O11       1.0  0.02472  0.60123  0.14321  1.0000
  O   O12       1.0  0.97528  0.39877  0.85679  1.0000
  O   O13       1.0  0.80524  0.60516  0.90358  1.0000
  O   O14       1.0  0.19476  0.39484  0.09642  1.0000
  O   O15       1.0  0.00519  0.71279  0.91211  1.0000
  O   O16       1.0  0.99481  0.28721  0.08788  1.0000
