data_image0
_chemical_formula_structural       Zn4H44C72N4O16
_chemical_formula_sum              "Zn4 H44 C72 N4 O16"
_cell_length_a       10.3894
_cell_length_b       11.8522
_cell_length_c       13.479
_cell_angle_alpha    93.7941
_cell_angle_beta     108.313
_cell_angle_gamma    103.589

_space_group_name_H-M_alt    "P 1"
_space_group_IT_number       1

loop_
  _space_group_symop_operation_xyz
  'x, y, z'

loop_
  _atom_site_type_symbol
  _atom_site_label
  _atom_site_symmetry_multiplicity
  _atom_site_fract_x
  _atom_site_fract_y
  _atom_site_fract_z
  _atom_site_occupancy
  Zn  Zn1       1.0  0.33455  0.48838  0.29297  1.0000
  Zn  Zn2       1.0  0.66545  0.51162  0.70702  1.0000
  Zn  Zn3       1.0  0.56282  0.50620  0.14656  1.0000
  Zn  Zn4       1.0  0.43718  0.49380  0.85344  1.0000
  H   H1        1.0  0.81345  0.59328  0.07022  1.0000
  H   H2        1.0  0.18655  0.40672  0.92978  1.0000
  H   H3        1.0  0.06338  0.71534  0.16507  1.0000
  H   H4        1.0  0.93661  0.28466  0.83492  1.0000
  H   H5        1.0  0.12158  0.82909  0.34350  1.0000
  H   H6        1.0  0.87842  0.17091  0.65650  1.0000
  H   H7        1.0  0.68973  0.68478  0.32077  1.0000
  H   H8        1.0  0.31028  0.31523  0.67923  1.0000
  H   H9        1.0  0.05390  0.87503  0.49586  1.0000
  H   H10       1.0  0.94611  0.12498  0.50414  1.0000
  H   H11       1.0  0.73366  0.79295  0.45425  1.0000
  H   H12       1.0  0.26634  0.20705  0.54575  1.0000
  H   H13       1.0  0.64587  0.85337  0.57622  1.0000
  H   H14       1.0  0.35412  0.14663  0.42378  1.0000
  H   H15       1.0  0.67146  0.93318  0.75828  1.0000
  H   H16       1.0  0.32855  0.06683  0.24173  1.0000
  H   H17       1.0  0.12204  0.01285  0.84269  1.0000
  H   H18       1.0  0.87796  0.98715  0.15732  1.0000
  H   H19       1.0  0.09756  0.93634  0.66313  1.0000
  H   H20       1.0  0.90244  0.06366  0.33686  1.0000
  H   H21       1.0  0.81326  0.01693  0.93263  1.0000
  H   H22       1.0  0.18674  0.98306  0.06737  1.0000
  H   H23       1.0  0.12268  0.12645  0.96533  1.0000
  H   H24       1.0  0.87732  0.87355  0.03468  1.0000
  H   H25       1.0  0.80585  0.17900  0.98875  1.0000
  H   H26       1.0  0.19414  0.82099  0.01126  1.0000
  H   H27       1.0  0.80457  0.35544  0.09901  1.0000
  H   H28       1.0  0.19543  0.64456  0.90098  1.0000
  H   H29       1.0  0.03152  0.47685  0.23410  1.0000
  H   H30       1.0  0.96847  0.52315  0.76589  1.0000
  H   H31       1.0  0.25442  0.26250  0.14865  1.0000
  H   H32       1.0  0.74558  0.73750  0.85134  1.0000
  H   H33       1.0  0.64409  0.10924  0.57559  1.0000
  H   H34       1.0  0.35590  0.89076  0.42441  1.0000
  H   H35       1.0  0.63200  0.95762  0.43627  1.0000
  H   H36       1.0  0.36801  0.04238  0.56373  1.0000
  H   H37       1.0  0.59092  0.20480  0.21522  1.0000
  H   H38       1.0  0.40909  0.79521  0.78478  1.0000
  H   H39       1.0  0.45557  0.84725  0.29105  1.0000
  H   H40       1.0  0.54443  0.15276  0.70895  1.0000
  H   H41       1.0  0.64163  0.91300  0.99834  1.0000
  H   H42       1.0  0.35837  0.08700  0.00166  1.0000
  H   H43       1.0  0.69037  0.08102  0.13885  1.0000
  H   H44       1.0  0.30964  0.91899  0.86114  1.0000
  C   C1        1.0  0.84547  0.64441  0.14839  1.0000
  C   C2        1.0  0.15453  0.35559  0.85161  1.0000
  C   C3        1.0  0.98245  0.71277  0.20089  1.0000
  C   C4        1.0  0.01755  0.28722  0.79911  1.0000
  C   C5        1.0  0.01495  0.77488  0.30097  1.0000
  C   C6        1.0  0.98506  0.22512  0.69903  1.0000
  C   C7        1.0  0.91088  0.76894  0.34802  1.0000
  C   C8        1.0  0.08913  0.23106  0.65199  1.0000
  C   C9        1.0  0.77597  0.69713  0.28924  1.0000
  C   C10       1.0  0.22404  0.30286  0.71077  1.0000
  C   C11       1.0  0.94273  0.83124  0.45335  1.0000
  C   C12       1.0  0.05727  0.16876  0.54665  1.0000
  C   C13       1.0  0.84464  0.83531  0.49892  1.0000
  C   C14       1.0  0.15536  0.16469  0.50108  1.0000
  C   C15       1.0  0.86873  0.88892  0.60559  1.0000
  C   C16       1.0  0.13127  0.11109  0.39441  1.0000
  C   C17       1.0  0.75036  0.89080  0.63473  1.0000
  C   C18       1.0  0.24964  0.10920  0.36527  1.0000
  C   C19       1.0  0.76504  0.93528  0.73708  1.0000
  C   C20       1.0  0.23497  0.06472  0.26292  1.0000
  C   C21       1.0  0.89851  0.97788  0.81432  1.0000
  C   C22       1.0  0.10149  0.02212  0.18568  1.0000
  C   C23       1.0  0.01674  0.97892  0.78458  1.0000
  C   C24       1.0  0.98326  0.02108  0.21542  1.0000
  C   C25       1.0  0.00317  0.93571  0.68261  1.0000
  C   C26       1.0  0.99683  0.06430  0.31739  1.0000
  C   C27       1.0  0.91220  0.00327  0.92790  1.0000
  C   C28       1.0  0.08780  0.99673  0.07210  1.0000
  C   C29       1.0  0.04493  0.09551  0.00386  1.0000
  C   C30       1.0  0.95506  0.90448  0.99614  1.0000
  C   C31       1.0  0.03010  0.20208  0.06212  1.0000
  C   C32       1.0  0.96990  0.79791  0.93788  1.0000
  C   C33       1.0  0.90370  0.23150  0.04826  1.0000
  C   C34       1.0  0.09629  0.76850  0.95174  1.0000
  C   C35       1.0  0.90206  0.33060  0.10968  1.0000
  C   C36       1.0  0.09794  0.66939  0.89032  1.0000
  C   C37       1.0  0.02697  0.39901  0.18392  1.0000
  C   C38       1.0  0.97302  0.60099  0.81608  1.0000
  C   C39       1.0  0.15186  0.27788  0.13727  1.0000
  C   C40       1.0  0.84813  0.72211  0.86273  1.0000
  C   C41       1.0  0.62182  0.24268  0.47497  1.0000
  C   C42       1.0  0.37818  0.75731  0.52503  1.0000
  C   C43       1.0  0.63482  0.13105  0.49676  1.0000
  C   C44       1.0  0.36518  0.86894  0.50324  1.0000
  C   C45       1.0  0.62768  0.04521  0.41826  1.0000
  C   C46       1.0  0.37231  0.95479  0.58174  1.0000
  C   C47       1.0  0.61033  0.06948  0.31494  1.0000
  C   C48       1.0  0.38967  0.93052  0.68506  1.0000
  C   C49       1.0  0.60802  0.18349  0.29494  1.0000
  C   C50       1.0  0.39199  0.81651  0.70507  1.0000
  C   C51       1.0  0.60984  0.26867  0.37267  1.0000
  C   C52       1.0  0.39017  0.73133  0.62733  1.0000
  C   C53       1.0  0.58110  0.97482  0.22773  1.0000
  C   C54       1.0  0.41890  0.02519  0.77227  1.0000
  C   C55       1.0  0.49752  0.86302  0.22724  1.0000
  C   C56       1.0  0.50248  0.13698  0.77275  1.0000
  C   C57       1.0  0.46742  0.76895  0.14761  1.0000
  C   C58       1.0  0.53258  0.23105  0.85239  1.0000
  C   C59       1.0  0.52483  0.78719  0.06630  1.0000
  C   C60       1.0  0.47517  0.21281  0.93370  1.0000
  C   C61       1.0  0.60196  0.90082  0.06381  1.0000
  C   C62       1.0  0.39804  0.09918  0.93619  1.0000
  C   C63       1.0  0.62875  0.99389  0.14196  1.0000
  C   C64       1.0  0.37125  0.00611  0.85803  1.0000
  C   C65       1.0  0.56967  0.37503  0.33283  1.0000
  C   C66       1.0  0.43033  0.62497  0.66717  1.0000
  C   C67       1.0  0.60841  0.32377  0.55999  1.0000
  C   C68       1.0  0.39159  0.67622  0.44001  1.0000
  C   C69       1.0  0.37038  0.65803  0.15986  1.0000
  C   C70       1.0  0.62963  0.34198  0.84014  1.0000
  C   C71       1.0  0.51337  0.69137  0.98433  1.0000
  C   C72       1.0  0.48663  0.30863  0.01566  1.0000
  N   N1        1.0  0.74483  0.63713  0.19307  1.0000
  N   N2        1.0  0.25517  0.36287  0.80694  1.0000
  N   N3        1.0  0.15067  0.37332  0.19641  1.0000
  N   N4        1.0  0.84933  0.62668  0.80359  1.0000
  O   O1        1.0  0.62964  0.42403  0.27222  1.0000
  O   O2        1.0  0.37036  0.57597  0.72777  1.0000
  O   O3        1.0  0.46997  0.40011  0.35801  1.0000
  O   O4        1.0  0.53003  0.59989  0.64198  1.0000
  O   O5        1.0  0.70394  0.42300  0.59578  1.0000
  O   O6        1.0  0.29606  0.57700  0.40423  1.0000
  O   O7        1.0  0.50891  0.28819  0.59362  1.0000
  O   O8        1.0  0.49109  0.71180  0.40639  1.0000
  O   O9        1.0  0.25087  0.65965  0.15685  1.0000
  O   O10       1.0  0.74914  0.34036  0.84316  1.0000
  O   O11       1.0  0.42106  0.56786  0.18779  1.0000
  O   O12       1.0  0.57895  0.43215  0.81222  1.0000
  O   O13       1.0  0.42598  0.58953  0.97741  1.0000
  O   O14       1.0  0.57402  0.41047  0.02259  1.0000
  O   O15       1.0  0.58742  0.70835  0.92633  1.0000
  O   O16       1.0  0.41258  0.29165  0.07367  1.0000
