data_image0
_chemical_formula_structural       Li4H20C20N4Cl4
_chemical_formula_sum              "Li4 H20 C20 N4 Cl4"
_cell_length_a       3.88828
_cell_length_b       8.55887
_cell_length_c       17.5583
_cell_angle_alpha    90
_cell_angle_beta     89.9999
_cell_angle_gamma    89.9999

_space_group_name_H-M_alt    "P 1"
_space_group_IT_number       1

loop_
  _space_group_symop_operation_xyz
  'x, y, z'

loop_
  _atom_site_type_symbol
  _atom_site_label
  _atom_site_symmetry_multiplicity
  _atom_site_fract_x
  _atom_site_fract_y
  _atom_site_fract_z
  _atom_site_occupancy
  Li  Li1       1.0  0.53600  0.69818  0.44249  1.0000
  Li  Li2       1.0  0.96400  0.30182  0.94249  1.0000
  Li  Li3       1.0  0.46400  0.19818  0.05751  1.0000
  Li  Li4       1.0  0.03600  0.80181  0.55751  1.0000
  H   H1        1.0  0.82151  0.58227  0.29573  1.0000
  H   H2        1.0  0.67849  0.41773  0.79573  1.0000
  H   H3        1.0  0.17849  0.08227  0.20427  1.0000
  H   H4        1.0  0.32152  0.91773  0.70427  1.0000
  H   H5        1.0  0.89204  0.32605  0.22899  1.0000
  H   H6        1.0  0.60796  0.67395  0.72900  1.0000
  H   H7        1.0  0.10796  0.82605  0.27101  1.0000
  H   H8        1.0  0.39204  0.17396  0.77100  1.0000
  H   H9        1.0  0.69366  0.08066  0.29697  1.0000
  H   H10       1.0  0.80634  0.91934  0.79697  1.0000
  H   H11       1.0  0.30634  0.58066  0.20304  1.0000
  H   H12       1.0  0.19366  0.41934  0.70303  1.0000
  H   H13       1.0  0.40607  0.10671  0.42290  1.0000
  H   H14       1.0  0.09392  0.89329  0.92290  1.0000
  H   H15       1.0  0.59393  0.60671  0.07710  1.0000
  H   H16       1.0  0.90607  0.39329  0.57709  1.0000
  H   H17       1.0  0.35095  0.37498  0.48094  1.0000
  H   H18       1.0  0.14904  0.62502  0.98094  1.0000
  H   H19       1.0  0.64905  0.87498  0.01906  1.0000
  H   H20       1.0  0.85095  0.12502  0.51906  1.0000
  C   C1        1.0  0.73222  0.47388  0.32190  1.0000
  C   C2        1.0  0.76778  0.52612  0.82190  1.0000
  C   C3        1.0  0.26778  0.97388  0.17810  1.0000
  C   C4        1.0  0.23222  0.02612  0.67810  1.0000
  C   C5        1.0  0.77406  0.33057  0.28531  1.0000
  C   C6        1.0  0.72594  0.66943  0.78531  1.0000
  C   C7        1.0  0.22594  0.83057  0.21469  1.0000
  C   C8        1.0  0.27406  0.16943  0.71469  1.0000
  C   C9        1.0  0.66113  0.19587  0.32241  1.0000
  C   C10       1.0  0.83886  0.80412  0.82241  1.0000
  C   C11       1.0  0.33886  0.69588  0.17759  1.0000
  C   C12       1.0  0.16113  0.30413  0.67758  1.0000
  C   C13       1.0  0.50403  0.20970  0.39350  1.0000
  C   C14       1.0  0.99597  0.79030  0.89350  1.0000
  C   C15       1.0  0.49598  0.70970  0.10650  1.0000
  C   C16       1.0  0.00404  0.29031  0.60650  1.0000
  C   C17       1.0  0.47033  0.35797  0.42531  1.0000
  C   C18       1.0  0.02966  0.64204  0.92531  1.0000
  C   C19       1.0  0.52966  0.85796  0.07469  1.0000
  C   C20       1.0  0.97034  0.14203  0.57469  1.0000
  N   N1        1.0  0.58329  0.48867  0.39068  1.0000
  N   N2        1.0  0.91670  0.51133  0.89069  1.0000
  N   N3        1.0  0.41671  0.98867  0.10932  1.0000
  N   N4        1.0  0.08330  0.01133  0.60932  1.0000
  Cl  Cl1       1.0  0.53399  0.65714  0.57747  1.0000
  Cl  Cl2       1.0  0.96602  0.34286  0.07747  1.0000
  Cl  Cl3       1.0  0.46602  0.15714  0.92253  1.0000
  Cl  Cl4       1.0  0.03398  0.84286  0.42253  1.0000
