data_image0
_chemical_formula_structural       Mg4H24C16O24
_chemical_formula_sum              "Mg4 H24 C16 O24"
_cell_length_a       7.49996
_cell_length_b       9.32932
_cell_length_c       8.97087
_cell_angle_alpha    89.9999
_cell_angle_beta     89.9999
_cell_angle_gamma    90.0008

_space_group_name_H-M_alt    "P 1"
_space_group_IT_number       1

loop_
  _space_group_symop_operation_xyz
  'x, y, z'

loop_
  _atom_site_type_symbol
  _atom_site_label
  _atom_site_symmetry_multiplicity
  _atom_site_fract_x
  _atom_site_fract_y
  _atom_site_fract_z
  _atom_site_occupancy
  Mg  Mg1       1.0  0.15711  0.77490  0.74660  1.0000
  Mg  Mg2       1.0  0.34289  0.22510  0.24660  1.0000
  Mg  Mg3       1.0  0.84289  0.27490  0.75341  1.0000
  Mg  Mg4       1.0  0.65711  0.72510  0.25340  1.0000
  H   H1        1.0  0.43682  0.12385  0.68917  1.0000
  H   H2        1.0  0.06317  0.87615  0.18917  1.0000
  H   H3        1.0  0.56317  0.62385  0.81083  1.0000
  H   H4        1.0  0.93683  0.37615  0.31083  1.0000
  H   H5        1.0  0.31681  0.04361  0.54046  1.0000
  H   H6        1.0  0.18319  0.95639  0.04046  1.0000
  H   H7        1.0  0.68319  0.54361  0.95954  1.0000
  H   H8        1.0  0.81681  0.45639  0.45954  1.0000
  H   H9        1.0  0.54551  0.91110  0.51768  1.0000
  H   H10       1.0  0.95449  0.08890  0.01768  1.0000
  H   H11       1.0  0.45447  0.41110  0.98232  1.0000
  H   H12       1.0  0.04553  0.58890  0.48232  1.0000
  H   H13       1.0  0.19542  0.58862  0.98425  1.0000
  H   H14       1.0  0.30459  0.41138  0.48425  1.0000
  H   H15       1.0  0.80459  0.08862  0.51575  1.0000
  H   H16       1.0  0.69541  0.91138  0.01575  1.0000
  H   H17       1.0  0.64758  0.82877  0.67406  1.0000
  H   H18       1.0  0.85242  0.17123  0.17407  1.0000
  H   H19       1.0  0.35242  0.32876  0.82592  1.0000
  H   H20       1.0  0.14758  0.67124  0.32592  1.0000
  H   H21       1.0  0.31040  0.72041  0.03757  1.0000
  H   H22       1.0  0.18960  0.27959  0.53758  1.0000
  H   H23       1.0  0.68960  0.22042  0.46242  1.0000
  H   H24       1.0  0.81040  0.77959  0.96242  1.0000
  C   C1        1.0  0.15792  0.07761  0.73310  1.0000
  C   C2        1.0  0.34208  0.92239  0.23310  1.0000
  C   C3        1.0  0.84208  0.57761  0.76690  1.0000
  C   C4        1.0  0.65792  0.42239  0.26690  1.0000
  C   C5        1.0  0.45626  0.69585  0.55826  1.0000
  C   C6        1.0  0.04375  0.30415  0.05826  1.0000
  C   C7        1.0  0.54373  0.19585  0.94175  1.0000
  C   C8        1.0  0.95627  0.80415  0.44174  1.0000
  C   C9        1.0  0.33488  0.04359  0.66198  1.0000
  C   C10       1.0  0.16512  0.95641  0.16198  1.0000
  C   C11       1.0  0.66511  0.54359  0.83802  1.0000
  C   C12       1.0  0.83488  0.45641  0.33802  1.0000
  C   C13       1.0  0.52083  0.84123  0.61365  1.0000
  C   C14       1.0  0.97917  0.15878  0.11365  1.0000
  C   C15       1.0  0.47916  0.34122  0.88635  1.0000
  C   C16       1.0  0.02084  0.65878  0.38634  1.0000
  O   O1        1.0  0.39013  0.90427  0.71109  1.0000
  O   O2        1.0  0.10987  0.09572  0.21110  1.0000
  O   O3        1.0  0.60987  0.40428  0.78890  1.0000
  O   O4        1.0  0.89013  0.59572  0.28890  1.0000
  O   O5        1.0  0.09048  0.19945  0.69977  1.0000
  O   O6        1.0  0.40952  0.80054  0.19977  1.0000
  O   O7        1.0  0.90951  0.69946  0.80023  1.0000
  O   O8        1.0  0.59048  0.30055  0.30023  1.0000
  O   O9        1.0  0.54512  0.63850  0.45463  1.0000
  O   O10       1.0  0.95488  0.36150  0.95463  1.0000
  O   O11       1.0  0.45487  0.13850  0.04536  1.0000
  O   O12       1.0  0.04513  0.86150  0.54537  1.0000
  O   O13       1.0  0.32001  0.63998  0.62038  1.0000
  O   O14       1.0  0.18000  0.36003  0.12039  1.0000
  O   O15       1.0  0.67999  0.13997  0.87962  1.0000
  O   O16       1.0  0.82002  0.86003  0.37961  1.0000
  O   O17       1.0  0.08622  0.98512  0.81668  1.0000
  O   O18       1.0  0.41377  0.01487  0.31668  1.0000
  O   O19       1.0  0.91378  0.48513  0.68332  1.0000
  O   O20       1.0  0.58622  0.51487  0.18332  1.0000
  O   O21       1.0  0.24458  0.68043  0.95062  1.0000
  O   O22       1.0  0.25541  0.31958  0.45062  1.0000
  O   O23       1.0  0.75541  0.18043  0.54939  1.0000
  O   O24       1.0  0.74459  0.81958  0.04938  1.0000
