data_image0
_chemical_formula_structural       Co2H8C32S4N6O10F24
_chemical_formula_sum              "Co2 H8 C32 S4 N6 O10 F24"
_cell_length_a       8.42911
_cell_length_b       12.2448
_cell_length_c       12.296
_cell_angle_alpha    106.816
_cell_angle_beta     111.452
_cell_angle_gamma    90.5863

_space_group_name_H-M_alt    "P 1"
_space_group_IT_number       1

loop_
  _space_group_symop_operation_xyz
  'x, y, z'

loop_
  _atom_site_type_symbol
  _atom_site_label
  _atom_site_symmetry_multiplicity
  _atom_site_fract_x
  _atom_site_fract_y
  _atom_site_fract_z
  _atom_site_occupancy
  Co  Co1       1.0  0.50000  1.00000  0.50000  1.0000
  Co  Co2       1.0  0.00000  0.50000  0.00000  1.0000
  H   H1        1.0  0.68139  0.49395  0.21638  1.0000
  H   H2        1.0  0.31861  0.50605  0.78363  1.0000
  H   H3        1.0  0.97025  0.63188  0.39376  1.0000
  H   H4        1.0  0.02975  0.36812  0.60624  1.0000
  H   H5        1.0  0.46686  0.15563  0.22138  1.0000
  H   H6        1.0  0.53314  0.84437  0.77862  1.0000
  H   H7        1.0  0.76661  0.76647  0.85772  1.0000
  H   H8        1.0  0.23339  0.23353  0.14228  1.0000
  C   C1        1.0  0.88113  0.86228  0.50974  1.0000
  C   C2        1.0  0.11887  0.13772  0.49026  1.0000
  C   C3        1.0  0.78788  0.75626  0.41417  1.0000
  C   C4        1.0  0.21212  0.24374  0.58583  1.0000
  C   C5        1.0  0.55530  0.64485  0.27308  1.0000
  C   C6        1.0  0.44469  0.35515  0.72692  1.0000
  C   C7        1.0  0.68990  0.58087  0.27501  1.0000
  C   C8        1.0  0.31009  0.41913  0.72498  1.0000
  C   C9        1.0  0.83986  0.65283  0.36635  1.0000
  C   C10       1.0  0.16014  0.34717  0.63365  1.0000
  C   C11       1.0  0.37770  0.62131  0.20495  1.0000
  C   C12       1.0  0.62231  0.37869  0.79505  1.0000
  C   C13       1.0  0.55255  0.18212  0.41582  1.0000
  C   C14       1.0  0.44745  0.81788  0.58419  1.0000
  C   C15       1.0  0.47537  0.11650  0.29161  1.0000
  C   C16       1.0  0.52463  0.88350  0.70839  1.0000
  C   C17       1.0  0.40692  0.00155  0.25698  1.0000
  C   C18       1.0  0.59308  0.99845  0.74302  1.0000
  C   C19       1.0  0.60162  0.31218  0.44853  1.0000
  C   C20       1.0  0.39839  0.68782  0.55148  1.0000
  C   C21       1.0  0.30082  0.93876  0.12007  1.0000
  C   C22       1.0  0.69917  0.06125  0.87993  1.0000
  C   C23       1.0  0.78437  0.67271  0.98410  1.0000
  C   C24       1.0  0.21564  0.32729  0.01590  1.0000
  C   C25       1.0  0.82840  0.70132  0.89582  1.0000
  C   C26       1.0  0.17161  0.29868  0.10418  1.0000
  C   C27       1.0  0.95286  0.64879  0.85610  1.0000
  C   C28       1.0  0.04714  0.35121  0.14390  1.0000
  C   C29       1.0  0.63939  0.72709  0.01855  1.0000
  C   C30       1.0  0.36062  0.27291  0.98145  1.0000
  C   C31       1.0  0.00015  0.68779  0.76232  1.0000
  C   C32       1.0  0.99985  0.31221  0.23768  1.0000
  S   S1        1.0  0.92468  0.06907  0.64390  1.0000
  S   S2        1.0  0.07532  0.93093  0.35610  1.0000
  S   S3        1.0  0.14981  0.98587  0.67186  1.0000
  S   S4        1.0  0.85019  0.01412  0.32814  1.0000
  N   N1        1.0  0.79902  0.95457  0.53615  1.0000
  N   N2        1.0  0.20099  0.04543  0.46385  1.0000
  N   N3        1.0  0.05171  0.86603  0.56446  1.0000
  N   N4        1.0  0.94829  0.13396  0.43553  1.0000
  N   N5        1.0  0.22944  0.60144  0.14856  1.0000
  N   N6        1.0  0.77055  0.39856  0.85143  1.0000
  O   O1        1.0  0.61483  0.75270  0.35740  1.0000
  O   O2        1.0  0.38516  0.24730  0.64259  1.0000
  O   O3        1.0  0.57686  0.14852  0.50889  1.0000
  O   O4        1.0  0.42314  0.85148  0.49111  1.0000
  O   O5        1.0  0.41190  0.94178  0.32731  1.0000
  O   O6        1.0  0.58809  0.05823  0.67269  1.0000
  O   O7        1.0  0.84677  0.60166  0.04152  1.0000
  O   O8        1.0  0.15323  0.39834  0.95848  1.0000
  O   O9        1.0  0.03584  0.56935  0.88752  1.0000
  O   O10       1.0  0.96416  0.43065  0.11248  1.0000
  F   F1        1.0  0.63785  0.33959  0.35982  1.0000
  F   F2        1.0  0.36215  0.66042  0.64019  1.0000
  F   F3        1.0  0.46588  0.36789  0.46065  1.0000
  F   F4        1.0  0.53413  0.63211  0.53937  1.0000
  F   F5        1.0  0.73810  0.35572  0.55662  1.0000
  F   F6        1.0  0.26191  0.64428  0.44338  1.0000
  F   F7        1.0  0.13353  0.96002  0.09249  1.0000
  F   F8        1.0  0.86646  0.03998  0.90751  1.0000
  F   F9        1.0  0.35825  0.97537  0.04508  1.0000
  F   F10       1.0  0.64174  0.02464  0.95491  1.0000
  F   F11       1.0  0.30055  0.82356  0.09165  1.0000
  F   F12       1.0  0.69944  0.17644  0.90834  1.0000
  F   F13       1.0  0.56917  0.80221  0.95773  1.0000
  F   F14       1.0  0.43085  0.19779  0.04227  1.0000
  F   F15       1.0  0.51079  0.64414  0.99326  1.0000
  F   F16       1.0  0.48921  0.35587  0.00675  1.0000
  F   F17       1.0  0.69713  0.78586  0.14193  1.0000
  F   F18       1.0  0.30288  0.21415  0.85807  1.0000
  F   F19       1.0  0.97906  0.59696  0.66086  1.0000
  F   F20       1.0  0.02094  0.40304  0.33914  1.0000
  F   F21       1.0  0.90190  0.76728  0.72350  1.0000
  F   F22       1.0  0.09809  0.23271  0.27650  1.0000
  F   F23       1.0  0.16760  0.73558  0.81195  1.0000
  F   F24       1.0  0.83240  0.26441  0.18804  1.0000
