data_image0
_chemical_formula_structural       Ni2H8C32S4N6O10F24
_chemical_formula_sum              "Ni2 H8 C32 S4 N6 O10 F24"
_cell_length_a       8.20146
_cell_length_b       12.333
_cell_length_c       12.3571
_cell_angle_alpha    70.9336
_cell_angle_beta     88.935
_cell_angle_gamma    70.9754

_space_group_name_H-M_alt    "P 1"
_space_group_IT_number       1

loop_
  _space_group_symop_operation_xyz
  'x, y, z'

loop_
  _atom_site_type_symbol
  _atom_site_label
  _atom_site_symmetry_multiplicity
  _atom_site_fract_x
  _atom_site_fract_y
  _atom_site_fract_z
  _atom_site_occupancy
  Ni  Ni1       1.0  0.00000  0.00000  1.00000  1.0000
  Ni  Ni2       1.0  0.00000  0.50000  0.50000  1.0000
  H   H1        1.0  0.47008  0.71581  0.50458  1.0000
  H   H2        1.0  0.52992  0.28419  0.49542  1.0000
  H   H3        1.0  0.56972  0.89844  0.36055  1.0000
  H   H4        1.0  0.43028  0.10156  0.63946  1.0000
  H   H5        1.0  0.24942  0.72035  0.84361  1.0000
  H   H6        1.0  0.75058  0.27965  0.15638  1.0000
  H   H7        1.0  0.90179  0.35680  0.23773  1.0000
  H   H8        1.0  0.09821  0.64320  0.76227  1.0000
  C   C1        1.0  0.35587  0.00884  0.13325  1.0000
  C   C2        1.0  0.64413  0.99116  0.86675  1.0000
  C   C3        1.0  0.36152  0.91305  0.24070  1.0000
  C   C4        1.0  0.63848  0.08695  0.75930  1.0000
  C   C5        1.0  0.27962  0.76808  0.35666  1.0000
  C   C6        1.0  0.72038  0.23191  0.64334  1.0000
  C   C7        1.0  0.41458  0.77367  0.41769  1.0000
  C   C8        1.0  0.58542  0.22633  0.58231  1.0000
  C   C9        1.0  0.46696  0.86773  0.34268  1.0000
  C   C10       1.0  0.53304  0.13227  0.65732  1.0000
  C   C11       1.0  0.17500  0.69509  0.38606  1.0000
  C   C12       1.0  0.82499  0.30490  0.61394  1.0000
  C   C13       1.0  0.14656  0.91263  0.81490  1.0000
  C   C14       1.0  0.85345  0.08736  0.18510  1.0000
  C   C15       1.0  0.19299  0.78925  0.88291  1.0000
  C   C16       1.0  0.80701  0.21075  0.11709  1.0000
  C   C17       1.0  0.15791  0.75263  0.99832  1.0000
  C   C18       1.0  0.84209  0.24737  0.00168  1.0000
  C   C19       1.0  0.15574  0.94381  0.68370  1.0000
  C   C20       1.0  0.84426  0.05619  0.31630  1.0000
  C   C21       1.0  0.17603  0.61735  0.05763  1.0000
  C   C22       1.0  0.82397  0.38265  0.94237  1.0000
  C   C23       1.0  0.10074  0.35652  0.34758  1.0000
  C   C24       1.0  0.89926  0.64348  0.65242  1.0000
  C   C25       1.0  0.92974  0.39782  0.29723  1.0000
  C   C26       1.0  0.07025  0.60218  0.70277  1.0000
  C   C27       1.0  0.79504  0.49026  0.31885  1.0000
  C   C28       1.0  0.20496  0.50974  0.68115  1.0000
  C   C29       1.0  0.23954  0.26038  0.30912  1.0000
  C   C30       1.0  0.76046  0.73962  0.69088  1.0000
  C   C31       1.0  0.61007  0.51882  0.26756  1.0000
  C   C32       1.0  0.38993  0.48118  0.73244  1.0000
  S   S1        1.0  0.27418  0.13882  0.92268  1.0000
  S   S2        1.0  0.72582  0.86118  0.07732  1.0000
  S   S3        1.0  0.46220  0.17297  0.00936  1.0000
  S   S4        1.0  0.53780  0.82703  0.99064  1.0000
  N   N1        1.0  0.24963  0.03319  0.03917  1.0000
  N   N2        1.0  0.75037  0.96681  0.96083  1.0000
  N   N3        1.0  0.47063  0.06577  0.12992  1.0000
  N   N4        1.0  0.52937  0.93423  0.87008  1.0000
  N   N5        1.0  0.09057  0.63268  0.41491  1.0000
  N   N6        1.0  0.90943  0.36733  0.58508  1.0000
  O   O1        1.0  0.24764  0.85242  0.24786  1.0000
  O   O2        1.0  0.75237  0.14758  0.75213  1.0000
  O   O3        1.0  0.08346  0.00520  0.84551  1.0000
  O   O4        1.0  0.91655  0.99480  0.15449  1.0000
  O   O5        1.0  0.10032  0.81837  0.06000  1.0000
  O   O6        1.0  0.89968  0.18163  0.94000  1.0000
  O   O7        1.0  0.16030  0.38663  0.42260  1.0000
  O   O8        1.0  0.83970  0.61337  0.57740  1.0000
  O   O9        1.0  0.79952  0.55471  0.37952  1.0000
  O   O10       1.0  0.20048  0.44529  0.62048  1.0000
  F   F1        1.0  0.27702  0.85463  0.65535  1.0000
  F   F2        1.0  0.72298  0.14537  0.34464  1.0000
  F   F3        1.0  0.99845  0.95964  0.63326  1.0000
  F   F4        1.0  0.00155  0.04036  0.36675  1.0000
  F   F5        1.0  0.18898  0.04926  0.63519  1.0000
  F   F6        1.0  0.81103  0.95074  0.36481  1.0000
  F   F7        1.0  0.02632  0.60058  0.03118  1.0000
  F   F8        1.0  0.97369  0.39942  0.96883  1.0000
  F   F9        1.0  0.30829  0.54040  0.02261  1.0000
  F   F10       1.0  0.69172  0.45960  0.97739  1.0000
  F   F11       1.0  0.19999  0.58346  0.17349  1.0000
  F   F12       1.0  0.80002  0.41654  0.82651  1.0000
  F   F13       1.0  0.31932  0.15843  0.40098  1.0000
  F   F14       1.0  0.68068  0.84157  0.59902  1.0000
  F   F15       1.0  0.17288  0.22494  0.23149  1.0000
  F   F16       1.0  0.82711  0.77506  0.76851  1.0000
  F   F17       1.0  0.36381  0.30561  0.25930  1.0000
  F   F18       1.0  0.63619  0.69439  0.74070  1.0000
  F   F19       1.0  0.60157  0.45851  0.19490  1.0000
  F   F20       1.0  0.39843  0.54150  0.80510  1.0000
  F   F21       1.0  0.50975  0.48894  0.35392  1.0000
  F   F22       1.0  0.49025  0.51106  0.64608  1.0000
  F   F23       1.0  0.53428  0.64088  0.20796  1.0000
  F   F24       1.0  0.46572  0.35912  0.79204  1.0000
