data_image0
_chemical_formula_structural       Cd2H40C56N8O8
_chemical_formula_sum              "Cd2 H40 C56 N8 O8"
_cell_length_a       7.51724
_cell_length_b       13.4415
_cell_length_c       13.4412
_cell_angle_alpha    107.751
_cell_angle_beta     106.04
_cell_angle_gamma    106.041

_space_group_name_H-M_alt    "P 1"
_space_group_IT_number       1

loop_
  _space_group_symop_operation_xyz
  'x, y, z'

loop_
  _atom_site_type_symbol
  _atom_site_label
  _atom_site_symmetry_multiplicity
  _atom_site_fract_x
  _atom_site_fract_y
  _atom_site_fract_z
  _atom_site_occupancy
  Cd  Cd1       1.0  0.25000  0.85488  0.14512  1.0000
  Cd  Cd2       1.0  0.74999  0.14512  0.85488  1.0000
  H   H1        1.0  0.36155  0.02970  0.55227  1.0000
  H   H2        1.0  0.13845  0.44774  0.97031  1.0000
  H   H3        1.0  0.63847  0.97032  0.44775  1.0000
  H   H4        1.0  0.86153  0.55227  0.02970  1.0000
  H   H5        1.0  0.61383  0.09671  0.31285  1.0000
  H   H6        1.0  0.88616  0.68715  0.90330  1.0000
  H   H7        1.0  0.38616  0.90329  0.68715  1.0000
  H   H8        1.0  0.11382  0.31285  0.09670  1.0000
  H   H9        1.0  0.78968  0.28596  0.31638  1.0000
  H   H10       1.0  0.71031  0.68362  0.71404  1.0000
  H   H11       1.0  0.21032  0.71404  0.68361  1.0000
  H   H12       1.0  0.28968  0.31638  0.28596  1.0000
  H   H13       1.0  0.36888  0.16344  0.97020  1.0000
  H   H14       1.0  0.13111  0.02979  0.83655  1.0000
  H   H15       1.0  0.63110  0.83655  0.02980  1.0000
  H   H16       1.0  0.86888  0.97020  0.16345  1.0000
  H   H17       1.0  0.65755  0.31931  0.13941  1.0000
  H   H18       1.0  0.84244  0.86058  0.68069  1.0000
  H   H19       1.0  0.34244  0.68068  0.86058  1.0000
  H   H20       1.0  0.15755  0.13941  0.31931  1.0000
  H   H21       1.0  0.76116  0.89685  0.29711  1.0000
  H   H22       1.0  0.73884  0.70290  0.10315  1.0000
  H   H23       1.0  0.23885  0.10315  0.70291  1.0000
  H   H24       1.0  0.26115  0.29710  0.89685  1.0000
  H   H25       1.0  0.51628  0.30382  0.40595  1.0000
  H   H26       1.0  0.98374  0.59405  0.69620  1.0000
  H   H27       1.0  0.48371  0.69619  0.59405  1.0000
  H   H28       1.0  0.01627  0.40594  0.30380  1.0000
  H   H29       1.0  0.75001  0.69907  0.30094  1.0000
  H   H30       1.0  0.25002  0.30093  0.69905  1.0000
  H   H31       1.0  0.99764  0.78098  0.50481  1.0000
  H   H32       1.0  0.50239  0.49520  0.21903  1.0000
  H   H33       1.0  0.00237  0.21902  0.49519  1.0000
  H   H34       1.0  0.49764  0.50480  0.78097  1.0000
  H   H35       1.0  0.75000  0.27693  0.72306  1.0000
  H   H36       1.0  0.25000  0.72306  0.27693  1.0000
  H   H37       1.0  0.51737  0.18760  0.51930  1.0000
  H   H38       1.0  0.98263  0.48069  0.81240  1.0000
  H   H39       1.0  0.48263  0.81240  0.48069  1.0000
  H   H40       1.0  0.01737  0.51930  0.18759  1.0000
  C   C1        1.0  0.20374  0.01744  0.53000  1.0000
  C   C2        1.0  0.29625  0.47001  0.98256  1.0000
  C   C3        1.0  0.79627  0.98257  0.47002  1.0000
  C   C4        1.0  0.70373  0.53000  0.01744  1.0000
  C   C5        1.0  0.06935  0.96062  0.41551  1.0000
  C   C6        1.0  0.43065  0.58450  0.03939  1.0000
  C   C7        1.0  0.93066  0.03940  0.58451  1.0000
  C   C8        1.0  0.56933  0.41550  0.96061  1.0000
  C   C9        1.0  0.14447  0.92102  0.32507  1.0000
  C   C10       1.0  0.35553  0.67494  0.07899  1.0000
  C   C11       1.0  0.85554  0.07900  0.67494  1.0000
  C   C12       1.0  0.64447  0.32507  0.92102  1.0000
  C   C13       1.0  0.33711  0.04622  0.05159  1.0000
  C   C14       1.0  0.16288  0.94841  0.95377  1.0000
  C   C15       1.0  0.66288  0.95378  0.94841  1.0000
  C   C16       1.0  0.83711  0.05158  0.04623  1.0000
  C   C17       1.0  0.56592  0.11518  0.23848  1.0000
  C   C18       1.0  0.93408  0.76152  0.88482  1.0000
  C   C19       1.0  0.43407  0.88482  0.76151  1.0000
  C   C20       1.0  0.06591  0.23848  0.11518  1.0000
  C   C21       1.0  0.66120  0.22081  0.24002  1.0000
  C   C22       1.0  0.83879  0.75997  0.77919  1.0000
  C   C23       1.0  0.33879  0.77918  0.75997  1.0000
  C   C24       1.0  0.16120  0.24002  0.22081  1.0000
  C   C25       1.0  0.42448  0.15038  0.04702  1.0000
  C   C26       1.0  0.07552  0.95297  0.84962  1.0000
  C   C27       1.0  0.57551  0.84961  0.95297  1.0000
  C   C28       1.0  0.92447  0.04703  0.15038  1.0000
  C   C29       1.0  0.58812  0.23792  0.14207  1.0000
  C   C30       1.0  0.91187  0.85792  0.76207  1.0000
  C   C31       1.0  0.41186  0.76208  0.85792  1.0000
  C   C32       1.0  0.08812  0.14207  0.23792  1.0000
  C   C33       1.0  0.86539  0.94321  0.38593  1.0000
  C   C34       1.0  0.63461  0.61408  0.05680  1.0000
  C   C35       1.0  0.13462  0.05680  0.61409  1.0000
  C   C36       1.0  0.36537  0.38592  0.94320  1.0000
  C   C37       1.0  0.75002  0.45637  0.54365  1.0000
  C   C38       1.0  0.24999  0.54363  0.45635  1.0000
  C   C39       1.0  0.75001  0.52456  0.47544  1.0000
  C   C40       1.0  0.25000  0.47544  0.52455  1.0000
  C   C41       1.0  0.61796  0.34157  0.49486  1.0000
  C   C42       1.0  0.88205  0.50513  0.65843  1.0000
  C   C43       1.0  0.38204  0.65842  0.50513  1.0000
  C   C44       1.0  0.11796  0.49486  0.34157  1.0000
  C   C45       1.0  0.75002  0.64895  0.35106  1.0000
  C   C46       1.0  0.25001  0.35105  0.64894  1.0000
  C   C47       1.0  0.88578  0.69344  0.46345  1.0000
  C   C48       1.0  0.61425  0.53656  0.30657  1.0000
  C   C49       1.0  0.11424  0.30656  0.53655  1.0000
  C   C50       1.0  0.38577  0.46344  0.69343  1.0000
  C   C51       1.0  0.75000  0.32702  0.67296  1.0000
  C   C52       1.0  0.25001  0.67297  0.32702  1.0000
  C   C53       1.0  0.61887  0.27704  0.55866  1.0000
  C   C54       1.0  0.88115  0.44134  0.72297  1.0000
  C   C55       1.0  0.38113  0.72296  0.44133  1.0000
  C   C56       1.0  0.11885  0.55865  0.27702  1.0000
  N   N1        1.0  0.40969  0.03074  0.14703  1.0000
  N   N2        1.0  0.09029  0.85296  0.96926  1.0000
  N   N3        1.0  0.59029  0.96926  0.85297  1.0000
  N   N4        1.0  0.90969  0.14703  0.03074  1.0000
  N   N5        1.0  0.88750  0.63269  0.52595  1.0000
  N   N6        1.0  0.61255  0.47406  0.36732  1.0000
  N   N7        1.0  0.11251  0.36731  0.47405  1.0000
  N   N8        1.0  0.38747  0.52594  0.63268  1.0000
  O   O1        1.0  0.01398  0.85554  0.22320  1.0000
  O   O2        1.0  0.48603  0.77681  0.14446  1.0000
  O   O3        1.0  0.98602  0.14446  0.77682  1.0000
  O   O4        1.0  0.51398  0.22320  0.85554  1.0000
  O   O5        1.0  0.33282  0.95453  0.34921  1.0000
  O   O6        1.0  0.16718  0.65080  0.04549  1.0000
  O   O7        1.0  0.66719  0.04549  0.65081  1.0000
  O   O8        1.0  0.83282  0.34921  0.95452  1.0000
