data_image0
_chemical_formula_structural       Cd2H42C52Br2N6O8
_chemical_formula_sum              "Cd2 H42 C52 Br2 N6 O8"
_cell_length_a       10.3035
_cell_length_b       10.8469
_cell_length_c       13.8847
_cell_angle_alpha    109.053
_cell_angle_beta     102.328
_cell_angle_gamma    108.847

_space_group_name_H-M_alt    "P 1"
_space_group_IT_number       1

loop_
  _space_group_symop_operation_xyz
  'x, y, z'

loop_
  _atom_site_type_symbol
  _atom_site_label
  _atom_site_symmetry_multiplicity
  _atom_site_fract_x
  _atom_site_fract_y
  _atom_site_fract_z
  _atom_site_occupancy
  Cd  Cd1       1.0  0.13084  0.25309  0.32134  1.0000
  Cd  Cd2       1.0  0.86916  0.74691  0.67866  1.0000
  H   H1        1.0  0.62847  0.25465  0.31498  1.0000
  H   H2        1.0  0.37153  0.74535  0.68502  1.0000
  H   H3        1.0  0.25114  0.85806  0.20965  1.0000
  H   H4        1.0  0.74886  0.14194  0.79035  1.0000
  H   H5        1.0  0.66453  0.85296  0.19454  1.0000
  H   H6        1.0  0.33547  0.14704  0.80546  1.0000
  H   H7        1.0  0.12455  0.08030  0.46643  1.0000
  H   H8        1.0  0.87544  0.91970  0.53357  1.0000
  H   H9        1.0  0.13474  0.09938  0.65350  1.0000
  H   H10       1.0  0.86526  0.90062  0.34650  1.0000
  H   H11       1.0  0.25111  0.55475  0.75343  1.0000
  H   H12       1.0  0.74890  0.44525  0.24657  1.0000
  H   H13       1.0  0.23338  0.51508  0.56392  1.0000
  H   H14       1.0  0.76662  0.48491  0.43608  1.0000
  H   H15       1.0  0.23934  0.46030  0.88757  1.0000
  H   H16       1.0  0.76067  0.53970  0.11243  1.0000
  H   H17       1.0  0.27708  0.30838  0.86511  1.0000
  H   H18       1.0  0.72293  0.69162  0.13489  1.0000
  H   H19       1.0  0.97250  0.30877  0.81480  1.0000
  H   H20       1.0  0.02750  0.69124  0.18520  1.0000
  H   H21       1.0  0.99822  0.14858  0.76796  1.0000
  H   H22       1.0  0.00179  0.85143  0.23204  1.0000
  H   H23       1.0  0.93404  0.37296  0.98753  1.0000
  H   H24       1.0  0.06596  0.62705  0.01247  1.0000
  H   H25       1.0  0.96111  0.35057  0.16397  1.0000
  H   H26       1.0  0.03889  0.64943  0.83603  1.0000
  H   H27       1.0  0.19437  0.10621  0.09860  1.0000
  H   H28       1.0  0.80562  0.89379  0.90140  1.0000
  H   H29       1.0  0.17214  0.11252  0.91772  1.0000
  H   H30       1.0  0.82786  0.88748  0.08228  1.0000
  H   H31       1.0  0.03398  0.51300  0.37790  1.0000
  H   H32       1.0  0.96602  0.48700  0.62209  1.0000
  H   H33       1.0  0.13592  0.78058  0.44233  1.0000
  H   H34       1.0  0.86407  0.21942  0.55767  1.0000
  H   H35       1.0  0.55545  0.77668  0.44653  1.0000
  H   H36       1.0  0.44455  0.22332  0.55347  1.0000
  H   H37       1.0  0.43485  0.51036  0.38052  1.0000
  H   H38       1.0  0.56515  0.48964  0.61948  1.0000
  H   H39       1.0  0.40312  0.00777  0.57012  1.0000
  H   H40       1.0  0.59688  0.99223  0.42988  1.0000
  H   H41       1.0  0.35261  0.99065  0.43564  1.0000
  H   H42       1.0  0.64738  0.00935  0.56436  1.0000
  C   C1        1.0  0.82467  0.14082  0.28107  1.0000
  C   C2        1.0  0.17533  0.85917  0.71892  1.0000
  C   C3        1.0  0.66338  0.06194  0.25730  1.0000
  C   C4        1.0  0.33661  0.93805  0.74270  1.0000
  C   C5        1.0  0.57899  0.13770  0.28136  1.0000
  C   C6        1.0  0.42100  0.86229  0.71864  1.0000
  C   C7        1.0  0.43151  0.06420  0.26512  1.0000
  C   C8        1.0  0.56849  0.93580  0.73488  1.0000
  C   C9        1.0  0.36589  0.91332  0.22121  1.0000
  C   C10       1.0  0.63411  0.08668  0.77879  1.0000
  C   C11       1.0  0.44990  0.83874  0.19443  1.0000
  C   C12       1.0  0.55010  0.16125  0.80557  1.0000
  C   C13       1.0  0.59801  0.91097  0.21301  1.0000
  C   C14       1.0  0.40199  0.08902  0.78699  1.0000
  C   C15       1.0  0.34239  0.14620  0.29563  1.0000
  C   C16       1.0  0.65761  0.85380  0.70437  1.0000
  C   C17       1.0  0.15156  0.18297  0.53311  1.0000
  C   C18       1.0  0.84843  0.81703  0.46689  1.0000
  C   C19       1.0  0.15785  0.19455  0.63686  1.0000
  C   C20       1.0  0.84215  0.80545  0.36314  1.0000
  C   C21       1.0  0.19374  0.32965  0.71982  1.0000
  C   C22       1.0  0.80626  0.67036  0.28019  1.0000
  C   C23       1.0  0.22297  0.44694  0.69318  1.0000
  C   C24       1.0  0.77704  0.55306  0.30682  1.0000
  C   C25       1.0  0.21332  0.42571  0.58697  1.0000
  C   C26       1.0  0.78668  0.57429  0.41303  1.0000
  C   C27       1.0  0.19809  0.34587  0.83230  1.0000
  C   C28       1.0  0.80192  0.65413  0.16770  1.0000
  C   C29       1.0  0.04649  0.25886  0.83278  1.0000
  C   C30       1.0  0.95351  0.74115  0.16723  1.0000
  C   C31       1.0  0.05597  0.24856  0.93918  1.0000
  C   C32       1.0  0.94403  0.75145  0.06083  1.0000
  C   C33       1.0  0.99421  0.31381  0.00936  1.0000
  C   C34       1.0  0.00579  0.68620  0.99064  1.0000
  C   C35       1.0  0.00850  0.30178  0.10754  1.0000
  C   C36       1.0  0.99150  0.69822  0.89246  1.0000
  C   C37       1.0  0.13850  0.16525  0.07131  1.0000
  C   C38       1.0  0.86149  0.83475  0.92869  1.0000
  C   C39       1.0  0.12795  0.17100  0.97157  1.0000
  C   C40       1.0  0.87205  0.82901  0.02843  1.0000
  C   C41       1.0  0.14867  0.57695  0.39347  1.0000
  C   C42       1.0  0.85133  0.42304  0.60652  1.0000
  C   C43       1.0  0.20662  0.72528  0.42932  1.0000
  C   C44       1.0  0.79338  0.27472  0.57068  1.0000
  C   C45       1.0  0.35587  0.80298  0.45027  1.0000
  C   C46       1.0  0.64412  0.19702  0.54973  1.0000
  C   C47       1.0  0.43904  0.72417  0.43194  1.0000
  C   C48       1.0  0.56096  0.27583  0.56806  1.0000
  C   C49       1.0  0.37334  0.57527  0.39545  1.0000
  C   C50       1.0  0.62666  0.42473  0.60455  1.0000
  C   C51       1.0  0.41932  0.96412  0.49216  1.0000
  C   C52       1.0  0.58068  0.03588  0.50784  1.0000
  Br  Br1       1.0  0.36070  0.63252  0.13315  1.0000
  Br  Br2       1.0  0.63930  0.36748  0.86686  1.0000
  N   N1        1.0  0.17771  0.29629  0.50781  1.0000
  N   N2        1.0  0.82229  0.70371  0.49219  1.0000
  N   N3        1.0  0.08071  0.23009  0.13898  1.0000
  N   N4        1.0  0.91929  0.76991  0.86102  1.0000
  N   N5        1.0  0.23072  0.50263  0.37686  1.0000
  N   N6        1.0  0.76928  0.49737  0.62314  1.0000
  O   O1        1.0  0.89948  0.06598  0.27455  1.0000
  O   O2        1.0  0.10052  0.93401  0.72545  1.0000
  O   O3        1.0  0.87870  0.27473  0.30663  1.0000
  O   O4        1.0  0.12130  0.72526  0.69336  1.0000
  O   O5        1.0  0.39220  0.27816  0.31563  1.0000
  O   O6        1.0  0.60780  0.72184  0.68436  1.0000
  O   O7        1.0  0.21710  0.07459  0.29766  1.0000
  O   O8        1.0  0.78289  0.92541  0.70234  1.0000
