data_image0
_chemical_formula_structural       Cu8H64C48I8N16
_chemical_formula_sum              "Cu8 H64 C48 I8 N16"
_cell_length_a       9.75857
_cell_length_b       12.6079
_cell_length_c       13.3404
_cell_angle_alpha    89.9995
_cell_angle_beta     102.603
_cell_angle_gamma    89.9996

_space_group_name_H-M_alt    "P 1"
_space_group_IT_number       1

loop_
  _space_group_symop_operation_xyz
  'x, y, z'

loop_
  _atom_site_type_symbol
  _atom_site_label
  _atom_site_symmetry_multiplicity
  _atom_site_fract_x
  _atom_site_fract_y
  _atom_site_fract_z
  _atom_site_occupancy
  Cu  Cu1       1.0  0.78059  0.19108  0.58164  1.0000
  Cu  Cu2       1.0  0.71941  0.69108  0.91837  1.0000
  Cu  Cu3       1.0  0.21941  0.80892  0.41836  1.0000
  Cu  Cu4       1.0  0.28059  0.30892  0.08163  1.0000
  Cu  Cu5       1.0  0.88855  0.98622  0.54724  1.0000
  Cu  Cu6       1.0  0.61146  0.48622  0.95275  1.0000
  Cu  Cu7       1.0  0.11145  0.01378  0.45275  1.0000
  Cu  Cu8       1.0  0.38855  0.51379  0.04724  1.0000
  H   H1        1.0  0.16165  0.44676  0.75145  1.0000
  H   H2        1.0  0.33836  0.94676  0.74855  1.0000
  H   H3        1.0  0.83835  0.55324  0.24856  1.0000
  H   H4        1.0  0.66164  0.05324  0.25145  1.0000
  H   H5        1.0  0.02826  0.27396  0.72428  1.0000
  H   H6        1.0  0.47175  0.77396  0.77571  1.0000
  H   H7        1.0  0.97174  0.72604  0.27572  1.0000
  H   H8        1.0  0.52825  0.22604  0.22428  1.0000
  H   H9        1.0  0.70088  0.43058  0.40421  1.0000
  H   H10       1.0  0.79912  0.93058  0.09580  1.0000
  H   H11       1.0  0.29912  0.56942  0.59579  1.0000
  H   H12       1.0  0.20088  0.06942  0.90421  1.0000
  H   H13       1.0  0.60534  0.47841  0.49288  1.0000
  H   H14       1.0  0.89465  0.97841  0.00713  1.0000
  H   H15       1.0  0.39465  0.52159  0.50712  1.0000
  H   H16       1.0  0.10535  0.02159  0.99287  1.0000
  H   H17       1.0  0.63260  0.33910  0.48170  1.0000
  H   H18       1.0  0.86739  0.83910  0.01831  1.0000
  H   H19       1.0  0.36740  0.66090  0.51831  1.0000
  H   H20       1.0  0.13261  0.16090  0.98169  1.0000
  H   H21       1.0  0.89501  0.68796  0.54533  1.0000
  H   H22       1.0  0.60499  0.18796  0.95467  1.0000
  H   H23       1.0  0.10499  0.31204  0.45467  1.0000
  H   H24       1.0  0.39501  0.81204  0.04533  1.0000
  H   H25       1.0  0.72747  0.64514  0.56296  1.0000
  H   H26       1.0  0.77252  0.14515  0.93704  1.0000
  H   H27       1.0  0.27252  0.35486  0.43704  1.0000
  H   H28       1.0  0.22748  0.85486  0.06296  1.0000
  H   H29       1.0  0.78162  0.61150  0.44849  1.0000
  H   H30       1.0  0.71837  0.11151  0.05151  1.0000
  H   H31       1.0  0.21838  0.38849  0.55151  1.0000
  H   H32       1.0  0.28163  0.88849  0.94849  1.0000
  H   H33       1.0  0.33618  0.05249  0.34697  1.0000
  H   H34       1.0  0.16383  0.55249  0.15304  1.0000
  H   H35       1.0  0.66382  0.94750  0.65304  1.0000
  H   H36       1.0  0.83618  0.44751  0.84696  1.0000
  H   H37       1.0  0.58889  0.11109  0.39526  1.0000
  H   H38       1.0  0.91112  0.61109  0.10475  1.0000
  H   H39       1.0  0.41111  0.88891  0.60474  1.0000
  H   H40       1.0  0.08889  0.38891  0.89525  1.0000
  H   H41       1.0  0.48276  0.31667  0.70272  1.0000
  H   H42       1.0  0.01724  0.81667  0.79728  1.0000
  H   H43       1.0  0.51725  0.68333  0.29728  1.0000
  H   H44       1.0  0.98276  0.18333  0.20272  1.0000
  H   H45       1.0  0.65189  0.25948  0.71040  1.0000
  H   H46       1.0  0.84811  0.75948  0.78960  1.0000
  H   H47       1.0  0.34812  0.74051  0.28960  1.0000
  H   H48       1.0  0.15189  0.24052  0.21040  1.0000
  H   H49       1.0  0.52458  0.19478  0.76749  1.0000
  H   H50       1.0  0.97541  0.69478  0.73252  1.0000
  H   H51       1.0  0.47542  0.80521  0.23251  1.0000
  H   H52       1.0  0.02459  0.30522  0.26748  1.0000
  H   H53       1.0  0.29896  0.12555  0.72716  1.0000
  H   H54       1.0  0.20102  0.62555  0.77283  1.0000
  H   H55       1.0  0.70103  0.87446  0.27283  1.0000
  H   H56       1.0  0.79898  0.37446  0.22716  1.0000
  H   H57       1.0  0.14836  0.12790  0.62222  1.0000
  H   H58       1.0  0.35163  0.62790  0.87777  1.0000
  H   H59       1.0  0.85164  0.87211  0.37777  1.0000
  H   H60       1.0  0.64837  0.37211  0.12223  1.0000
  H   H61       1.0  0.24238  0.24643  0.66749  1.0000
  H   H62       1.0  0.25761  0.74643  0.83251  1.0000
  H   H63       1.0  0.75762  0.75358  0.33251  1.0000
  H   H64       1.0  0.74238  0.25358  0.16749  1.0000
  C   C1        1.0  0.81299  0.42490  0.56111  1.0000
  C   C2        1.0  0.68700  0.92490  0.93889  1.0000
  C   C3        1.0  0.18700  0.57510  0.43889  1.0000
  C   C4        1.0  0.31300  0.07510  0.06111  1.0000
  C   C5        1.0  0.88323  0.52341  0.58229  1.0000
  C   C6        1.0  0.61677  0.02341  0.91771  1.0000
  C   C7        1.0  0.11676  0.47659  0.41771  1.0000
  C   C8        1.0  0.38323  0.97659  0.08229  1.0000
  C   C9        1.0  0.05969  0.44163  0.69768  1.0000
  C   C10       1.0  0.44031  0.94162  0.80231  1.0000
  C   C11       1.0  0.94031  0.55837  0.30232  1.0000
  C   C12       1.0  0.55969  0.05837  0.19769  1.0000
  C   C13       1.0  0.98899  0.34581  0.68206  1.0000
  C   C14       1.0  0.51101  0.84581  0.81794  1.0000
  C   C15       1.0  0.01100  0.65419  0.31794  1.0000
  C   C16       1.0  0.48899  0.15419  0.18206  1.0000
  C   C17       1.0  0.68060  0.41741  0.48122  1.0000
  C   C18       1.0  0.81939  0.91742  0.01879  1.0000
  C   C19       1.0  0.31939  0.58259  0.51878  1.0000
  C   C20       1.0  0.18061  0.08259  0.98121  1.0000
  C   C21       1.0  0.81896  0.62276  0.53155  1.0000
  C   C22       1.0  0.68103  0.12276  0.96845  1.0000
  C   C23       1.0  0.18103  0.37724  0.46845  1.0000
  C   C24       1.0  0.31896  0.87724  0.03155  1.0000
  C   C25       1.0  0.48606  0.18308  0.60358  1.0000
  C   C26       1.0  0.01394  0.68309  0.89642  1.0000
  C   C27       1.0  0.51394  0.81691  0.39642  1.0000
  C   C28       1.0  0.98607  0.31692  0.10358  1.0000
  C   C29       1.0  0.34568  0.14619  0.57826  1.0000
  C   C30       1.0  0.15432  0.64621  0.92174  1.0000
  C   C31       1.0  0.65432  0.85380  0.42174  1.0000
  C   C32       1.0  0.84568  0.35380  0.07826  1.0000
  C   C33       1.0  0.38016  0.08940  0.42104  1.0000
  C   C34       1.0  0.11985  0.58940  0.07896  1.0000
  C   C35       1.0  0.61984  0.91059  0.57896  1.0000
  C   C36       1.0  0.88016  0.41059  0.92103  1.0000
  C   C37       1.0  0.51806  0.12193  0.44715  1.0000
  C   C38       1.0  0.98194  0.62194  0.05286  1.0000
  C   C39       1.0  0.48194  0.87806  0.55285  1.0000
  C   C40       1.0  0.01807  0.37806  0.94714  1.0000
  C   C41       1.0  0.53995  0.24152  0.70130  1.0000
  C   C42       1.0  0.96005  0.74153  0.79871  1.0000
  C   C43       1.0  0.46005  0.75847  0.29870  1.0000
  C   C44       1.0  0.03996  0.25847  0.20129  1.0000
  C   C45       1.0  0.25287  0.16141  0.65222  1.0000
  C   C46       1.0  0.24712  0.66142  0.84778  1.0000
  C   C47       1.0  0.74713  0.83859  0.34778  1.0000
  C   C48       1.0  0.75288  0.33859  0.15221  1.0000
  I   I1        1.0  0.88802  0.14140  0.41584  1.0000
  I   I2        1.0  0.61198  0.64140  0.08417  1.0000
  I   I3        1.0  0.11198  0.85861  0.58416  1.0000
  I   I4        1.0  0.38803  0.35861  0.91584  1.0000
  I   I5        1.0  0.89968  0.06844  0.73736  1.0000
  I   I6        1.0  0.60032  0.56845  0.76264  1.0000
  I   I7        1.0  0.10032  0.93156  0.26264  1.0000
  I   I8        1.0  0.39969  0.43155  0.23736  1.0000
  N   N1        1.0  0.86641  0.33652  0.61240  1.0000
  N   N2        1.0  0.63360  0.83652  0.88761  1.0000
  N   N3        1.0  0.13359  0.66348  0.38761  1.0000
  N   N4        1.0  0.36641  0.16348  0.11239  1.0000
  N   N5        1.0  0.00751  0.53076  0.64870  1.0000
  N   N6        1.0  0.49248  0.03076  0.85130  1.0000
  N   N7        1.0  0.99248  0.46924  0.35131  1.0000
  N   N8        1.0  0.50751  0.96924  0.14870  1.0000
  N   N9        1.0  0.57394  0.16604  0.53944  1.0000
  N   N10       1.0  0.92607  0.66604  0.96056  1.0000
  N   N11       1.0  0.42607  0.83395  0.46056  1.0000
  N   N12       1.0  0.07394  0.33396  0.03944  1.0000
  N   N13       1.0  0.29381  0.09727  0.48755  1.0000
  N   N14       1.0  0.20618  0.59727  0.01245  1.0000
  N   N15       1.0  0.70619  0.90273  0.51245  1.0000
  N   N16       1.0  0.79382  0.40273  0.98755  1.0000
