data_image0
_chemical_formula_structural       Cu8H32C24I8N8
_chemical_formula_sum              "Cu8 H32 C24 I8 N8"
_cell_length_a       4.27606
_cell_length_b       12.6848
_cell_length_c       17.6828
_cell_angle_alpha    90.0001
_cell_angle_beta     89.9997
_cell_angle_gamma    91.1657

_space_group_name_H-M_alt    "P 1"
_space_group_IT_number       1

loop_
  _space_group_symop_operation_xyz
  'x, y, z'

loop_
  _atom_site_type_symbol
  _atom_site_label
  _atom_site_symmetry_multiplicity
  _atom_site_fract_x
  _atom_site_fract_y
  _atom_site_fract_z
  _atom_site_occupancy
  Cu  Cu1       1.0  0.85221  0.29287  0.55815  1.0000
  Cu  Cu2       1.0  0.64779  0.20714  0.05815  1.0000
  Cu  Cu3       1.0  0.14778  0.70713  0.44185  1.0000
  Cu  Cu4       1.0  0.35221  0.79287  0.94185  1.0000
  Cu  Cu5       1.0  0.52711  0.23387  0.67525  1.0000
  Cu  Cu6       1.0  0.97290  0.26613  0.17525  1.0000
  Cu  Cu7       1.0  0.47290  0.76613  0.32475  1.0000
  Cu  Cu8       1.0  0.02710  0.73387  0.82475  1.0000
  H   H1        1.0  0.24791  0.39617  0.29800  1.0000
  H   H2        1.0  0.25210  0.10383  0.79800  1.0000
  H   H3        1.0  0.75208  0.60383  0.70200  1.0000
  H   H4        1.0  0.74791  0.89617  0.20200  1.0000
  H   H5        1.0  0.18812  0.40883  0.43861  1.0000
  H   H6        1.0  0.31188  0.09118  0.93861  1.0000
  H   H7        1.0  0.81187  0.59117  0.56139  1.0000
  H   H8        1.0  0.68812  0.90883  0.06140  1.0000
  H   H9        1.0  0.65692  0.04986  0.45671  1.0000
  H   H10       1.0  0.84307  0.45014  0.95671  1.0000
  H   H11       1.0  0.34307  0.95014  0.54328  1.0000
  H   H12       1.0  0.15693  0.54986  0.04328  1.0000
  H   H13       1.0  0.31382  0.10481  0.41965  1.0000
  H   H14       1.0  0.18618  0.39520  0.91965  1.0000
  H   H15       1.0  0.68617  0.89519  0.58035  1.0000
  H   H16       1.0  0.81382  0.60481  0.08035  1.0000
  H   H17       1.0  0.47804  0.15581  0.50527  1.0000
  H   H18       1.0  0.02196  0.34419  0.00527  1.0000
  H   H19       1.0  0.52195  0.84419  0.49473  1.0000
  H   H20       1.0  0.97805  0.65581  0.99473  1.0000
  H   H21       1.0  0.42332  0.14668  0.24614  1.0000
  H   H22       1.0  0.07668  0.35333  0.74614  1.0000
  H   H23       1.0  0.57668  0.85333  0.75386  1.0000
  H   H24       1.0  0.92332  0.64667  0.25386  1.0000
  H   H25       1.0  0.49716  0.04805  0.31518  1.0000
  H   H26       1.0  0.00284  0.45195  0.81518  1.0000
  H   H27       1.0  0.50283  0.95195  0.68481  1.0000
  H   H28       1.0  0.99716  0.54805  0.18482  1.0000
  H   H29       1.0  0.77133  0.07575  0.24135  1.0000
  H   H30       1.0  0.72867  0.42425  0.74135  1.0000
  H   H31       1.0  0.22867  0.92426  0.75864  1.0000
  H   H32       1.0  0.27133  0.57574  0.25865  1.0000
  C   C1        1.0  0.73244  0.20111  0.40609  1.0000
  C   C2        1.0  0.76756  0.29888  0.90609  1.0000
  C   C3        1.0  0.26755  0.79889  0.59391  1.0000
  C   C4        1.0  0.23244  0.70111  0.09391  1.0000
  C   C5        1.0  0.76884  0.19333  0.32693  1.0000
  C   C6        1.0  0.73117  0.30667  0.82693  1.0000
  C   C7        1.0  0.23117  0.80667  0.67307  1.0000
  C   C8        1.0  0.26883  0.69332  0.17307  1.0000
  C   C9        1.0  0.09925  0.34018  0.32896  1.0000
  C   C10       1.0  0.40075  0.15983  0.82896  1.0000
  C   C11       1.0  0.90074  0.65983  0.67104  1.0000
  C   C12       1.0  0.59925  0.84017  0.17104  1.0000
  C   C13       1.0  0.06564  0.34727  0.40654  1.0000
  C   C14       1.0  0.43437  0.15273  0.90654  1.0000
  C   C15       1.0  0.93435  0.65273  0.59346  1.0000
  C   C16       1.0  0.56564  0.84727  0.09346  1.0000
  C   C17       1.0  0.53282  0.12437  0.44913  1.0000
  C   C18       1.0  0.96719  0.37563  0.94913  1.0000
  C   C19       1.0  0.46718  0.87563  0.55086  1.0000
  C   C20       1.0  0.03281  0.62436  0.05087  1.0000
  C   C21       1.0  0.60573  0.11072  0.28116  1.0000
  C   C22       1.0  0.89427  0.38928  0.78116  1.0000
  C   C23       1.0  0.39427  0.88928  0.71884  1.0000
  C   C24       1.0  0.10573  0.61072  0.21884  1.0000
  I   I1        1.0  0.00504  0.12011  0.63474  1.0000
  I   I2        1.0  0.49497  0.37989  0.13474  1.0000
  I   I3        1.0  0.99496  0.87989  0.36526  1.0000
  I   I4        1.0  0.50504  0.62011  0.86526  1.0000
  I   I5        1.0  0.37959  0.40673  0.59922  1.0000
  I   I6        1.0  0.12041  0.09327  0.09922  1.0000
  I   I7        1.0  0.62040  0.59326  0.40078  1.0000
  I   I8        1.0  0.87960  0.90674  0.90078  1.0000
  N   N1        1.0  0.88431  0.27808  0.44567  1.0000
  N   N2        1.0  0.61570  0.22192  0.94567  1.0000
  N   N3        1.0  0.11568  0.72192  0.55433  1.0000
  N   N4        1.0  0.38430  0.77808  0.05434  1.0000
  N   N5        1.0  0.95261  0.26363  0.28863  1.0000
  N   N6        1.0  0.54740  0.23638  0.78863  1.0000
  N   N7        1.0  0.04738  0.73637  0.71136  1.0000
  N   N8        1.0  0.45260  0.76362  0.21137  1.0000
