data_image0
_chemical_formula_structural       Cd2H40C36N16O8
_chemical_formula_sum              "Cd2 H40 C36 N16 O8"
_cell_length_a       8.61381
_cell_length_b       9.8328
_cell_length_c       12.5318
_cell_angle_alpha    89.9999
_cell_angle_beta     90.0003
_cell_angle_gamma    94.3561

_space_group_name_H-M_alt    "P 1"
_space_group_IT_number       1

loop_
  _space_group_symop_operation_xyz
  'x, y, z'

loop_
  _atom_site_type_symbol
  _atom_site_label
  _atom_site_symmetry_multiplicity
  _atom_site_fract_x
  _atom_site_fract_y
  _atom_site_fract_z
  _atom_site_occupancy
  Cd  Cd1       1.0  0.41544  0.25291  0.52475  1.0000
  Cd  Cd2       1.0  0.58456  0.74709  0.02475  1.0000
  H   H1        1.0  0.49683  0.55751  0.40360  1.0000
  H   H2        1.0  0.50317  0.44250  0.90361  1.0000
  H   H3        1.0  0.62485  0.79320  0.44836  1.0000
  H   H4        1.0  0.37516  0.20680  0.94836  1.0000
  H   H5        1.0  0.65545  0.00884  0.58815  1.0000
  H   H6        1.0  0.34455  0.99116  0.08815  1.0000
  H   H7        1.0  0.96316  0.99732  0.52640  1.0000
  H   H8        1.0  0.03684  0.00268  0.02640  1.0000
  H   H9        1.0  0.65656  0.35271  0.30504  1.0000
  H   H10       1.0  0.34344  0.64729  0.80504  1.0000
  H   H11       1.0  0.86428  0.35627  0.28646  1.0000
  H   H12       1.0  0.13572  0.64373  0.78646  1.0000
  H   H13       1.0  0.78462  0.45358  0.38881  1.0000
  H   H14       1.0  0.21538  0.54642  0.88881  1.0000
  H   H15       1.0  0.25536  0.97238  0.67597  1.0000
  H   H16       1.0  0.74464  0.02762  0.17597  1.0000
  H   H17       1.0  0.19802  0.71448  0.58760  1.0000
  H   H18       1.0  0.80198  0.28552  0.08759  1.0000
  H   H19       1.0  0.41434  0.91893  0.26954  1.0000
  H   H20       1.0  0.58565  0.08106  0.76954  1.0000
  H   H21       1.0  0.46909  0.08426  0.32354  1.0000
  H   H22       1.0  0.53090  0.91573  0.82354  1.0000
  H   H23       1.0  0.27819  0.04681  0.27379  1.0000
  H   H24       1.0  0.72180  0.95318  0.77378  1.0000
  H   H25       1.0  0.18460  0.48976  0.44836  1.0000
  H   H26       1.0  0.81539  0.51024  0.94835  1.0000
  H   H27       1.0  0.93305  0.58068  0.56088  1.0000
  H   H28       1.0  0.06695  0.41932  0.06087  1.0000
  H   H29       1.0  0.04701  0.13112  0.73343  1.0000
  H   H30       1.0  0.95299  0.86888  0.23343  1.0000
  H   H31       1.0  0.08014  0.26252  0.82960  1.0000
  H   H32       1.0  0.91987  0.73748  0.32960  1.0000
  H   H33       1.0  0.24064  0.20274  0.75855  1.0000
  H   H34       1.0  0.75937  0.79726  0.25855  1.0000
  H   H35       1.0  0.01166  0.19913  0.39218  1.0000
  H   H36       1.0  0.98834  0.80087  0.89218  1.0000
  H   H37       1.0  0.27279  0.74488  0.38823  1.0000
  H   H38       1.0  0.72721  0.25512  0.88823  1.0000
  H   H39       1.0  0.90123  0.42167  0.72273  1.0000
  H   H40       1.0  0.09878  0.57833  0.22273  1.0000
  C   C1        1.0  0.55094  0.58111  0.48046  1.0000
  C   C2        1.0  0.44907  0.41889  0.98046  1.0000
  C   C3        1.0  0.61926  0.71007  0.50636  1.0000
  C   C4        1.0  0.38075  0.28993  0.00637  1.0000
  C   C5        1.0  0.67316  0.63576  0.67479  1.0000
  C   C6        1.0  0.32684  0.36424  0.17479  1.0000
  C   C7        1.0  0.61195  0.50298  0.64783  1.0000
  C   C8        1.0  0.38805  0.49702  0.14783  1.0000
  C   C9        1.0  0.72469  0.67687  0.78640  1.0000
  C   C10       1.0  0.27531  0.32313  0.28640  1.0000
  C   C11       1.0  0.61426  0.38112  0.72252  1.0000
  C   C12       1.0  0.38574  0.61889  0.22252  1.0000
  C   C13       1.0  0.72417  0.07414  0.53356  1.0000
  C   C14       1.0  0.27582  0.92586  0.03356  1.0000
  C   C15       1.0  0.87663  0.06622  0.50323  1.0000
  C   C16       1.0  0.12336  0.93378  0.00323  1.0000
  C   C17       1.0  0.77744  0.23860  0.41880  1.0000
  C   C18       1.0  0.22256  0.76140  0.91881  1.0000
  C   C19       1.0  0.76999  0.35647  0.34513  1.0000
  C   C20       1.0  0.23001  0.64353  0.84513  1.0000
  C   C21       1.0  0.26796  0.93913  0.59422  1.0000
  C   C22       1.0  0.73204  0.06088  0.09422  1.0000
  C   C23       1.0  0.23866  0.81091  0.55193  1.0000
  C   C24       1.0  0.76133  0.18908  0.05193  1.0000
  C   C25       1.0  0.32494  0.95441  0.42411  1.0000
  C   C26       1.0  0.67506  0.04559  0.92411  1.0000
  C   C27       1.0  0.37451  0.00371  0.31661  1.0000
  C   C28       1.0  0.62549  0.99629  0.81661  1.0000
  C   C29       1.0  0.13335  0.45491  0.52344  1.0000
  C   C30       1.0  0.86665  0.54509  0.02344  1.0000
  C   C31       1.0  0.00793  0.49958  0.57718  1.0000
  C   C32       1.0  0.99206  0.50043  0.07718  1.0000
  C   C33       1.0  0.10286  0.33017  0.66762  1.0000
  C   C34       1.0  0.89714  0.66984  0.16762  1.0000
  C   C35       1.0  0.11843  0.22577  0.75194  1.0000
  C   C36       1.0  0.88157  0.77423  0.25193  1.0000
  N   N1        1.0  0.54905  0.47916  0.55123  1.0000
  N   N2        1.0  0.45095  0.52084  0.05123  1.0000
  N   N3        1.0  0.67881  0.73781  0.60319  1.0000
  N   N4        1.0  0.32119  0.26219  0.10319  1.0000
  N   N5        1.0  0.66326  0.18189  0.48100  1.0000
  N   N6        1.0  0.33674  0.81811  0.98100  1.0000
  N   N7        1.0  0.90755  0.17045  0.43104  1.0000
  N   N8        1.0  0.09244  0.82955  0.93104  1.0000
  N   N9        1.0  0.32147  0.02781  0.51420  1.0000
  N   N10       1.0  0.67853  0.97219  0.01420  1.0000
  N   N11       1.0  0.27452  0.82280  0.44483  1.0000
  N   N12       1.0  0.72548  0.17719  0.94483  1.0000
  N   N13       1.0  0.19175  0.34982  0.58054  1.0000
  N   N14       1.0  0.80825  0.65018  0.08054  1.0000
  N   N15       1.0  0.99105  0.42021  0.66775  1.0000
  N   N16       1.0  0.00896  0.57979  0.16774  1.0000
  O   O1        1.0  0.50970  0.28507  0.71167  1.0000
  O   O2        1.0  0.49030  0.71493  0.21167  1.0000
  O   O3        1.0  0.72444  0.38545  0.79120  1.0000
  O   O4        1.0  0.27557  0.61455  0.29120  1.0000
  O   O5        1.0  0.61401  0.66323  0.85400  1.0000
  O   O6        1.0  0.38598  0.33677  0.35400  1.0000
  O   O7        1.0  0.86232  0.72487  0.79933  1.0000
  O   O8        1.0  0.13768  0.27513  0.29933  1.0000
