data_image0
_chemical_formula_structural       Bi2H16C20Br6N4
_chemical_formula_sum              "Bi2 H16 C20 Br6 N4"
_cell_length_a       7.26644
_cell_length_b       10.1423
_cell_length_c       10.3029
_cell_angle_alpha    117
_cell_angle_beta     91.0221
_cell_angle_gamma    92.9087

_space_group_name_H-M_alt    "P 1"
_space_group_IT_number       1

loop_
  _space_group_symop_operation_xyz
  'x, y, z'

loop_
  _atom_site_type_symbol
  _atom_site_label
  _atom_site_symmetry_multiplicity
  _atom_site_fract_x
  _atom_site_fract_y
  _atom_site_fract_z
  _atom_site_occupancy
  Bi  Bi1       1.0  0.95540  0.39772  0.26029  1.0000
  Bi  Bi2       1.0  0.04461  0.60227  0.73966  1.0000
  H   H1        1.0  0.60074  0.73487  0.32839  1.0000
  H   H2        1.0  0.39926  0.26514  0.67163  1.0000
  H   H3        1.0  0.32066  0.02068  0.14197  1.0000
  H   H4        1.0  0.67934  0.97934  0.85805  1.0000
  H   H5        1.0  0.53523  0.21547  0.13936  1.0000
  H   H6        1.0  0.46478  0.78456  0.86066  1.0000
  H   H7        1.0  0.12582  0.92400  0.23307  1.0000
  H   H8        1.0  0.87418  0.07599  0.76693  1.0000
  H   H9        1.0  0.73006  0.95460  0.41482  1.0000
  H   H10       1.0  0.26995  0.04541  0.58518  1.0000
  H   H11       1.0  0.93421  0.71284  0.22827  1.0000
  H   H12       1.0  0.06579  0.28715  0.77170  1.0000
  H   H13       1.0  0.92953  0.15311  0.39915  1.0000
  H   H14       1.0  0.07047  0.84689  0.60086  1.0000
  H   H15       1.0  0.38905  0.53669  0.32597  1.0000
  H   H16       1.0  0.61095  0.46331  0.67404  1.0000
  C   C1        1.0  0.45385  0.73869  0.30977  1.0000
  C   C2        1.0  0.54615  0.26131  0.69024  1.0000
  C   C3        1.0  0.50607  0.96838  0.27891  1.0000
  C   C4        1.0  0.49393  0.03164  0.72111  1.0000
  C   C5        1.0  0.45355  0.04476  0.20147  1.0000
  C   C6        1.0  0.54646  0.95525  0.79855  1.0000
  C   C7        1.0  0.38277  0.85046  0.28338  1.0000
  C   C8        1.0  0.61724  0.14954  0.71663  1.0000
  C   C9        1.0  0.57384  0.15432  0.19862  1.0000
  C   C10       1.0  0.42616  0.84569  0.80140  1.0000
  C   C11       1.0  0.19126  0.84279  0.25690  1.0000
  C   C12       1.0  0.80874  0.15722  0.74310  1.0000
  C   C13       1.0  0.68144  0.00762  0.35061  1.0000
  C   C14       1.0  0.31857  0.99239  0.64940  1.0000
  C   C15       1.0  0.08210  0.72560  0.25508  1.0000
  C   C16       1.0  0.91790  0.27440  0.74492  1.0000
  C   C17       1.0  0.79366  0.11838  0.34287  1.0000
  C   C18       1.0  0.20635  0.88163  0.65715  1.0000
  C   C19       1.0  0.33588  0.62537  0.30707  1.0000
  C   C20       1.0  0.66412  0.37463  0.69293  1.0000
  Br  Br1       1.0  0.77567  0.62914  0.52340  1.0000
  Br  Br2       1.0  0.22430  0.37081  0.47654  1.0000
  Br  Br3       1.0  0.70196  0.44092  0.08942  1.0000
  Br  Br4       1.0  0.29797  0.55906  0.91056  1.0000
  Br  Br5       1.0  0.14899  0.20581  0.03188  1.0000
  Br  Br6       1.0  0.85102  0.79415  0.96807  1.0000
  N   N1        1.0  0.74100  0.19063  0.26783  1.0000
  N   N2        1.0  0.25901  0.80939  0.73218  1.0000
  N   N3        1.0  0.15325  0.61871  0.27982  1.0000
  N   N4        1.0  0.84675  0.38129  0.72017  1.0000
