data_image0
_chemical_formula_structural       Bi2H16C20I6N4
_chemical_formula_sum              "Bi2 H16 C20 I6 N4"
_cell_length_a       7.51231
_cell_length_b       10.3069
_cell_length_c       10.8493
_cell_angle_alpha    117.448
_cell_angle_beta     90.533
_cell_angle_gamma    95.1356

_space_group_name_H-M_alt    "P 1"
_space_group_IT_number       1

loop_
  _space_group_symop_operation_xyz
  'x, y, z'

loop_
  _atom_site_type_symbol
  _atom_site_label
  _atom_site_symmetry_multiplicity
  _atom_site_fract_x
  _atom_site_fract_y
  _atom_site_fract_z
  _atom_site_occupancy
  Bi  Bi1       1.0  0.45175  0.39883  0.26042  1.0000
  Bi  Bi2       1.0  0.54828  0.60117  0.73958  1.0000
  H   H1        1.0  0.08734  0.74190  0.32254  1.0000
  H   H2        1.0  0.91267  0.25809  0.67746  1.0000
  H   H3        1.0  0.87723  0.54280  0.31989  1.0000
  H   H4        1.0  0.12277  0.45717  0.68009  1.0000
  H   H5        1.0  0.62969  0.93344  0.25377  1.0000
  H   H6        1.0  0.37030  0.06657  0.74624  1.0000
  H   H7        1.0  0.43780  0.72244  0.24982  1.0000
  H   H8        1.0  0.56222  0.27753  0.75014  1.0000
  H   H9        1.0  0.82742  0.00952  0.14141  1.0000
  H   H10       1.0  0.17257  0.99051  0.85863  1.0000
  H   H11       1.0  0.04215  0.20145  0.13369  1.0000
  H   H12       1.0  0.95779  0.79859  0.86637  1.0000
  H   H13       1.0  0.41345  0.16587  0.39934  1.0000
  H   H14       1.0  0.58654  0.83414  0.60065  1.0000
  H   H15       1.0  0.21324  0.97219  0.42005  1.0000
  H   H16       1.0  0.78678  0.02781  0.57993  1.0000
  C   C1        1.0  0.94438  0.74595  0.31023  1.0000
  C   C2        1.0  0.05562  0.25404  0.68976  1.0000
  C   C3        1.0  0.82716  0.63238  0.30732  1.0000
  C   C4        1.0  0.17283  0.36760  0.69266  1.0000
  C   C5        1.0  0.69113  0.85102  0.27113  1.0000
  C   C6        1.0  0.30887  0.14896  0.72886  1.0000
  C   C7        1.0  0.87764  0.85761  0.28990  1.0000
  C   C8        1.0  0.12236  0.14237  0.71009  1.0000
  C   C9        1.0  0.58242  0.73407  0.26984  1.0000
  C   C10       1.0  0.41760  0.26591  0.73014  1.0000
  C   C11       1.0  0.00075  0.97315  0.28252  1.0000
  C   C12       1.0  0.99925  0.02686  0.71748  1.0000
  C   C13       1.0  0.95503  0.04003  0.20143  1.0000
  C   C14       1.0  0.04494  0.96000  0.79858  1.0000
  C   C15       1.0  0.07559  0.14722  0.19549  1.0000
  C   C16       1.0  0.92437  0.85282  0.80454  1.0000
  C   C17       1.0  0.28231  0.12675  0.34333  1.0000
  C   C18       1.0  0.71770  0.87326  0.65668  1.0000
  C   C19       1.0  0.16979  0.01841  0.35394  1.0000
  C   C20       1.0  0.83024  0.98160  0.64606  1.0000
  I   I1        1.0  0.26219  0.63152  0.52635  1.0000
  I   I2        1.0  0.73784  0.36845  0.47365  1.0000
  I   I3        1.0  0.19433  0.44001  0.08125  1.0000
  I   I4        1.0  0.80567  0.55999  0.91875  1.0000
  I   I5        1.0  0.65031  0.20222  0.02375  1.0000
  I   I6        1.0  0.34969  0.79775  0.97626  1.0000
  N   N1        1.0  0.64918  0.62621  0.28705  1.0000
  N   N2        1.0  0.35084  0.37380  0.71293  1.0000
  N   N3        1.0  0.23633  0.19053  0.26540  1.0000
  N   N4        1.0  0.76365  0.80949  0.73462  1.0000
