data_image0
_chemical_formula_structural       Zn2H16C16S8N12O8
_chemical_formula_sum              "Zn2 H16 C16 S8 N12 O8"
_cell_length_a       8.23722
_cell_length_b       8.86015
_cell_length_c       12.3059
_cell_angle_alpha    86.3907
_cell_angle_beta     69.5124
_cell_angle_gamma    66.8071

_space_group_name_H-M_alt    "P 1"
_space_group_IT_number       1

loop_
  _space_group_symop_operation_xyz
  'x, y, z'

loop_
  _atom_site_type_symbol
  _atom_site_label
  _atom_site_symmetry_multiplicity
  _atom_site_fract_x
  _atom_site_fract_y
  _atom_site_fract_z
  _atom_site_occupancy
  Zn  Zn1       1.0  0.10299  0.19918  0.21680  1.0000
  Zn  Zn2       1.0  0.89701  0.80082  0.78320  1.0000
  H   H1        1.0  0.67101  0.06438  0.52169  1.0000
  H   H2        1.0  0.32899  0.93562  0.47831  1.0000
  H   H3        1.0  0.89794  0.92697  0.51180  1.0000
  H   H4        1.0  0.10206  0.07303  0.48820  1.0000
  H   H5        1.0  0.49362  0.68353  0.24768  1.0000
  H   H6        1.0  0.50638  0.31647  0.75232  1.0000
  H   H7        1.0  0.69377  0.72624  0.17388  1.0000
  H   H8        1.0  0.30623  0.27376  0.82612  1.0000
  H   H9        1.0  0.45585  0.20285  0.25387  1.0000
  H   H10       1.0  0.54415  0.79715  0.74613  1.0000
  H   H11       1.0  0.52662  0.35644  0.27584  1.0000
  H   H12       1.0  0.47338  0.64356  0.72416  1.0000
  H   H13       1.0  0.25134  0.99370  0.99816  1.0000
  H   H14       1.0  0.74866  0.00630  0.00184  1.0000
  H   H15       1.0  0.19337  0.00879  0.86892  1.0000
  H   H16       1.0  0.80663  0.99121  0.13108  1.0000
  C   C1        1.0  0.24763  0.42914  0.29924  1.0000
  C   C2        1.0  0.75236  0.57086  0.70076  1.0000
  C   C3        1.0  0.93207  0.64200  0.38297  1.0000
  C   C4        1.0  0.06792  0.35800  0.61703  1.0000
  C   C5        1.0  0.79903  0.96520  0.46427  1.0000
  C   C6        1.0  0.20097  0.03480  0.53574  1.0000
  C   C7        1.0  0.87842  0.03280  0.34942  1.0000
  C   C8        1.0  0.12158  0.96720  0.65058  1.0000
  C   C9        1.0  0.03135  0.20163  0.99209  1.0000
  C   C10       1.0  0.96865  0.79837  0.00791  1.0000
  C   C11       1.0  0.76610  0.46508  0.03710  1.0000
  C   C12       1.0  0.23390  0.53492  0.96289  1.0000
  C   C13       1.0  0.55448  0.74485  0.17361  1.0000
  C   C14       1.0  0.44552  0.25515  0.82640  1.0000
  C   C15       1.0  0.42773  0.92690  0.19393  1.0000
  C   C16       1.0  0.57227  0.07310  0.80607  1.0000
  S   S1        1.0  0.15865  0.62213  0.37325  1.0000
  S   S2        1.0  0.84135  0.37787  0.62676  1.0000
  S   S3        1.0  0.72133  0.80486  0.45537  1.0000
  S   S4        1.0  0.27867  0.19514  0.54463  1.0000
  S   S5        1.0  0.88287  0.31626  0.91792  1.0000
  S   S6        1.0  0.11713  0.68374  0.08208  1.0000
  S   S7        1.0  0.58002  0.64966  0.03885  1.0000
  S   S8        1.0  0.41998  0.35034  0.96115  1.0000
  N   N1        1.0  0.11100  0.39344  0.28814  1.0000
  N   N2        1.0  0.88899  0.60656  0.71186  1.0000
  N   N3        1.0  0.93328  0.51390  0.33575  1.0000
  N   N4        1.0  0.06672  0.48610  0.66425  1.0000
  N   N5        1.0  0.43172  0.32676  0.25717  1.0000
  N   N6        1.0  0.56827  0.67324  0.74283  1.0000
  N   N7        1.0  0.98435  0.27699  0.09583  1.0000
  N   N8        1.0  0.01565  0.72300  0.90417  1.0000
  N   N9        1.0  0.83291  0.42620  0.12142  1.0000
  N   N10       1.0  0.16709  0.57380  0.87858  1.0000
  N   N11       1.0  0.17450  0.05693  0.94807  1.0000
  N   N12       1.0  0.82550  0.94306  0.05193  1.0000
  O   O1        1.0  0.95847  0.12736  0.36094  1.0000
  O   O2        1.0  0.04153  0.87264  0.63906  1.0000
  O   O3        1.0  0.86418  0.99853  0.25738  1.0000
  O   O4        1.0  0.13582  0.00147  0.74262  1.0000
  O   O5        1.0  0.31597  0.98491  0.13535  1.0000
  O   O6        1.0  0.68403  0.01509  0.86465  1.0000
  O   O7        1.0  0.43261  0.00998  0.27027  1.0000
  O   O8        1.0  0.56740  0.99002  0.72973  1.0000
