data_image0
_chemical_formula_structural       Cu2H52C40N4O12
_chemical_formula_sum              "Cu2 H52 C40 N4 O12"
_cell_length_a       9.70037
_cell_length_b       10.9452
_cell_length_c       11.1158
_cell_angle_alpha    105.772
_cell_angle_beta     96.7541
_cell_angle_gamma    108.296

_space_group_name_H-M_alt    "P 1"
_space_group_IT_number       1

loop_
  _space_group_symop_operation_xyz
  'x, y, z'

loop_
  _atom_site_type_symbol
  _atom_site_label
  _atom_site_symmetry_multiplicity
  _atom_site_fract_x
  _atom_site_fract_y
  _atom_site_fract_z
  _atom_site_occupancy
  Cu  Cu1       1.0  0.78614  0.50530  0.39097  1.0000
  Cu  Cu2       1.0  0.21386  0.49470  0.60903  1.0000
  H   H1        1.0  0.98983  0.27320  0.68747  1.0000
  H   H2        1.0  0.01017  0.72680  0.31253  1.0000
  H   H3        1.0  0.75558  0.32869  0.84015  1.0000
  H   H4        1.0  0.24442  0.67130  0.15985  1.0000
  H   H5        1.0  0.70382  0.42579  0.74973  1.0000
  H   H6        1.0  0.29618  0.57421  0.25027  1.0000
  H   H7        1.0  0.89587  0.45800  0.80802  1.0000
  H   H8        1.0  0.10414  0.54200  0.19198  1.0000
  H   H9        1.0  0.63684  0.08302  0.50170  1.0000
  H   H10       1.0  0.36316  0.91698  0.49830  1.0000
  H   H11       1.0  0.54967  0.20138  0.56045  1.0000
  H   H12       1.0  0.45033  0.79862  0.43954  1.0000
  H   H13       1.0  0.59616  0.10776  0.65677  1.0000
  H   H14       1.0  0.40384  0.89224  0.34323  1.0000
  H   H15       1.0  0.70969  0.58836  0.97400  1.0000
  H   H16       1.0  0.29031  0.41164  0.02600  1.0000
  H   H17       1.0  0.88647  0.69666  0.07785  1.0000
  H   H18       1.0  0.11353  0.30334  0.92215  1.0000
  H   H19       1.0  0.78333  0.76199  0.98443  1.0000
  H   H20       1.0  0.21667  0.23800  0.01557  1.0000
  H   H21       1.0  0.77986  0.94678  0.18456  1.0000
  H   H22       1.0  0.22014  0.05321  0.81544  1.0000
  H   H23       1.0  0.89427  0.89241  0.27957  1.0000
  H   H24       1.0  0.10573  0.10759  0.72042  1.0000
  H   H25       1.0  0.72230  0.89961  0.31672  1.0000
  H   H26       1.0  0.27770  0.10039  0.68327  1.0000
  H   H27       1.0  0.60716  0.50206  0.59130  1.0000
  H   H28       1.0  0.39284  0.49794  0.40870  1.0000
  H   H29       1.0  0.55898  0.66907  0.76337  1.0000
  H   H30       1.0  0.44102  0.33094  0.23663  1.0000
  H   H31       1.0  0.84413  0.98770  0.64646  1.0000
  H   H32       1.0  0.15587  0.01231  0.35354  1.0000
  H   H33       1.0  0.88945  0.80463  0.48343  1.0000
  H   H34       1.0  0.11055  0.19537  0.51657  1.0000
  H   H35       1.0  0.62419  0.01009  0.78406  1.0000
  H   H36       1.0  0.37581  0.98990  0.21593  1.0000
  H   H37       1.0  0.59754  0.90161  0.87848  1.0000
  H   H38       1.0  0.40247  0.09839  0.12152  1.0000
  H   H39       1.0  0.89721  0.10019  0.86739  1.0000
  H   H40       1.0  0.10279  0.89981  0.13261  1.0000
  H   H41       1.0  0.88029  0.98813  0.95743  1.0000
  H   H42       1.0  0.11971  0.01188  0.04258  1.0000
  H   H43       1.0  0.60603  0.16877  0.94268  1.0000
  H   H44       1.0  0.39397  0.83123  0.05732  1.0000
  H   H45       1.0  0.60763  0.35143  0.12694  1.0000
  H   H46       1.0  0.39237  0.64857  0.87306  1.0000
  H   H47       1.0  0.01320  0.17641  0.15832  1.0000
  H   H48       1.0  0.98680  0.82360  0.84169  1.0000
  H   H49       1.0  0.98958  0.35435  0.34104  1.0000
  H   H50       1.0  0.01041  0.64565  0.65897  1.0000
  H   H51       1.0  0.48562  0.64564  0.12539  1.0000
  H   H52       1.0  0.51437  0.35436  0.87461  1.0000
  C   C1        1.0  0.83476  0.34505  0.54880  1.0000
  C   C2        1.0  0.16525  0.65495  0.45121  1.0000
  C   C3        1.0  0.78497  0.27125  0.64604  1.0000
  C   C4        1.0  0.21503  0.72875  0.35396  1.0000
  C   C5        1.0  0.78465  0.37835  0.76826  1.0000
  C   C6        1.0  0.21535  0.62165  0.23174  1.0000
  C   C7        1.0  0.63234  0.15904  0.58754  1.0000
  C   C8        1.0  0.36766  0.84096  0.41245  1.0000
  C   C9        1.0  0.68067  0.62873  0.22425  1.0000
  C   C10       1.0  0.31933  0.37127  0.77575  1.0000
  C   C11       1.0  0.69607  0.72965  0.14809  1.0000
  C   C12       1.0  0.30393  0.27035  0.85191  1.0000
  C   C13       1.0  0.77449  0.69164  0.03974  1.0000
  C   C14       1.0  0.22551  0.30836  0.96026  1.0000
  C   C15       1.0  0.77891  0.87596  0.23833  1.0000
  C   C16       1.0  0.22109  0.12403  0.76167  1.0000
  C   C17       1.0  0.65785  0.61052  0.60680  1.0000
  C   C18       1.0  0.34216  0.38948  0.39320  1.0000
  C   C19       1.0  0.63156  0.70600  0.70335  1.0000
  C   C20       1.0  0.36845  0.29400  0.29665  1.0000
  C   C21       1.0  0.69858  0.84466  0.72134  1.0000
  C   C22       1.0  0.30142  0.15535  0.27866  1.0000
  C   C23       1.0  0.79136  0.88113  0.63909  1.0000
  C   C24       1.0  0.20864  0.11888  0.36091  1.0000
  C   C25       1.0  0.81491  0.78023  0.54644  1.0000
  C   C26       1.0  0.18509  0.21977  0.45356  1.0000
  C   C27       1.0  0.67570  0.95095  0.82693  1.0000
  C   C28       1.0  0.32430  0.04905  0.17307  1.0000
  C   C29       1.0  0.82354  0.04764  0.92059  1.0000
  C   C30       1.0  0.17646  0.95236  0.07941  1.0000
  C   C31       1.0  0.81129  0.15451  0.03248  1.0000
  C   C32       1.0  0.18870  0.84549  0.96752  1.0000
  C   C33       1.0  0.69591  0.20534  0.02710  1.0000
  C   C34       1.0  0.30409  0.79466  0.97290  1.0000
  C   C35       1.0  0.69432  0.30821  0.13219  1.0000
  C   C36       1.0  0.30568  0.69179  0.86781  1.0000
  C   C37       1.0  0.92008  0.21098  0.14707  1.0000
  C   C38       1.0  0.07992  0.78902  0.85293  1.0000
  C   C39       1.0  0.91004  0.31168  0.24930  1.0000
  C   C40       1.0  0.08996  0.68832  0.75070  1.0000
  N   N1        1.0  0.74858  0.64652  0.52963  1.0000
  N   N2        1.0  0.25143  0.35348  0.47037  1.0000
  N   N3        1.0  0.79826  0.35963  0.24235  1.0000
  N   N4        1.0  0.20173  0.64037  0.75765  1.0000
  O   O1        1.0  0.73616  0.37998  0.49333  1.0000
  O   O2        1.0  0.26383  0.62002  0.50667  1.0000
  O   O3        1.0  0.96485  0.36809  0.53304  1.0000
  O   O4        1.0  0.03515  0.63192  0.46696  1.0000
  O   O5        1.0  0.88788  0.20838  0.67594  1.0000
  O   O6        1.0  0.11212  0.79162  0.32405  1.0000
  O   O7        1.0  0.80309  0.62474  0.27905  1.0000
  O   O8        1.0  0.19690  0.37526  0.72095  1.0000
  O   O9        1.0  0.55236  0.55793  0.22748  1.0000
  O   O10       1.0  0.44765  0.44207  0.77252  1.0000
  O   O11       1.0  0.54806  0.71622  0.09457  1.0000
  O   O12       1.0  0.45194  0.28378  0.90543  1.0000
