data_image0
_chemical_formula_structural       Zn2H34C46N6O8
_chemical_formula_sum              "Zn2 H34 C46 N6 O8"
_cell_length_a       7.67586
_cell_length_b       9.79471
_cell_length_c       15.457
_cell_angle_alpha    71.5496
_cell_angle_beta     85.5228
_cell_angle_gamma    75.6921

_space_group_name_H-M_alt    "P 1"
_space_group_IT_number       1

loop_
  _space_group_symop_operation_xyz
  'x, y, z'

loop_
  _atom_site_type_symbol
  _atom_site_label
  _atom_site_symmetry_multiplicity
  _atom_site_fract_x
  _atom_site_fract_y
  _atom_site_fract_z
  _atom_site_occupancy
  Zn  Zn1       1.0  0.82862  0.95202  0.19427  1.0000
  Zn  Zn2       1.0  0.32919  0.14609  0.80576  1.0000
  H   H1        1.0  0.77405  0.52991  0.39697  1.0000
  H   H2        1.0  0.27372  0.92702  0.60307  1.0000
  H   H3        1.0  0.63402  0.32935  0.49771  1.0000
  H   H4        1.0  0.13382  0.82706  0.50229  1.0000
  H   H5        1.0  0.11294  0.59005  0.39235  1.0000
  H   H6        1.0  0.61269  0.98265  0.60747  1.0000
  H   H7        1.0  0.25192  0.79133  0.29589  1.0000
  H   H8        1.0  0.75155  0.08745  0.70407  1.0000
  H   H9        1.0  0.38690  0.23423  0.55333  1.0000
  H   H10       1.0  0.88666  0.78735  0.44672  1.0000
  H   H11       1.0  0.17994  0.36104  0.55384  1.0000
  H   H12       1.0  0.67974  0.91478  0.44603  1.0000
  H   H13       1.0  0.31570  0.05641  0.29924  1.0000
  H   H14       1.0  0.81562  0.35586  0.70073  1.0000
  H   H15       1.0  0.45452  0.16351  0.39412  1.0000
  H   H16       1.0  0.95433  0.55778  0.60585  1.0000
  H   H17       1.0  0.93163  0.33206  0.49248  1.0000
  H   H18       1.0  0.43131  0.82467  0.50771  1.0000
  H   H19       1.0  0.79083  0.23645  0.38924  1.0000
  H   H20       1.0  0.29063  0.62597  0.61100  1.0000
  H   H21       1.0  0.07836  0.62451  0.21023  1.0000
  H   H22       1.0  0.57865  0.83466  0.78972  1.0000
  H   H23       1.0  0.23541  0.49141  0.10044  1.0000
  H   H24       1.0  0.73525  0.59153  0.89938  1.0000
  H   H25       1.0  0.20654  0.62811  0.93194  1.0000
  H   H26       1.0  0.70634  0.55956  0.06793  1.0000
  H   H27       1.0  0.02340  0.88968  0.88046  1.0000
  H   H28       1.0  0.52349  0.76960  0.11957  1.0000
  H   H29       1.0  0.63766  0.36721  0.87583  1.0000
  H   H30       1.0  0.13742  0.24298  0.12407  1.0000
  H   H31       1.0  0.58747  0.30310  0.06502  1.0000
  H   H32       1.0  0.08770  0.36776  0.93486  1.0000
  H   H33       1.0  0.85726  0.13897  0.85425  1.0000
  H   H34       1.0  0.35704  0.99310  0.14583  1.0000
  C   C1        1.0  0.61135  0.78713  0.28148  1.0000
  C   C2        1.0  0.11120  0.06880  0.71855  1.0000
  C   C3        1.0  0.52311  0.67073  0.33945  1.0000
  C   C4        1.0  0.02281  0.01042  0.66053  1.0000
  C   C5        1.0  0.62964  0.54088  0.39682  1.0000
  C   C6        1.0  0.12930  0.93791  0.60316  1.0000
  C   C7        1.0  0.55129  0.42975  0.45205  1.0000
  C   C8        1.0  0.05105  0.88188  0.54792  1.0000
  C   C9        1.0  0.36534  0.44507  0.45097  1.0000
  C   C10       1.0  0.86509  0.89621  0.54893  1.0000
  C   C11       1.0  0.25856  0.57609  0.39376  1.0000
  C   C12       1.0  0.75830  0.97016  0.60608  1.0000
  C   C13       1.0  0.33593  0.68845  0.33855  1.0000
  C   C14       1.0  0.83561  0.02726  0.66139  1.0000
  C   C15       1.0  0.28341  0.32058  0.50864  1.0000
  C   C16       1.0  0.78315  0.82923  0.49132  1.0000
  C   C17       1.0  0.95555  0.07926  0.28189  1.0000
  C   C18       1.0  0.45531  0.36150  0.71816  1.0000
  C   C19       1.0  0.04324  0.14242  0.33758  1.0000
  C   C20       1.0  0.54309  0.48023  0.66254  1.0000
  C   C21       1.0  0.23115  0.12024  0.33983  1.0000
  C   C22       1.0  0.73100  0.46029  0.66022  1.0000
  C   C23       1.0  0.30866  0.17822  0.39458  1.0000
  C   C24       1.0  0.80845  0.57300  0.60549  1.0000
  C   C25       1.0  0.20121  0.25558  0.44986  1.0000
  C   C26       1.0  0.70096  0.70559  0.55020  1.0000
  C   C27       1.0  0.01458  0.27508  0.44794  1.0000
  C   C28       1.0  0.51432  0.72320  0.55224  1.0000
  C   C29       1.0  0.93591  0.22104  0.39165  1.0000
  C   C30       1.0  0.43573  0.61292  0.60855  1.0000
  C   C31       1.0  0.07073  0.67820  0.13660  1.0000
  C   C32       1.0  0.57100  0.81460  0.86337  1.0000
  C   C33       1.0  0.15682  0.60514  0.07517  1.0000
  C   C34       1.0  0.65683  0.67998  0.92472  1.0000
  C   C35       1.0  0.14043  0.68142  0.98189  1.0000
  C   C36       1.0  0.64041  0.66291  0.01802  1.0000
  C   C37       1.0  0.03892  0.82691  0.95256  1.0000
  C   C38       1.0  0.53905  0.77909  0.04744  1.0000
  C   C39       1.0  0.95706  0.89250  0.01856  1.0000
  C   C40       1.0  0.45737  0.91079  0.98150  1.0000
  C   C41       1.0  0.84457  0.04232  0.99899  1.0000
  C   C42       1.0  0.34482  0.04103  0.00108  1.0000
  C   C43       1.0  0.69159  0.26984  0.93202  1.0000
  C   C44       1.0  0.19147  0.20162  0.06795  1.0000
  C   C45       1.0  0.66735  0.23624  0.02543  1.0000
  C   C46       1.0  0.16748  0.26135  0.97451  1.0000
  N   N1        1.0  0.76234  0.09439  0.06611  1.0000
  N   N2        1.0  0.26268  0.16014  0.93390  1.0000
  N   N3        1.0  0.97438  0.81834  0.10887  1.0000
  N   N4        1.0  0.47481  0.92699  0.89118  1.0000
  N   N5        1.0  0.80270  0.14668  0.91705  1.0000
  N   N6        1.0  0.30265  0.06353  0.08299  1.0000
  O   O1        1.0  0.52246  0.90294  0.22337  1.0000
  O   O2        1.0  0.02237  0.12656  0.77665  1.0000
  O   O3        1.0  0.78195  0.76795  0.29021  1.0000
  O   O4        1.0  0.28183  0.05819  0.70985  1.0000
  O   O5        1.0  0.78470  0.10752  0.27632  1.0000
  O   O6        1.0  0.28450  0.38428  0.72374  1.0000
  O   O7        1.0  0.05503  0.99372  0.23954  1.0000
  O   O8        1.0  0.55477  0.23353  0.76042  1.0000
