data_image0
_chemical_formula_structural       Cd4H52C56N12O16
_chemical_formula_sum              "Cd4 H52 C56 N12 O16"
_cell_length_a       10.4871
_cell_length_b       10.4871
_cell_length_c       14.4566
_cell_angle_alpha    90.0001
_cell_angle_beta     89.9999
_cell_angle_gamma    106.645

_space_group_name_H-M_alt    "P 1"
_space_group_IT_number       1

loop_
  _space_group_symop_operation_xyz
  'x, y, z'

loop_
  _atom_site_type_symbol
  _atom_site_label
  _atom_site_symmetry_multiplicity
  _atom_site_fract_x
  _atom_site_fract_y
  _atom_site_fract_z
  _atom_site_occupancy
  Cd  Cd1       1.0  0.42997  0.57003  0.39302  1.0000
  Cd  Cd2       1.0  0.07003  0.92997  0.89302  1.0000
  Cd  Cd3       1.0  0.92997  0.07003  0.10698  1.0000
  Cd  Cd4       1.0  0.57003  0.42997  0.60698  1.0000
  H   H1        1.0  0.81073  0.18928  0.51869  1.0000
  H   H2        1.0  0.68927  0.31072  0.01869  1.0000
  H   H3        1.0  0.31072  0.68928  0.98131  1.0000
  H   H4        1.0  0.18928  0.81073  0.48131  1.0000
  H   H5        1.0  0.27103  0.25842  0.32824  1.0000
  H   H6        1.0  0.22897  0.24158  0.82824  1.0000
  H   H7        1.0  0.24158  0.22897  0.17176  1.0000
  H   H8        1.0  0.25842  0.27103  0.67176  1.0000
  H   H9        1.0  0.72897  0.74158  0.67176  1.0000
  H   H10       1.0  0.77103  0.75842  0.17176  1.0000
  H   H11       1.0  0.75842  0.77103  0.82824  1.0000
  H   H12       1.0  0.74158  0.72897  0.32824  1.0000
  H   H13       1.0  0.05341  0.09585  0.34821  1.0000
  H   H14       1.0  0.44659  0.40415  0.84821  1.0000
  H   H15       1.0  0.40415  0.44659  0.15179  1.0000
  H   H16       1.0  0.09585  0.05341  0.65178  1.0000
  H   H17       1.0  0.94659  0.90415  0.65179  1.0000
  H   H18       1.0  0.55341  0.59585  0.15179  1.0000
  H   H19       1.0  0.59585  0.55341  0.84821  1.0000
  H   H20       1.0  0.90415  0.94659  0.34822  1.0000
  H   H21       1.0  0.63264  0.03649  0.54792  1.0000
  H   H22       1.0  0.86737  0.46351  0.04792  1.0000
  H   H23       1.0  0.46352  0.86737  0.95208  1.0000
  H   H24       1.0  0.03649  0.63263  0.45208  1.0000
  H   H25       1.0  0.36737  0.96351  0.45208  1.0000
  H   H26       1.0  0.13263  0.53649  0.95208  1.0000
  H   H27       1.0  0.53648  0.13263  0.04792  1.0000
  H   H28       1.0  0.96351  0.36737  0.54792  1.0000
  H   H29       1.0  0.47886  0.81182  0.51561  1.0000
  H   H30       1.0  0.02114  0.68818  0.01561  1.0000
  H   H31       1.0  0.68818  0.02114  0.98439  1.0000
  H   H32       1.0  0.81182  0.47886  0.48439  1.0000
  H   H33       1.0  0.52114  0.18818  0.48439  1.0000
  H   H34       1.0  0.97886  0.31182  0.98439  1.0000
  H   H35       1.0  0.31182  0.97886  0.01561  1.0000
  H   H36       1.0  0.18818  0.52114  0.51561  1.0000
  H   H37       1.0  0.22598  0.91280  0.31736  1.0000
  H   H38       1.0  0.27402  0.58720  0.81736  1.0000
  H   H39       1.0  0.58720  0.27402  0.18264  1.0000
  H   H40       1.0  0.91280  0.22598  0.68264  1.0000
  H   H41       1.0  0.77402  0.08720  0.68264  1.0000
  H   H42       1.0  0.72598  0.41280  0.18264  1.0000
  H   H43       1.0  0.41280  0.72598  0.81736  1.0000
  H   H44       1.0  0.08720  0.77402  0.31736  1.0000
  H   H45       1.0  0.13824  0.72263  0.15198  1.0000
  H   H46       1.0  0.36176  0.77738  0.65198  1.0000
  H   H47       1.0  0.77737  0.36176  0.34802  1.0000
  H   H48       1.0  0.72263  0.13824  0.84802  1.0000
  H   H49       1.0  0.86176  0.27737  0.84802  1.0000
  H   H50       1.0  0.63824  0.22262  0.34802  1.0000
  H   H51       1.0  0.22263  0.63824  0.65198  1.0000
  H   H52       1.0  0.27737  0.86176  0.15198  1.0000
  C   C1        1.0  0.19951  0.27941  0.37639  1.0000
  C   C2        1.0  0.30049  0.22059  0.87639  1.0000
  C   C3        1.0  0.22059  0.30049  0.12361  1.0000
  C   C4        1.0  0.27941  0.19951  0.62361  1.0000
  C   C5        1.0  0.80049  0.72059  0.62361  1.0000
  C   C6        1.0  0.69951  0.77941  0.12361  1.0000
  C   C7        1.0  0.77941  0.69951  0.87639  1.0000
  C   C8        1.0  0.72059  0.80049  0.37639  1.0000
  C   C9        1.0  0.07616  0.18644  0.38905  1.0000
  C   C10       1.0  0.42384  0.31356  0.88905  1.0000
  C   C11       1.0  0.31356  0.42384  0.11095  1.0000
  C   C12       1.0  0.18644  0.07616  0.61095  1.0000
  C   C13       1.0  0.92384  0.81357  0.61095  1.0000
  C   C14       1.0  0.57616  0.68644  0.11095  1.0000
  C   C15       1.0  0.68644  0.57616  0.88905  1.0000
  C   C16       1.0  0.81356  0.92384  0.38905  1.0000
  C   C17       1.0  0.98595  0.21642  0.45174  1.0000
  C   C18       1.0  0.51405  0.28358  0.95174  1.0000
  C   C19       1.0  0.28359  0.51405  0.04826  1.0000
  C   C20       1.0  0.21641  0.98595  0.54825  1.0000
  C   C21       1.0  0.01405  0.78359  0.54826  1.0000
  C   C22       1.0  0.48595  0.71642  0.04826  1.0000
  C   C23       1.0  0.71641  0.48595  0.95174  1.0000
  C   C24       1.0  0.78359  0.01405  0.45174  1.0000
  C   C25       1.0  0.66024  0.97061  0.49850  1.0000
  C   C26       1.0  0.83976  0.52939  0.99850  1.0000
  C   C27       1.0  0.52939  0.83977  0.00150  1.0000
  C   C28       1.0  0.97061  0.66023  0.50150  1.0000
  C   C29       1.0  0.33976  0.02939  0.50150  1.0000
  C   C30       1.0  0.16024  0.47061  0.00150  1.0000
  C   C31       1.0  0.47061  0.16023  0.99850  1.0000
  C   C32       1.0  0.02939  0.33977  0.49850  1.0000
  C   C33       1.0  0.57457  0.84656  0.48081  1.0000
  C   C34       1.0  0.92543  0.65344  0.98081  1.0000
  C   C35       1.0  0.65344  0.92543  0.01919  1.0000
  C   C36       1.0  0.84656  0.57457  0.51919  1.0000
  C   C37       1.0  0.42543  0.15344  0.51919  1.0000
  C   C38       1.0  0.07457  0.34656  0.01919  1.0000
  C   C39       1.0  0.34656  0.07457  0.98081  1.0000
  C   C40       1.0  0.15344  0.42543  0.48081  1.0000
  C   C41       1.0  0.27176  0.72824  0.32535  1.0000
  C   C42       1.0  0.22824  0.77176  0.82535  1.0000
  C   C43       1.0  0.77176  0.22824  0.17465  1.0000
  C   C44       1.0  0.72824  0.27176  0.67465  1.0000
  C   C45       1.0  0.18756  0.81244  0.28764  1.0000
  C   C46       1.0  0.31244  0.68756  0.78764  1.0000
  C   C47       1.0  0.68756  0.31244  0.21236  1.0000
  C   C48       1.0  0.81244  0.18756  0.71236  1.0000
  C   C49       1.0  0.17818  0.82182  0.18319  1.0000
  C   C50       1.0  0.32182  0.67818  0.68319  1.0000
  C   C51       1.0  0.67818  0.32182  0.31681  1.0000
  C   C52       1.0  0.82182  0.17818  0.81681  1.0000
  C   C53       1.0  0.09145  0.90855  0.15357  1.0000
  C   C54       1.0  0.40855  0.59145  0.65357  1.0000
  C   C55       1.0  0.59145  0.40855  0.34643  1.0000
  C   C56       1.0  0.90855  0.09145  0.84643  1.0000
  N   N1        1.0  0.23911  0.39764  0.41982  1.0000
  N   N2        1.0  0.26089  0.10236  0.91982  1.0000
  N   N3        1.0  0.10236  0.26089  0.08018  1.0000
  N   N4        1.0  0.39764  0.23911  0.58018  1.0000
  N   N5        1.0  0.76089  0.60236  0.58018  1.0000
  N   N6        1.0  0.73911  0.89764  0.08018  1.0000
  N   N7        1.0  0.89764  0.73911  0.91982  1.0000
  N   N8        1.0  0.60236  0.76089  0.41982  1.0000
  N   N9        1.0  0.85967  0.14033  0.47423  1.0000
  N   N10       1.0  0.64033  0.35967  0.97423  1.0000
  N   N11       1.0  0.35967  0.64033  0.02578  1.0000
  N   N12       1.0  0.14033  0.85967  0.52577  1.0000
  O   O1        1.0  0.33125  0.66875  0.27175  1.0000
  O   O2        1.0  0.16875  0.83124  0.77176  1.0000
  O   O3        1.0  0.83125  0.16875  0.22824  1.0000
  O   O4        1.0  0.66875  0.33125  0.72825  1.0000
  O   O5        1.0  0.27817  0.72183  0.41409  1.0000
  O   O6        1.0  0.22183  0.77817  0.91409  1.0000
  O   O7        1.0  0.77817  0.22183  0.08591  1.0000
  O   O8        1.0  0.72183  0.27817  0.58591  1.0000
  O   O9        1.0  0.03723  0.96277  0.21553  1.0000
  O   O10       1.0  0.46278  0.53723  0.71553  1.0000
  O   O11       1.0  0.53723  0.46277  0.28447  1.0000
  O   O12       1.0  0.96277  0.03722  0.78447  1.0000
  O   O13       1.0  0.07467  0.92533  0.06768  1.0000
  O   O14       1.0  0.42532  0.57467  0.56768  1.0000
  O   O15       1.0  0.57468  0.42533  0.43232  1.0000
  O   O16       1.0  0.92533  0.07467  0.93232  1.0000
