data_image0
_chemical_formula_structural       Ni2H18C12S2N6O12
_chemical_formula_sum              "Ni2 H18 C12 S2 N6 O12"
_cell_length_a       8.62204
_cell_length_b       8.23829
_cell_length_c       8.4754
_cell_angle_alpha    102.283
_cell_angle_beta     98.4702
_cell_angle_gamma    108.458

_space_group_name_H-M_alt    "P 1"
_space_group_IT_number       1

loop_
  _space_group_symop_operation_xyz
  'x, y, z'

loop_
  _atom_site_type_symbol
  _atom_site_label
  _atom_site_symmetry_multiplicity
  _atom_site_fract_x
  _atom_site_fract_y
  _atom_site_fract_z
  _atom_site_occupancy
  Ni  Ni1       1.0  0.79344  0.79397  0.72619  1.0000
  Ni  Ni2       1.0  0.20656  0.20602  0.27381  1.0000
  H   H1        1.0  0.92404  0.65180  0.54106  1.0000
  H   H2        1.0  0.07596  0.34820  0.45894  1.0000
  H   H3        1.0  0.06006  0.78608  0.70666  1.0000
  H   H4        1.0  0.93994  0.21392  0.29334  1.0000
  H   H5        1.0  0.08736  0.64430  0.84794  1.0000
  H   H6        1.0  0.91263  0.35569  0.15206  1.0000
  H   H7        1.0  0.26713  0.78915  0.90208  1.0000
  H   H8        1.0  0.73287  0.21084  0.09792  1.0000
  H   H9        1.0  0.21330  0.41876  0.92402  1.0000
  H   H10       1.0  0.78669  0.58125  0.07597  1.0000
  H   H11       1.0  0.12076  0.08424  0.88478  1.0000
  H   H12       1.0  0.87925  0.91577  0.11521  1.0000
  H   H13       1.0  0.64416  0.02292  0.62864  1.0000
  H   H14       1.0  0.35584  0.97708  0.37136  1.0000
  H   H15       1.0  0.54427  0.43280  0.86268  1.0000
  H   H16       1.0  0.45573  0.56721  0.13733  1.0000
  H   H17       1.0  0.41595  0.43815  0.68086  1.0000
  H   H18       1.0  0.58405  0.56185  0.31915  1.0000
  C   C1        1.0  0.08712  0.32845  0.85578  1.0000
  C   C2        1.0  0.91288  0.67155  0.14422  1.0000
  C   C3        1.0  0.03651  0.14539  0.83549  1.0000
  C   C4        1.0  0.96349  0.85461  0.16450  1.0000
  C   C5        1.0  0.77173  0.11135  0.69260  1.0000
  C   C6        1.0  0.22827  0.88864  0.30739  1.0000
  C   C7        1.0  0.83019  0.29294  0.70594  1.0000
  C   C8        1.0  0.16981  0.70707  0.29406  1.0000
  C   C9        1.0  0.53552  0.51158  0.77384  1.0000
  C   C10       1.0  0.46449  0.48843  0.22616  1.0000
  C   C11       1.0  0.52949  0.68742  0.86379  1.0000
  C   C12       1.0  0.47050  0.31258  0.13622  1.0000
  S   S1        1.0  0.70035  0.37938  0.58462  1.0000
  S   S2        1.0  0.29964  0.62062  0.41538  1.0000
  N   N1        1.0  0.67989  0.54792  0.69593  1.0000
  N   N2        1.0  0.32012  0.45208  0.30408  1.0000
  N   N3        1.0  0.98489  0.40240  0.79058  1.0000
  N   N4        1.0  0.01511  0.59760  0.20942  1.0000
  N   N5        1.0  0.87784  0.03907  0.75619  1.0000
  N   N6        1.0  0.12217  0.96093  0.24381  1.0000
  O   O1        1.0  0.64270  0.82943  0.85054  1.0000
  O   O2        1.0  0.35731  0.17057  0.14946  1.0000
  O   O3        1.0  0.42298  0.69548  0.94696  1.0000
  O   O4        1.0  0.57703  0.30453  0.05303  1.0000
  O   O5        1.0  0.54133  0.23170  0.52019  1.0000
  O   O6        1.0  0.45867  0.76830  0.47982  1.0000
  O   O7        1.0  0.80067  0.43517  0.46727  1.0000
  O   O8        1.0  0.19933  0.56483  0.53273  1.0000
  O   O9        1.0  0.96491  0.77746  0.61114  1.0000
  O   O10       1.0  0.03510  0.22254  0.38885  1.0000
  O   O11       1.0  0.14722  0.77540  0.87372  1.0000
  O   O12       1.0  0.85278  0.22460  0.12628  1.0000
