data_image0
_chemical_formula_structural       Tb3H15C18N6O21
_chemical_formula_sum              "Tb3 H15 C18 N6 O21"
_cell_length_a       9.70412
_cell_length_b       9.70415
_cell_length_c       9.70413
_cell_angle_alpha    79.5688
_cell_angle_beta     79.5689
_cell_angle_gamma    79.5683

_space_group_name_H-M_alt    "P 1"
_space_group_IT_number       1

loop_
  _space_group_symop_operation_xyz
  'x, y, z'

loop_
  _atom_site_type_symbol
  _atom_site_label
  _atom_site_symmetry_multiplicity
  _atom_site_fract_x
  _atom_site_fract_y
  _atom_site_fract_z
  _atom_site_occupancy
  Tb  Tb1       1.0  0.50000  0.99090  0.00911  1.0000
  Tb  Tb2       1.0  0.00911  0.50000  0.99090  1.0000
  Tb  Tb3       1.0  0.99090  0.00911  0.50000  1.0000
  H   H1        1.0  0.58750  0.41251  1.00000  1.0000
  H   H2        1.0  1.00000  0.58749  0.41251  1.0000
  H   H3        1.0  0.41251  1.00000  0.58750  1.0000
  H   H4        1.0  0.23431  0.14512  0.92510  1.0000
  H   H5        1.0  0.92510  0.23431  0.14513  1.0000
  H   H6        1.0  0.14512  0.92509  0.23431  1.0000
  H   H7        1.0  0.07491  0.85488  0.76570  1.0000
  H   H8        1.0  0.85488  0.76570  0.07491  1.0000
  H   H9        1.0  0.76570  0.07491  0.85488  1.0000
  H   H10       1.0  0.23270  0.97615  0.93667  1.0000
  H   H11       1.0  0.93667  0.23270  0.97615  1.0000
  H   H12       1.0  0.97615  0.93667  0.23270  1.0000
  H   H13       1.0  0.06333  0.02386  0.76731  1.0000
  H   H14       1.0  0.02386  0.76730  0.06333  1.0000
  H   H15       1.0  0.76731  0.06333  0.02386  1.0000
  C   C1        1.0  0.33039  0.33425  0.99847  1.0000
  C   C2        1.0  0.99846  0.33039  0.33425  1.0000
  C   C3        1.0  0.33425  0.99846  0.33039  1.0000
  C   C4        1.0  0.00154  0.66575  0.66961  1.0000
  C   C5        1.0  0.66576  0.66961  0.00154  1.0000
  C   C6        1.0  0.66961  0.00154  0.66576  1.0000
  C   C7        1.0  0.36128  0.48060  0.00135  1.0000
  C   C8        1.0  0.00134  0.36128  0.48061  1.0000
  C   C9        1.0  0.48061  0.00134  0.36128  1.0000
  C   C10       1.0  0.99866  0.51940  0.63872  1.0000
  C   C11       1.0  0.51940  0.63872  0.99866  1.0000
  C   C12       1.0  0.63872  0.99866  0.51940  1.0000
  C   C13       1.0  0.50001  0.50000  0.00000  1.0000
  C   C14       1.0  0.00000  0.50001  0.50000  1.0000
  C   C15       1.0  0.50000  1.00000  0.50001  1.0000
  C   C16       1.0  0.27812  0.72189  0.00000  1.0000
  C   C17       1.0  0.00000  0.27812  0.72189  1.0000
  C   C18       1.0  0.72189  0.00000  0.27812  1.0000
  N   N1        1.0  0.25166  0.58654  0.00000  1.0000
  N   N2        1.0  1.00000  0.25166  0.58654  1.0000
  N   N3        1.0  0.58654  1.00000  0.25166  1.0000
  N   N4        1.0  0.00001  0.41346  0.74834  1.0000
  N   N5        1.0  0.41347  0.74834  0.00001  1.0000
  N   N6        1.0  0.74834  0.00001  0.41347  1.0000
  O   O1        1.0  0.42576  0.23131  0.02626  1.0000
  O   O2        1.0  0.02625  0.42577  0.23131  1.0000
  O   O3        1.0  0.23131  0.02625  0.42576  1.0000
  O   O4        1.0  0.97375  0.76869  0.57424  1.0000
  O   O5        1.0  0.76869  0.57424  0.97375  1.0000
  O   O6        1.0  0.57424  0.97375  0.76869  1.0000
  O   O7        1.0  0.21093  0.32600  0.96514  1.0000
  O   O8        1.0  0.96514  0.21093  0.32600  1.0000
  O   O9        1.0  0.32599  0.96513  0.21093  1.0000
  O   O10       1.0  0.03487  0.67401  0.78907  1.0000
  O   O11       1.0  0.67401  0.78907  0.03487  1.0000
  O   O12       1.0  0.78907  0.03487  0.67401  1.0000
  O   O13       1.0  0.17550  0.82451  0.00000  1.0000
  O   O14       1.0  0.00000  0.17550  0.82451  1.0000
  O   O15       1.0  0.82451  0.00001  0.17550  1.0000
  O   O16       1.0  0.29241  0.05395  0.90622  1.0000
  O   O17       1.0  0.90622  0.29241  0.05395  1.0000
  O   O18       1.0  0.05395  0.90622  0.29241  1.0000
  O   O19       1.0  0.09379  0.94605  0.70760  1.0000
  O   O20       1.0  0.94606  0.70759  0.09379  1.0000
  O   O21       1.0  0.70759  0.09379  0.94606  1.0000
