data_image0
_chemical_formula_structural       CuH8C14N6O2
_chemical_formula_sum              "Cu1 H8 C14 N6 O2"
_cell_length_a       4.22521
_cell_length_b       6.94162
_cell_length_c       11.3816
_cell_angle_alpha    91.7664
_cell_angle_beta     89.7395
_cell_angle_gamma    101.34

_space_group_name_H-M_alt    "P 1"
_space_group_IT_number       1

loop_
  _space_group_symop_operation_xyz
  'x, y, z'

loop_
  _atom_site_type_symbol
  _atom_site_label
  _atom_site_symmetry_multiplicity
  _atom_site_fract_x
  _atom_site_fract_y
  _atom_site_fract_z
  _atom_site_occupancy
  Cu  Cu1       1.0  0.00001  0.50000  0.50000  1.0000
  H   H1        1.0  0.88354  0.95002  0.08108  1.0000
  H   H2        1.0  0.11645  0.04998  0.91892  1.0000
  H   H3        1.0  0.69567  0.07001  0.27549  1.0000
  H   H4        1.0  0.30432  0.92999  0.72451  1.0000
  H   H5        1.0  0.74794  0.87776  0.45411  1.0000
  H   H6        1.0  0.25206  0.12224  0.54589  1.0000
  H   H7        1.0  0.14782  0.65724  0.07621  1.0000
  H   H8        1.0  0.85219  0.34277  0.92379  1.0000
  C   C1        1.0  0.24460  0.44844  0.27136  1.0000
  C   C2        1.0  0.75540  0.55157  0.72864  1.0000
  C   C3        1.0  0.08224  0.61397  0.26276  1.0000
  C   C4        1.0  0.91777  0.38603  0.73724  1.0000
  C   C5        1.0  0.91310  0.87443  0.16140  1.0000
  C   C6        1.0  0.08689  0.12556  0.83859  1.0000
  C   C7        1.0  0.80683  0.94143  0.26835  1.0000
  C   C8        1.0  0.19317  0.05857  0.73165  1.0000
  C   C9        1.0  0.83827  0.83750  0.36881  1.0000
  C   C10       1.0  0.16172  0.16250  0.63119  1.0000
  C   C11       1.0  0.05442  0.70947  0.15805  1.0000
  C   C12       1.0  0.94559  0.29053  0.84195  1.0000
  C   C13       1.0  0.37798  0.36400  0.17292  1.0000
  C   C14       1.0  0.62203  0.63600  0.82708  1.0000
  N   N1        1.0  0.28177  0.38647  0.37957  1.0000
  N   N2        1.0  0.71823  0.61354  0.62044  1.0000
  N   N3        1.0  0.96979  0.67647  0.36618  1.0000
  N   N4        1.0  0.03021  0.32353  0.63382  1.0000
  N   N5        1.0  0.48482  0.28767  0.09319  1.0000
  N   N6        1.0  0.51517  0.71233  0.90682  1.0000
  O   O1        1.0  0.46026  0.26223  0.39827  1.0000
  O   O2        1.0  0.53975  0.73778  0.60172  1.0000
