data_image0
_chemical_formula_structural       Cd4H24C20N20Cl4
_chemical_formula_sum              "Cd4 H24 C20 N20 Cl4"
_cell_length_a       6.43755
_cell_length_b       10.1638
_cell_length_c       12.5118
_cell_angle_alpha    89.9998
_cell_angle_beta     96.7736
_cell_angle_gamma    89.9997

_space_group_name_H-M_alt    "P 1"
_space_group_IT_number       1

loop_
  _space_group_symop_operation_xyz
  'x, y, z'

loop_
  _atom_site_type_symbol
  _atom_site_label
  _atom_site_symmetry_multiplicity
  _atom_site_fract_x
  _atom_site_fract_y
  _atom_site_fract_z
  _atom_site_occupancy
  Cd  Cd1       1.0  0.51797  0.44431  0.14188  1.0000
  Cd  Cd2       1.0  0.98203  0.94431  0.35812  1.0000
  Cd  Cd3       1.0  0.48202  0.55568  0.85812  1.0000
  Cd  Cd4       1.0  0.01797  0.05568  0.64188  1.0000
  H   H1        1.0  0.46641  0.72312  0.25427  1.0000
  H   H2        1.0  0.03358  0.22312  0.24573  1.0000
  H   H3        1.0  0.53358  0.27688  0.74573  1.0000
  H   H4        1.0  0.96641  0.77688  0.75427  1.0000
  H   H5        1.0  0.20465  0.67068  0.55362  1.0000
  H   H6        1.0  0.29536  0.17067  0.94638  1.0000
  H   H7        1.0  0.79535  0.32933  0.44638  1.0000
  H   H8        1.0  0.70465  0.82933  0.05363  1.0000
  H   H9        1.0  0.18652  0.42843  0.51351  1.0000
  H   H10       1.0  0.31348  0.92843  0.98650  1.0000
  H   H11       1.0  0.81348  0.57158  0.48650  1.0000
  H   H12       1.0  0.68653  0.07157  0.01351  1.0000
  H   H13       1.0  0.31535  0.34577  0.34630  1.0000
  H   H14       1.0  0.18465  0.84576  0.15370  1.0000
  H   H15       1.0  0.68465  0.65423  0.65370  1.0000
  H   H16       1.0  0.81535  0.15423  0.84630  1.0000
  H   H17       1.0  0.43723  0.90519  0.37990  1.0000
  H   H18       1.0  0.06277  0.40519  0.12010  1.0000
  H   H19       1.0  0.56277  0.09481  0.62010  1.0000
  H   H20       1.0  0.93722  0.59481  0.87990  1.0000
  H   H21       1.0  0.34697  0.88326  0.49878  1.0000
  H   H22       1.0  0.15304  0.38326  0.00121  1.0000
  H   H23       1.0  0.65304  0.11674  0.50121  1.0000
  H   H24       1.0  0.84696  0.61674  0.99878  1.0000
  C   C1        1.0  0.40477  0.66127  0.31442  1.0000
  C   C2        1.0  0.09523  0.16127  0.18558  1.0000
  C   C3        1.0  0.59523  0.33873  0.68558  1.0000
  C   C4        1.0  0.90476  0.83873  0.81442  1.0000
  C   C5        1.0  0.33646  0.71660  0.40673  1.0000
  C   C6        1.0  0.16354  0.21660  0.09327  1.0000
  C   C7        1.0  0.66354  0.28340  0.59327  1.0000
  C   C8        1.0  0.83645  0.78340  0.90673  1.0000
  C   C9        1.0  0.25787  0.63149  0.48057  1.0000
  C   C10       1.0  0.24214  0.13148  0.01943  1.0000
  C   C11       1.0  0.74214  0.36852  0.51943  1.0000
  C   C12       1.0  0.75786  0.86852  0.98057  1.0000
  C   C13       1.0  0.24645  0.49771  0.45835  1.0000
  C   C14       1.0  0.25356  0.99771  0.04165  1.0000
  C   C15       1.0  0.75356  0.50229  0.54165  1.0000
  C   C16       1.0  0.74645  0.00230  0.95835  1.0000
  C   C17       1.0  0.31740  0.45045  0.36487  1.0000
  C   C18       1.0  0.18260  0.95045  0.13514  1.0000
  C   C19       1.0  0.68260  0.54955  0.63514  1.0000
  C   C20       1.0  0.81740  0.04955  0.86487  1.0000
  N   N1        1.0  0.61058  0.25205  0.24456  1.0000
  N   N2        1.0  0.88943  0.75204  0.25543  1.0000
  N   N3        1.0  0.38942  0.74795  0.75544  1.0000
  N   N4        1.0  0.11058  0.24796  0.74456  1.0000
  N   N5        1.0  0.62759  0.14777  0.28477  1.0000
  N   N6        1.0  0.87242  0.64777  0.21522  1.0000
  N   N7        1.0  0.37241  0.85223  0.71522  1.0000
  N   N8        1.0  0.12758  0.35222  0.78477  1.0000
  N   N9        1.0  0.64645  0.04326  0.32831  1.0000
  N   N10       1.0  0.85355  0.54325  0.17169  1.0000
  N   N11       1.0  0.35355  0.95674  0.67168  1.0000
  N   N12       1.0  0.14644  0.45674  0.82832  1.0000
  N   N13       1.0  0.39638  0.53132  0.29479  1.0000
  N   N14       1.0  0.10362  0.03132  0.20521  1.0000
  N   N15       1.0  0.60362  0.46868  0.70521  1.0000
  N   N16       1.0  0.89638  0.96868  0.79479  1.0000
  N   N17       1.0  0.33243  0.85364  0.41987  1.0000
  N   N18       1.0  0.16758  0.35364  0.08013  1.0000
  N   N19       1.0  0.66758  0.14636  0.58012  1.0000
  N   N20       1.0  0.83242  0.64636  0.91987  1.0000
  Cl  Cl1       1.0  0.36336  0.65610  0.03238  1.0000
  Cl  Cl2       1.0  0.13664  0.15610  0.46763  1.0000
  Cl  Cl3       1.0  0.63665  0.34390  0.96763  1.0000
  Cl  Cl4       1.0  0.86336  0.84390  0.53237  1.0000
