data_image0
_chemical_formula_structural       Zn2H24C24S4N8O8
_chemical_formula_sum              "Zn2 H24 C24 S4 N8 O8"
_cell_length_a       7.34235
_cell_length_b       9.44411
_cell_length_c       11.8872
_cell_angle_alpha    78.0432
_cell_angle_beta     77.6631
_cell_angle_gamma    85.0999

_space_group_name_H-M_alt    "P 1"
_space_group_IT_number       1

loop_
  _space_group_symop_operation_xyz
  'x, y, z'

loop_
  _atom_site_type_symbol
  _atom_site_label
  _atom_site_symmetry_multiplicity
  _atom_site_fract_x
  _atom_site_fract_y
  _atom_site_fract_z
  _atom_site_occupancy
  Zn  Zn1       1.0  0.26038  0.79825  0.52049  1.0000
  Zn  Zn2       1.0  0.73947  0.20139  0.47951  1.0000
  H   H1        1.0  0.16180  0.00644  0.05361  1.0000
  H   H2        1.0  0.83828  0.99353  0.94637  1.0000
  H   H3        1.0  0.50205  0.98150  0.70192  1.0000
  H   H4        1.0  0.49804  0.01838  0.29799  1.0000
  H   H5        1.0  0.37687  0.99523  0.91002  1.0000
  H   H6        1.0  0.62319  0.00474  0.08986  1.0000
  H   H7        1.0  0.03824  0.01352  0.26339  1.0000
  H   H8        1.0  0.96181  0.98640  0.73660  1.0000
  H   H9        1.0  0.12621  0.57156  0.36687  1.0000
  H   H10       1.0  0.87375  0.42831  0.63302  1.0000
  H   H11       1.0  0.28227  0.53506  0.97546  1.0000
  H   H12       1.0  0.71777  0.46489  0.02451  1.0000
  H   H13       1.0  0.25460  0.54136  0.15863  1.0000
  H   H14       1.0  0.74547  0.45861  0.84128  1.0000
  H   H15       1.0  0.41797  0.54086  0.76452  1.0000
  H   H16       1.0  0.58211  0.45901  0.23548  1.0000
  H   H17       1.0  0.14521  0.07890  0.53956  1.0000
  H   H18       1.0  0.85481  0.92093  0.46039  1.0000
  H   H19       1.0  0.36375  0.43303  0.49311  1.0000
  H   H20       1.0  0.63729  0.56862  0.50738  1.0000
  H   H21       1.0  0.23704  0.45395  0.61087  1.0000
  H   H22       1.0  0.76247  0.54644  0.38947  1.0000
  H   H23       1.0  0.35239  0.09090  0.46523  1.0000
  H   H24       1.0  0.64758  0.90892  0.53472  1.0000
  C   C1        1.0  0.15964  0.90544  0.11770  1.0000
  C   C2        1.0  0.84041  0.09451  0.88226  1.0000
  C   C3        1.0  0.45388  0.88689  0.76745  1.0000
  C   C4        1.0  0.54625  0.11299  0.23247  1.0000
  C   C5        1.0  0.38148  0.89085  0.88392  1.0000
  C   C6        1.0  0.61861  0.10908  0.11600  1.0000
  C   C7        1.0  0.08842  0.91348  0.23340  1.0000
  C   C8        1.0  0.91160  0.08644  0.76654  1.0000
  C   C9        1.0  0.13769  0.66080  0.29149  1.0000
  C   C10       1.0  0.86231  0.33909  0.70841  1.0000
  C   C11       1.0  0.33288  0.63683  0.92008  1.0000
  C   C12       1.0  0.66718  0.36312  0.07988  1.0000
  C   C13       1.0  0.21037  0.64905  0.17641  1.0000
  C   C14       1.0  0.78966  0.35090  0.82350  1.0000
  C   C15       1.0  0.40746  0.63675  0.80313  1.0000
  C   C16       1.0  0.59265  0.36314  0.19684  1.0000
  C   C17       1.0  0.31441  0.76580  0.96373  1.0000
  C   C18       1.0  0.68563  0.23417  0.03621  1.0000
  C   C19       1.0  0.22767  0.77253  0.08601  1.0000
  C   C20       1.0  0.77240  0.22744  0.91392  1.0000
  C   C21       1.0  0.55952  0.75229  0.29885  1.0000
  C   C22       1.0  0.44037  0.24767  0.70109  1.0000
  C   C23       1.0  0.98902  0.72197  0.76240  1.0000
  C   C24       1.0  0.01084  0.27809  0.23774  1.0000
  S   S1        1.0  0.71213  0.71639  0.18798  1.0000
  S   S2        1.0  0.28783  0.28357  0.81194  1.0000
  S   S3        1.0  0.85132  0.70695  0.88905  1.0000
  S   S4        1.0  0.14860  0.29294  0.11116  1.0000
  N   N1        1.0  0.44894  0.77977  0.38090  1.0000
  N   N2        1.0  0.55093  0.22016  0.61905  1.0000
  N   N3        1.0  0.46326  0.76136  0.72765  1.0000
  N   N4        1.0  0.53684  0.23851  0.27229  1.0000
  N   N5        1.0  0.08257  0.79287  0.31855  1.0000
  N   N6        1.0  0.91740  0.20702  0.68139  1.0000
  N   N7        1.0  0.09264  0.73578  0.66961  1.0000
  N   N8        1.0  0.90716  0.26448  0.33050  1.0000
  O   O1        1.0  0.26204  0.01943  0.51635  1.0000
  O   O2        1.0  0.73794  0.98039  0.48359  1.0000
  O   O3        1.0  0.02854  0.80401  0.43078  1.0000
  O   O4        1.0  0.97134  0.19583  0.56918  1.0000
  O   O5        1.0  0.51942  0.76114  0.61372  1.0000
  O   O6        1.0  0.48072  0.23871  0.38623  1.0000
  O   O7        1.0  0.27295  0.50129  0.52858  1.0000
  O   O8        1.0  0.72627  0.49936  0.47179  1.0000
