data_image0
_chemical_formula_structural       Zn2H16C20Br4N4O4
_chemical_formula_sum              "Zn2 H16 C20 Br4 N4 O4"
_cell_length_a       8.58572
_cell_length_b       9.07997
_cell_length_c       9.24
_cell_angle_alpha    67.7236
_cell_angle_beta     85.0555
_cell_angle_gamma    66.7913

_space_group_name_H-M_alt    "P 1"
_space_group_IT_number       1

loop_
  _space_group_symop_operation_xyz
  'x, y, z'

loop_
  _atom_site_type_symbol
  _atom_site_label
  _atom_site_symmetry_multiplicity
  _atom_site_fract_x
  _atom_site_fract_y
  _atom_site_fract_z
  _atom_site_occupancy
  Zn  Zn1       1.0  0.04667  0.17972  0.01279  1.0000
  Zn  Zn2       1.0  0.95333  0.82028  0.98720  1.0000
  H   H1        1.0  0.06262  0.22067  0.68025  1.0000
  H   H2        1.0  0.93738  0.77932  0.31975  1.0000
  H   H3        1.0  0.41863  0.73890  0.94403  1.0000
  H   H4        1.0  0.58138  0.26110  0.05597  1.0000
  H   H5        1.0  0.23653  0.24573  0.44859  1.0000
  H   H6        1.0  0.76347  0.75426  0.55141  1.0000
  H   H7        1.0  0.61333  0.74065  0.72860  1.0000
  H   H8        1.0  0.38667  0.25935  0.27141  1.0000
  H   H9        1.0  0.12800  0.52289  0.80169  1.0000
  H   H10       1.0  0.87200  0.47711  0.19830  1.0000
  H   H11       1.0  0.68238  0.20534  0.64542  1.0000
  H   H12       1.0  0.31762  0.79466  0.35458  1.0000
  H   H13       1.0  0.23004  0.67931  0.55718  1.0000
  H   H14       1.0  0.76996  0.32068  0.44281  1.0000
  H   H15       1.0  0.55860  0.06919  0.88244  1.0000
  H   H16       1.0  0.44140  0.93081  0.11757  1.0000
  C   C1        1.0  0.18607  0.12088  0.68056  1.0000
  C   C2        1.0  0.81393  0.87912  0.31944  1.0000
  C   C3        1.0  0.38985  0.84615  0.83135  1.0000
  C   C4        1.0  0.61015  0.15385  0.16865  1.0000
  C   C5        1.0  0.28620  0.13038  0.55503  1.0000
  C   C6        1.0  0.71380  0.86961  0.44498  1.0000
  C   C7        1.0  0.44496  0.99544  0.56562  1.0000
  C   C8        1.0  0.55504  0.00456  0.43438  1.0000
  C   C9        1.0  0.49297  0.85129  0.70807  1.0000
  C   C10       1.0  0.50703  0.14871  0.29193  1.0000
  C   C11       1.0  0.24817  0.46083  0.75858  1.0000
  C   C12       1.0  0.75184  0.53917  0.24141  1.0000
  C   C13       1.0  0.46656  0.45733  0.57245  1.0000
  C   C14       1.0  0.53345  0.54266  0.42755  1.0000
  C   C15       1.0  0.55797  0.28420  0.67036  1.0000
  C   C16       1.0  0.44203  0.71580  0.32964  1.0000
  C   C17       1.0  0.30914  0.54383  0.62212  1.0000
  C   C18       1.0  0.69087  0.45617  0.37788  1.0000
  C   C19       1.0  0.49323  0.20385  0.80471  1.0000
  C   C20       1.0  0.50678  0.79615  0.19529  1.0000
  Br  Br1       1.0  0.06300  0.10983  0.28683  1.0000
  Br  Br2       1.0  0.93699  0.89018  0.71316  1.0000
  Br  Br3       1.0  0.84071  0.42660  0.82160  1.0000
  Br  Br4       1.0  0.15928  0.57341  0.17840  1.0000
  N   N1        1.0  0.24098  0.98188  0.81806  1.0000
  N   N2        1.0  0.75902  0.01812  0.18194  1.0000
  N   N3        1.0  0.33894  0.29129  0.84724  1.0000
  N   N4        1.0  0.66106  0.70872  0.15275  1.0000
  O   O1        1.0  0.14712  0.97325  0.94100  1.0000
  O   O2        1.0  0.85288  0.02674  0.05900  1.0000
  O   O3        1.0  0.28285  0.20976  0.97881  1.0000
  O   O4        1.0  0.71715  0.79024  0.02119  1.0000
