data_image0
_chemical_formula_structural       Cd4H64C40N8Cl8O8
_chemical_formula_sum              "Cd4 H64 C40 N8 Cl8 O8"
_cell_length_a       8.02596
_cell_length_b       9.45826
_cell_length_c       17.2307
_cell_angle_alpha    99.6026
_cell_angle_beta     90
_cell_angle_gamma    90.0001

_space_group_name_H-M_alt    "P 1"
_space_group_IT_number       1

loop_
  _space_group_symop_operation_xyz
  'x, y, z'

loop_
  _atom_site_type_symbol
  _atom_site_label
  _atom_site_symmetry_multiplicity
  _atom_site_fract_x
  _atom_site_fract_y
  _atom_site_fract_z
  _atom_site_occupancy
  Cd  Cd1       1.0  0.52689  0.48095  0.75077  1.0000
  Cd  Cd2       1.0  0.02689  0.51905  0.74923  1.0000
  Cd  Cd3       1.0  0.47311  0.51905  0.24923  1.0000
  Cd  Cd4       1.0  0.97311  0.48095  0.25077  1.0000
  H   H1        1.0  0.27314  0.30463  0.61908  1.0000
  H   H2        1.0  0.77314  0.69536  0.88093  1.0000
  H   H3        1.0  0.72686  0.69537  0.38092  1.0000
  H   H4        1.0  0.22686  0.30463  0.11908  1.0000
  H   H5        1.0  0.49861  0.26906  0.38835  1.0000
  H   H6        1.0  0.99861  0.73094  0.11165  1.0000
  H   H7        1.0  0.50139  0.73094  0.61165  1.0000
  H   H8        1.0  0.00139  0.26906  0.88835  1.0000
  H   H9        1.0  0.75876  0.36874  0.45446  1.0000
  H   H10       1.0  0.25876  0.63126  0.04554  1.0000
  H   H11       1.0  0.24124  0.63126  0.54554  1.0000
  H   H12       1.0  0.74124  0.36874  0.95446  1.0000
  H   H13       1.0  0.75981  0.43819  0.60210  1.0000
  H   H14       1.0  0.25981  0.56181  0.89790  1.0000
  H   H15       1.0  0.24019  0.56181  0.39790  1.0000
  H   H16       1.0  0.74019  0.43819  0.10210  1.0000
  H   H17       1.0  0.08528  0.99629  0.30874  1.0000
  H   H18       1.0  0.58528  0.00371  0.19126  1.0000
  H   H19       1.0  0.91472  0.00371  0.69126  1.0000
  H   H20       1.0  0.41472  0.99629  0.80874  1.0000
  H   H21       1.0  0.99576  0.16438  0.34767  1.0000
  H   H22       1.0  0.49576  0.83562  0.15233  1.0000
  H   H23       1.0  0.00424  0.83562  0.65233  1.0000
  H   H24       1.0  0.50424  0.16438  0.84767  1.0000
  H   H25       1.0  0.80868  0.95801  0.36284  1.0000
  H   H26       1.0  0.30868  0.04199  0.13716  1.0000
  H   H27       1.0  0.19132  0.04199  0.63716  1.0000
  H   H28       1.0  0.69132  0.95801  0.86284  1.0000
  H   H29       1.0  0.86526  0.05653  0.45656  1.0000
  H   H30       1.0  0.36526  0.94347  0.04344  1.0000
  H   H31       1.0  0.13474  0.94347  0.54344  1.0000
  H   H32       1.0  0.63474  0.05653  0.95656  1.0000
  H   H33       1.0  0.96236  0.88855  0.42003  1.0000
  H   H34       1.0  0.46236  0.11145  0.07997  1.0000
  H   H35       1.0  0.03764  0.11146  0.57997  1.0000
  H   H36       1.0  0.53764  0.88855  0.92003  1.0000
  H   H37       1.0  0.26543  0.88704  0.40162  1.0000
  H   H38       1.0  0.76543  0.11296  0.09838  1.0000
  H   H39       1.0  0.73457  0.11296  0.59838  1.0000
  H   H40       1.0  0.23457  0.88704  0.90162  1.0000
  H   H41       1.0  0.41049  0.01035  0.45178  1.0000
  H   H42       1.0  0.91049  0.98965  0.04822  1.0000
  H   H43       1.0  0.58951  0.98965  0.54822  1.0000
  H   H44       1.0  0.08951  0.01035  0.95178  1.0000
  H   H45       1.0  0.50570  0.88657  0.31575  1.0000
  H   H46       1.0  0.00570  0.11343  0.18425  1.0000
  H   H47       1.0  0.49430  0.11343  0.68425  1.0000
  H   H48       1.0  0.99430  0.88657  0.81575  1.0000
  H   H49       1.0  0.50183  0.07679  0.32270  1.0000
  H   H50       1.0  0.00183  0.92321  0.17730  1.0000
  H   H51       1.0  0.49817  0.92321  0.67730  1.0000
  H   H52       1.0  0.99817  0.07679  0.82270  1.0000
  H   H53       1.0  0.33969  0.96960  0.27362  1.0000
  H   H54       1.0  0.83969  0.03040  0.22638  1.0000
  H   H55       1.0  0.66031  0.03040  0.72637  1.0000
  H   H56       1.0  0.16031  0.96960  0.77362  1.0000
  H   H57       1.0  0.55865  0.57968  0.93618  1.0000
  H   H58       1.0  0.05865  0.42032  0.56382  1.0000
  H   H59       1.0  0.44135  0.42032  0.06382  1.0000
  H   H60       1.0  0.94135  0.57968  0.43618  1.0000
  H   H61       1.0  0.48823  0.42241  0.91251  1.0000
  H   H62       1.0  0.98823  0.57759  0.58749  1.0000
  H   H63       1.0  0.51177  0.57759  0.08749  1.0000
  H   H64       1.0  0.01177  0.42241  0.41251  1.0000
  C   C1        1.0  0.37718  0.31648  0.57997  1.0000
  C   C2        1.0  0.87718  0.68352  0.92003  1.0000
  C   C3        1.0  0.62282  0.68353  0.42003  1.0000
  C   C4        1.0  0.12282  0.31647  0.07997  1.0000
  C   C5        1.0  0.36654  0.27195  0.49853  1.0000
  C   C6        1.0  0.86654  0.72806  0.00147  1.0000
  C   C7        1.0  0.63346  0.72806  0.50147  1.0000
  C   C8        1.0  0.13346  0.27194  0.99853  1.0000
  C   C9        1.0  0.50504  0.29306  0.45232  1.0000
  C   C10       1.0  0.00505  0.70694  0.04768  1.0000
  C   C11       1.0  0.49496  0.70694  0.54768  1.0000
  C   C12       1.0  0.99495  0.29306  0.95232  1.0000
  C   C13       1.0  0.64957  0.35124  0.48909  1.0000
  C   C14       1.0  0.14957  0.64876  0.01091  1.0000
  C   C15       1.0  0.35043  0.64876  0.51091  1.0000
  C   C16       1.0  0.85043  0.35123  0.98909  1.0000
  C   C17       1.0  0.65022  0.39102  0.57062  1.0000
  C   C18       1.0  0.15022  0.60898  0.92938  1.0000
  C   C19       1.0  0.34978  0.60898  0.42938  1.0000
  C   C20       1.0  0.84978  0.39102  0.07062  1.0000
  C   C21       1.0  0.20404  0.22273  0.46119  1.0000
  C   C22       1.0  0.70404  0.77727  0.03881  1.0000
  C   C23       1.0  0.79596  0.77727  0.53881  1.0000
  C   C24       1.0  0.29596  0.22273  0.96119  1.0000
  C   C25       1.0  0.04493  0.06462  0.36320  1.0000
  C   C26       1.0  0.54493  0.93538  0.13680  1.0000
  C   C27       1.0  0.95507  0.93538  0.63680  1.0000
  C   C28       1.0  0.45507  0.06462  0.86320  1.0000
  C   C29       1.0  0.91265  0.98762  0.40370  1.0000
  C   C30       1.0  0.41265  0.01238  0.09630  1.0000
  C   C31       1.0  0.08735  0.01238  0.59630  1.0000
  C   C32       1.0  0.58735  0.98762  0.90370  1.0000
  C   C33       1.0  0.32795  0.99018  0.40039  1.0000
  C   C34       1.0  0.82795  0.00982  0.09961  1.0000
  C   C35       1.0  0.67205  0.00982  0.59961  1.0000
  C   C36       1.0  0.17205  0.99018  0.90039  1.0000
  C   C37       1.0  0.42489  0.98149  0.32398  1.0000
  C   C38       1.0  0.92489  0.01851  0.17602  1.0000
  C   C39       1.0  0.57510  0.01851  0.67602  1.0000
  C   C40       1.0  0.07511  0.98149  0.82398  1.0000
  N   N1        1.0  0.51558  0.37552  0.61498  1.0000
  N   N2        1.0  0.01558  0.62448  0.88502  1.0000
  N   N3        1.0  0.48442  0.62448  0.38502  1.0000
  N   N4        1.0  0.98442  0.37552  0.11498  1.0000
  N   N5        1.0  0.19638  0.09967  0.41045  1.0000
  N   N6        1.0  0.69637  0.90033  0.08955  1.0000
  N   N7        1.0  0.80362  0.90033  0.58955  1.0000
  N   N8        1.0  0.30362  0.09967  0.91045  1.0000
  Cl  Cl1       1.0  0.25501  0.32365  0.76959  1.0000
  Cl  Cl2       1.0  0.75500  0.67635  0.73041  1.0000
  Cl  Cl3       1.0  0.74500  0.67635  0.23041  1.0000
  Cl  Cl4       1.0  0.24500  0.32365  0.26959  1.0000
  Cl  Cl5       1.0  0.80032  0.31867  0.75792  1.0000
  Cl  Cl6       1.0  0.30032  0.68133  0.74208  1.0000
  Cl  Cl7       1.0  0.19968  0.68133  0.24208  1.0000
  Cl  Cl8       1.0  0.69967  0.31868  0.25793  1.0000
  O   O1        1.0  0.53533  0.50339  0.89023  1.0000
  O   O2        1.0  0.03533  0.49661  0.60977  1.0000
  O   O3        1.0  0.46467  0.49661  0.10977  1.0000
  O   O4        1.0  0.96467  0.50339  0.39023  1.0000
  O   O5        1.0  0.07725  0.30300  0.47648  1.0000
  O   O6        1.0  0.57725  0.69701  0.02352  1.0000
  O   O7        1.0  0.92275  0.69701  0.52352  1.0000
  O   O8        1.0  0.42275  0.30299  0.97648  1.0000
