data_image0
_chemical_formula_structural       Cu4H24C40I4N12O4
_chemical_formula_sum              "Cu4 H24 C40 I4 N12 O4"
_cell_length_a       7.06717
_cell_length_b       12.9213
_cell_length_c       13.3105
_cell_angle_alpha    119.05
_cell_angle_beta     91.4782
_cell_angle_gamma    89.9957

_space_group_name_H-M_alt    "P 1"
_space_group_IT_number       1

loop_
  _space_group_symop_operation_xyz
  'x, y, z'

loop_
  _atom_site_type_symbol
  _atom_site_label
  _atom_site_symmetry_multiplicity
  _atom_site_fract_x
  _atom_site_fract_y
  _atom_site_fract_z
  _atom_site_occupancy
  Cu  Cu1       1.0  0.65116  0.46689  0.09275  1.0000
  Cu  Cu2       1.0  0.84868  0.37404  0.90711  1.0000
  Cu  Cu3       1.0  0.34883  0.53311  0.90725  1.0000
  Cu  Cu4       1.0  0.15131  0.62597  0.09289  1.0000
  H   H1        1.0  0.24987  0.80482  0.99963  1.0000
  H   H2        1.0  0.75014  0.19518  0.00038  1.0000
  H   H3        1.0  0.23686  0.99427  0.18416  1.0000
  H   H4        1.0  0.26300  0.80976  0.81511  1.0000
  H   H5        1.0  0.76314  0.00573  0.81584  1.0000
  H   H6        1.0  0.73700  0.19024  0.18489  1.0000
  H   H7        1.0  0.25005  0.19050  0.99977  1.0000
  H   H8        1.0  0.74994  0.80950  0.00023  1.0000
  H   H9        1.0  0.41192  0.75672  0.54870  1.0000
  H   H10       1.0  0.08787  0.20838  0.45133  1.0000
  H   H11       1.0  0.58808  0.24328  0.45129  1.0000
  H   H12       1.0  0.91213  0.79162  0.54867  1.0000
  H   H13       1.0  0.20206  0.63575  0.59603  1.0000
  H   H14       1.0  0.29805  0.04018  0.40389  1.0000
  H   H15       1.0  0.79795  0.36426  0.40397  1.0000
  H   H16       1.0  0.70194  0.95981  0.59612  1.0000
  H   H17       1.0  0.14802  0.42011  0.46041  1.0000
  H   H18       1.0  0.35224  0.95992  0.53924  1.0000
  H   H19       1.0  0.85199  0.57990  0.53959  1.0000
  H   H20       1.0  0.64774  0.04007  0.46076  1.0000
  H   H21       1.0  0.57335  0.66813  0.35882  1.0000
  H   H22       1.0  0.92621  0.30938  0.64123  1.0000
  H   H23       1.0  0.42666  0.33187  0.64117  1.0000
  H   H24       1.0  0.07380  0.69062  0.35877  1.0000
  C   C1        1.0  0.24995  0.88911  0.99963  1.0000
  C   C2        1.0  0.75005  0.11089  0.00038  1.0000
  C   C3        1.0  0.24280  0.99479  0.10276  1.0000
  C   C4        1.0  0.25714  0.89167  0.89654  1.0000
  C   C5        1.0  0.75720  0.00521  0.89724  1.0000
  C   C6        1.0  0.74285  0.10833  0.10347  1.0000
  C   C7        1.0  0.24638  0.10376  0.10343  1.0000
  C   C8        1.0  0.25371  0.00006  0.89599  1.0000
  C   C9        1.0  0.75361  0.89624  0.89657  1.0000
  C   C10       1.0  0.74628  0.99994  0.10401  1.0000
  C   C11       1.0  0.25007  0.10659  0.99972  1.0000
  C   C12       1.0  0.74992  0.89341  0.00028  1.0000
  C   C13       1.0  0.23086  0.21133  0.21678  1.0000
  C   C14       1.0  0.26914  0.99439  0.78273  1.0000
  C   C15       1.0  0.76913  0.78867  0.78322  1.0000
  C   C16       1.0  0.73085  0.00561  0.21728  1.0000
  C   C17       1.0  0.32826  0.42628  0.33355  1.0000
  C   C18       1.0  0.17176  0.09282  0.66619  1.0000
  C   C19       1.0  0.67174  0.57372  0.66645  1.0000
  C   C20       1.0  0.82824  0.90719  0.33382  1.0000
  C   C21       1.0  0.39073  0.66367  0.48588  1.0000
  C   C22       1.0  0.10909  0.17807  0.51408  1.0000
  C   C23       1.0  0.60927  0.33633  0.51411  1.0000
  C   C24       1.0  0.89091  0.82192  0.48592  1.0000
  C   C25       1.0  0.27076  0.59403  0.51327  1.0000
  C   C26       1.0  0.22921  0.08107  0.48658  1.0000
  C   C27       1.0  0.72925  0.40597  0.48672  1.0000
  C   C28       1.0  0.77079  0.91893  0.51342  1.0000
  C   C29       1.0  0.23759  0.47403  0.43858  1.0000
  C   C30       1.0  0.26258  0.03570  0.56118  1.0000
  C   C31       1.0  0.76242  0.52597  0.56142  1.0000
  C   C32       1.0  0.73741  0.96430  0.43882  1.0000
  C   C33       1.0  0.48087  0.61576  0.38148  1.0000
  C   C34       1.0  0.01887  0.23440  0.61847  1.0000
  C   C35       1.0  0.51913  0.38424  0.61851  1.0000
  C   C36       1.0  0.98114  0.76560  0.38153  1.0000
  C   C37       1.0  0.44663  0.49566  0.30540  1.0000
  C   C38       1.0  0.05315  0.19029  0.69444  1.0000
  C   C39       1.0  0.55337  0.50434  0.69459  1.0000
  C   C40       1.0  0.94686  0.80971  0.30557  1.0000
  I   I1        1.0  0.01066  0.45159  0.12116  1.0000
  I   I2        1.0  0.48923  0.33030  0.87872  1.0000
  I   I3        1.0  0.98934  0.54842  0.87884  1.0000
  I   I4        1.0  0.51076  0.66970  0.12128  1.0000
  N   N1        1.0  0.33258  0.31462  0.23769  1.0000
  N   N2        1.0  0.16745  0.07684  0.76192  1.0000
  N   N3        1.0  0.66742  0.68538  0.76231  1.0000
  N   N4        1.0  0.83255  0.92316  0.23808  1.0000
  N   N5        1.0  0.44775  0.31612  0.15651  1.0000
  N   N6        1.0  0.05214  0.15941  0.84315  1.0000
  N   N7        1.0  0.55225  0.68388  0.84348  1.0000
  N   N8        1.0  0.94785  0.84059  0.15686  1.0000
  N   N9        1.0  0.51326  0.42297  0.19582  1.0000
  N   N10       1.0  0.98654  0.22704  0.80397  1.0000
  N   N11       1.0  0.48674  0.57702  0.80418  1.0000
  N   N12       1.0  0.01346  0.77296  0.19603  1.0000
  O   O1        1.0  0.13450  0.21507  0.29404  1.0000
  O   O2        1.0  0.36556  0.92091  0.70536  1.0000
  O   O3        1.0  0.86550  0.78494  0.70595  1.0000
  O   O4        1.0  0.63445  0.07909  0.29463  1.0000
