data_image0
_chemical_formula_structural       Gd2H30C44S4N4O14
_chemical_formula_sum              "Gd2 H30 C44 S4 N4 O14"
_cell_length_a       8.92168
_cell_length_b       11.3139
_cell_length_c       12.144
_cell_angle_alpha    117.061
_cell_angle_beta     92.1012
_cell_angle_gamma    101.702

_space_group_name_H-M_alt    "P 1"
_space_group_IT_number       1

loop_
  _space_group_symop_operation_xyz
  'x, y, z'

loop_
  _atom_site_type_symbol
  _atom_site_label
  _atom_site_symmetry_multiplicity
  _atom_site_fract_x
  _atom_site_fract_y
  _atom_site_fract_z
  _atom_site_occupancy
  Gd  Gd1       1.0  0.14204  0.40567  0.49620  1.0000
  Gd  Gd2       1.0  0.85796  0.59433  0.50380  1.0000
  H   H1        1.0  0.80392  0.35832  0.53399  1.0000
  H   H2        1.0  0.19608  0.64168  0.46601  1.0000
  H   H3        1.0  0.28063  0.17371  0.25295  1.0000
  H   H4        1.0  0.71936  0.82629  0.74705  1.0000
  H   H5        1.0  0.39278  0.96947  0.18503  1.0000
  H   H6        1.0  0.60722  0.03052  0.81497  1.0000
  H   H7        1.0  0.39303  0.85709  0.32216  1.0000
  H   H8        1.0  0.60696  0.14291  0.67784  1.0000
  H   H9        1.0  0.19887  0.94002  0.70657  1.0000
  H   H10       1.0  0.80113  0.05998  0.29343  1.0000
  H   H11       1.0  0.32532  0.85136  0.51639  1.0000
  H   H12       1.0  0.67468  0.14864  0.48361  1.0000
  H   H13       1.0  0.98917  0.42191  0.75400  1.0000
  H   H14       1.0  0.01083  0.57809  0.24600  1.0000
  H   H15       1.0  0.96186  0.31799  0.89940  1.0000
  H   H16       1.0  0.03814  0.68201  0.10060  1.0000
  H   H17       1.0  0.06507  0.11400  0.85022  1.0000
  H   H18       1.0  0.93493  0.88600  0.14978  1.0000
  H   H19       1.0  0.58882  0.27996  0.16608  1.0000
  H   H20       1.0  0.41118  0.72004  0.83392  1.0000
  H   H21       1.0  0.90527  0.01932  0.06221  1.0000
  H   H22       1.0  0.09473  0.98068  0.93779  1.0000
  H   H23       1.0  0.68845  0.81553  0.93177  1.0000
  H   H24       1.0  0.31155  0.18447  0.06823  1.0000
  H   H25       1.0  0.32784  0.50989  0.80895  1.0000
  H   H26       1.0  0.67216  0.49011  0.19105  1.0000
  H   H27       1.0  0.78229  0.43459  0.78897  1.0000
  H   H28       1.0  0.21771  0.56542  0.21103  1.0000
  H   H29       1.0  0.79242  0.44865  0.00009  1.0000
  H   H30       1.0  0.20758  0.55135  0.99991  1.0000
  C   C1        1.0  0.28089  0.12139  0.30924  1.0000
  C   C2        1.0  0.71911  0.87860  0.69076  1.0000
  C   C3        1.0  0.34445  0.00734  0.27208  1.0000
  C   C4        1.0  0.65554  0.99266  0.72792  1.0000
  C   C5        1.0  0.34457  0.94565  0.34741  1.0000
  C   C6        1.0  0.65543  0.05435  0.65259  1.0000
  C   C7        1.0  0.27932  0.99763  0.45902  1.0000
  C   C8        1.0  0.72068  0.00237  0.54098  1.0000
  C   C9        1.0  0.21686  0.11280  0.48857  1.0000
  C   C10       1.0  0.78314  0.88721  0.51143  1.0000
  C   C11       1.0  0.14839  0.16767  0.60146  1.0000
  C   C12       1.0  0.85161  0.83233  0.39854  1.0000
  C   C13       1.0  0.14190  0.10379  0.67937  1.0000
  C   C14       1.0  0.85810  0.89621  0.32063  1.0000
  C   C15       1.0  0.20587  0.98792  0.64620  1.0000
  C   C16       1.0  0.79413  0.01208  0.35380  1.0000
  C   C17       1.0  0.27353  0.93773  0.54070  1.0000
  C   C18       1.0  0.72647  0.06227  0.45930  1.0000
  C   C19       1.0  0.02779  0.32979  0.73358  1.0000
  C   C20       1.0  0.97221  0.67021  0.26642  1.0000
  C   C21       1.0  0.01445  0.27275  0.81516  1.0000
  C   C22       1.0  0.98554  0.72725  0.18484  1.0000
  C   C23       1.0  0.07233  0.15988  0.78822  1.0000
  C   C24       1.0  0.92767  0.84012  0.21178  1.0000
  C   C25       1.0  0.60981  0.17912  0.11136  1.0000
  C   C26       1.0  0.39019  0.82088  0.88864  1.0000
  C   C27       1.0  0.78722  0.02966  0.05337  1.0000
  C   C28       1.0  0.21278  0.97034  0.94663  1.0000
  C   C29       1.0  0.48540  0.06674  0.03305  1.0000
  C   C30       1.0  0.51461  0.93326  0.96695  1.0000
  C   C31       1.0  0.75707  0.16060  0.11927  1.0000
  C   C32       1.0  0.24293  0.83940  0.88073  1.0000
  C   C33       1.0  0.66730  0.91752  0.98057  1.0000
  C   C34       1.0  0.33270  0.08248  0.01943  1.0000
  C   C35       1.0  0.55391  0.47189  0.78874  1.0000
  C   C36       1.0  0.44608  0.52811  0.21126  1.0000
  C   C37       1.0  0.42927  0.49797  0.85180  1.0000
  C   C38       1.0  0.57073  0.50202  0.14820  1.0000
  C   C39       1.0  0.68597  0.45357  0.84120  1.0000
  C   C40       1.0  0.31403  0.54643  0.15880  1.0000
  C   C41       1.0  0.43331  0.50912  0.97294  1.0000
  C   C42       1.0  0.56669  0.49088  0.02706  1.0000
  C   C43       1.0  0.69158  0.46239  0.95808  1.0000
  C   C44       1.0  0.30842  0.53761  0.04192  1.0000
  S   S1        1.0  0.55068  0.45690  0.63663  1.0000
  S   S2        1.0  0.44932  0.54310  0.36337  1.0000
  S   S3        1.0  0.91389  0.30541  0.20800  1.0000
  S   S4        1.0  0.08611  0.69459  0.79200  1.0000
  N   N1        1.0  0.09254  0.27975  0.62985  1.0000
  N   N2        1.0  0.90746  0.72025  0.37015  1.0000
  N   N3        1.0  0.21880  0.17340  0.41404  1.0000
  N   N4        1.0  0.78120  0.82660  0.58596  1.0000
  O   O1        1.0  0.00588  0.26498  0.28347  1.0000
  O   O2        1.0  0.99412  0.73502  0.71653  1.0000
  O   O3        1.0  0.83962  0.41528  0.28441  1.0000
  O   O4        1.0  0.16038  0.58472  0.71559  1.0000
  O   O5        1.0  0.99763  0.33092  0.11696  1.0000
  O   O6        1.0  0.00237  0.66908  0.88304  1.0000
  O   O7        1.0  0.39487  0.46743  0.60456  1.0000
  O   O8        1.0  0.60513  0.53257  0.39544  1.0000
  O   O9        1.0  0.67185  0.57380  0.64810  1.0000
  O   O10       1.0  0.32815  0.42620  0.35190  1.0000
  O   O11       1.0  0.58177  0.32425  0.55610  1.0000
  O   O12       1.0  0.41823  0.67575  0.44389  1.0000
  O   O13       1.0  0.89626  0.41269  0.52321  1.0000
  O   O14       1.0  0.10374  0.58731  0.47679  1.0000
