data_image0
_chemical_formula_structural       Co4P4H40C36N4O20
_chemical_formula_sum              "Co4 P4 H40 C36 N4 O20"
_cell_length_a       8.5286
_cell_length_b       9.85226
_cell_length_c       12.5052
_cell_angle_alpha    90.0015
_cell_angle_beta     89.9972
_cell_angle_gamma    90.0099

_space_group_name_H-M_alt    "P 1"
_space_group_IT_number       1

loop_
  _space_group_symop_operation_xyz
  'x, y, z'

loop_
  _atom_site_type_symbol
  _atom_site_label
  _atom_site_symmetry_multiplicity
  _atom_site_fract_x
  _atom_site_fract_y
  _atom_site_fract_z
  _atom_site_occupancy
  Co  Co1       1.0  0.18682  0.92262  0.12055  1.0000
  Co  Co2       1.0  0.68728  0.07731  0.87946  1.0000
  Co  Co3       1.0  0.18666  0.42251  0.87938  1.0000
  Co  Co4       1.0  0.68706  0.57711  0.12070  1.0000
  P   P1        1.0  0.33420  0.14684  0.97602  1.0000
  P   P2        1.0  0.83406  0.85307  0.02407  1.0000
  P   P3        1.0  0.33409  0.64679  0.02399  1.0000
  P   P4        1.0  0.83409  0.35322  0.97591  1.0000
  H   H1        1.0  0.28649  0.88099  0.91223  1.0000
  H   H2        1.0  0.78670  0.11895  0.08778  1.0000
  H   H3        1.0  0.28654  0.38107  0.08779  1.0000
  H   H4        1.0  0.78650  0.61886  0.91226  1.0000
  H   H5        1.0  0.35980  0.93847  0.79548  1.0000
  H   H6        1.0  0.85984  0.06154  0.20451  1.0000
  H   H7        1.0  0.35972  0.43858  0.20453  1.0000
  H   H8        1.0  0.85970  0.56146  0.79554  1.0000
  H   H9        1.0  0.08895  0.07751  0.89402  1.0000
  H   H10       1.0  0.58887  0.92254  0.10610  1.0000
  H   H11       1.0  0.08877  0.57743  0.10595  1.0000
  H   H12       1.0  0.58865  0.42252  0.89397  1.0000
  H   H13       1.0  0.22461  0.13889  0.79574  1.0000
  H   H14       1.0  0.72452  0.86121  0.20439  1.0000
  H   H15       1.0  0.22438  0.63895  0.20423  1.0000
  H   H16       1.0  0.72425  0.36115  0.79563  1.0000
  H   H17       1.0  0.02091  0.87763  0.82250  1.0000
  H   H18       1.0  0.52097  0.12234  0.17750  1.0000
  H   H19       1.0  0.02090  0.37755  0.17748  1.0000
  H   H20       1.0  0.52086  0.62245  0.82251  1.0000
  H   H21       1.0  0.15936  0.74509  0.80254  1.0000
  H   H22       1.0  0.65941  0.25492  0.19742  1.0000
  H   H23       1.0  0.15943  0.24508  0.19743  1.0000
  H   H24       1.0  0.65944  0.75493  0.80259  1.0000
  H   H25       1.0  0.96882  0.04562  0.67256  1.0000
  H   H26       1.0  0.46881  0.95440  0.32740  1.0000
  H   H27       1.0  0.96883  0.54561  0.32741  1.0000
  H   H28       1.0  0.46878  0.45441  0.67261  1.0000
  H   H29       1.0  0.96203  0.07604  0.47508  1.0000
  H   H30       1.0  0.46199  0.92395  0.52489  1.0000
  H   H31       1.0  0.96201  0.57605  0.52489  1.0000
  H   H32       1.0  0.46198  0.42395  0.47512  1.0000
  H   H33       1.0  0.27315  0.73720  0.43521  1.0000
  H   H34       1.0  0.77320  0.26280  0.56478  1.0000
  H   H35       1.0  0.27309  0.23718  0.56475  1.0000
  H   H36       1.0  0.77316  0.76283  0.43525  1.0000
  H   H37       1.0  0.28320  0.70620  0.63205  1.0000
  H   H38       1.0  0.78330  0.29382  0.36795  1.0000
  H   H39       1.0  0.28316  0.20616  0.36792  1.0000
  H   H40       1.0  0.78326  0.79383  0.63209  1.0000
  C   C1        1.0  0.21184  0.07640  0.86787  1.0000
  C   C2        1.0  0.71177  0.92361  0.13221  1.0000
  C   C3        1.0  0.21166  0.57641  0.13211  1.0000
  C   C4        1.0  0.71154  0.42356  0.86781  1.0000
  C   C5        1.0  0.13289  0.85158  0.78448  1.0000
  C   C6        1.0  0.63296  0.14844  0.21550  1.0000
  C   C7        1.0  0.13289  0.35155  0.21549  1.0000
  C   C8        1.0  0.63288  0.64845  0.78452  1.0000
  C   C9        1.0  0.12870  0.87476  0.66590  1.0000
  C   C10       1.0  0.62875  0.12525  0.33408  1.0000
  C   C11       1.0  0.12867  0.37474  0.33407  1.0000
  C   C12       1.0  0.62870  0.62526  0.66594  1.0000
  C   C13       1.0  0.03756  0.97866  0.62112  1.0000
  C   C14       1.0  0.53756  0.02136  0.37885  1.0000
  C   C15       1.0  0.03755  0.47864  0.37885  1.0000
  C   C16       1.0  0.53752  0.52136  0.62116  1.0000
  C   C17       1.0  0.03198  0.99566  0.51063  1.0000
  C   C18       1.0  0.53196  0.00434  0.48934  1.0000
  C   C19       1.0  0.03196  0.49566  0.48934  1.0000
  C   C20       1.0  0.53193  0.50435  0.51068  1.0000
  C   C21       1.0  0.11700  0.90943  0.44314  1.0000
  C   C22       1.0  0.61700  0.09056  0.55684  1.0000
  C   C23       1.0  0.11696  0.40942  0.55682  1.0000
  C   C24       1.0  0.61697  0.59058  0.44319  1.0000
  C   C25       1.0  0.20748  0.80474  0.48760  1.0000
  C   C26       1.0  0.70750  0.19526  0.51239  1.0000
  C   C27       1.0  0.20742  0.30472  0.51236  1.0000
  C   C28       1.0  0.70747  0.69529  0.48764  1.0000
  C   C29       1.0  0.21303  0.78800  0.59798  1.0000
  C   C30       1.0  0.71309  0.21202  0.40200  1.0000
  C   C31       1.0  0.21299  0.28797  0.40198  1.0000
  C   C32       1.0  0.71305  0.71203  0.59802  1.0000
  C   C33       1.0  0.11311  0.93286  0.32559  1.0000
  C   C34       1.0  0.61310  0.06706  0.67438  1.0000
  C   C35       1.0  0.11307  0.43286  0.67437  1.0000
  C   C36       1.0  0.61315  0.56712  0.32565  1.0000
  N   N1        1.0  0.25750  0.93354  0.84158  1.0000
  N   N2        1.0  0.75755  0.06649  0.15841  1.0000
  N   N3        1.0  0.25745  0.43359  0.15843  1.0000
  N   N4        1.0  0.75738  0.56642  0.84161  1.0000
  O   O1        1.0  0.26635  0.10362  0.08493  1.0000
  O   O2        1.0  0.76571  0.89594  0.91523  1.0000
  O   O3        1.0  0.26641  0.60352  0.91504  1.0000
  O   O4        1.0  0.76563  0.39584  0.08480  1.0000
  O   O5        1.0  0.49837  0.08855  0.96143  1.0000
  O   O6        1.0  0.99806  0.91196  0.03838  1.0000
  O   O7        1.0  0.49822  0.58848  0.03875  1.0000
  O   O8        1.0  0.99775  0.41282  0.96149  1.0000
  O   O9        1.0  0.32789  0.30277  0.96506  1.0000
  O   O10       1.0  0.82865  0.69718  0.03533  1.0000
  O   O11       1.0  0.32789  0.80273  0.03491  1.0000
  O   O12       1.0  0.82928  0.19729  0.96460  1.0000
  O   O13       1.0  0.21021  0.86239  0.26766  1.0000
  O   O14       1.0  0.71029  0.13746  0.73230  1.0000
  O   O15       1.0  0.21009  0.36231  0.73228  1.0000
  O   O16       1.0  0.71027  0.63763  0.26777  1.0000
  O   O17       1.0  0.02285  0.02001  0.28459  1.0000
  O   O18       1.0  0.52276  0.97992  0.71533  1.0000
  O   O19       1.0  0.02288  0.52007  0.71539  1.0000
  O   O20       1.0  0.52298  0.47989  0.28461  1.0000
