data_image0
_chemical_formula_structural       Cd2H32C38N4Cl4O8
_chemical_formula_sum              "Cd2 H32 C38 N4 Cl4 O8"
_cell_length_a       7.88504
_cell_length_b       10.6743
_cell_length_c       13.0311
_cell_angle_alpha    111.53
_cell_angle_beta     93.2026
_cell_angle_gamma    97.857

_space_group_name_H-M_alt    "P 1"
_space_group_IT_number       1

loop_
  _space_group_symop_operation_xyz
  'x, y, z'

loop_
  _atom_site_type_symbol
  _atom_site_label
  _atom_site_symmetry_multiplicity
  _atom_site_fract_x
  _atom_site_fract_y
  _atom_site_fract_z
  _atom_site_occupancy
  Cd  Cd1       1.0  0.26410  0.98935  0.99994  1.0000
  Cd  Cd2       1.0  0.73589  0.01065  0.00006  1.0000
  H   H1        1.0  0.33800  0.49790  0.97162  1.0000
  H   H2        1.0  0.66200  0.50209  0.02839  1.0000
  H   H3        1.0  0.18425  0.86021  0.70546  1.0000
  H   H4        1.0  0.81575  0.13979  0.29454  1.0000
  H   H5        1.0  0.64883  0.83727  0.73288  1.0000
  H   H6        1.0  0.35115  0.16272  0.26712  1.0000
  H   H7        1.0  0.93230  0.20620  0.75365  1.0000
  H   H8        1.0  0.06770  0.79381  0.24636  1.0000
  H   H9        1.0  0.34239  0.49884  0.77547  1.0000
  H   H10       1.0  0.65760  0.50115  0.22452  1.0000
  H   H11       1.0  0.60531  0.25854  0.92169  1.0000
  H   H12       1.0  0.39469  0.74146  0.07831  1.0000
  H   H13       1.0  0.47573  0.27864  0.81479  1.0000
  H   H14       1.0  0.52428  0.72137  0.18522  1.0000
  H   H15       1.0  0.44699  0.12088  0.83459  1.0000
  H   H16       1.0  0.55302  0.87912  0.16541  1.0000
  H   H17       1.0  0.94351  0.46539  0.13771  1.0000
  H   H18       1.0  0.05650  0.53461  0.86229  1.0000
  H   H19       1.0  0.07425  0.59302  0.10493  1.0000
  H   H20       1.0  0.92576  0.40698  0.89507  1.0000
  H   H21       1.0  0.13753  0.55817  0.22363  1.0000
  H   H22       1.0  0.86248  0.44183  0.77638  1.0000
  H   H23       1.0  0.49989  0.33686  0.63886  1.0000
  H   H24       1.0  0.50011  0.66313  0.36112  1.0000
  H   H25       1.0  0.80779  0.67693  0.59696  1.0000
  H   H26       1.0  0.19220  0.32308  0.40303  1.0000
  H   H27       1.0  0.33198  0.90292  0.55352  1.0000
  H   H28       1.0  0.66802  0.09709  0.44649  1.0000
  H   H29       1.0  0.08405  0.25377  0.60482  1.0000
  H   H30       1.0  0.91595  0.74624  0.39519  1.0000
  H   H31       1.0  0.07822  0.23524  0.11070  1.0000
  H   H32       1.0  0.92178  0.76475  0.88929  1.0000
  C   C1        1.0  0.04998  0.03126  0.73893  1.0000
  C   C2        1.0  0.95003  0.96875  0.26107  1.0000
  C   C3        1.0  0.48708  0.67814  0.76317  1.0000
  C   C4        1.0  0.51291  0.32185  0.23683  1.0000
  C   C5        1.0  0.34565  0.28268  0.95524  1.0000
  C   C6        1.0  0.65435  0.71732  0.04476  1.0000
  C   C7        1.0  0.29409  0.41186  0.99433  1.0000
  C   C8        1.0  0.70591  0.58814  0.00567  1.0000
  C   C9        1.0  0.39832  0.77504  0.84794  1.0000
  C   C10       1.0  0.60168  0.22495  0.15206  1.0000
  C   C11       1.0  0.96128  0.00455  0.82866  1.0000
  C   C12       1.0  0.03872  0.99545  0.17135  1.0000
  C   C13       1.0  0.17351  0.40732  0.06793  1.0000
  C   C14       1.0  0.82649  0.59268  0.93207  1.0000
  C   C15       1.0  0.66351  0.49862  0.61196  1.0000
  C   C16       1.0  0.33648  0.50139  0.38804  1.0000
  C   C17       1.0  0.16244  0.94564  0.68261  1.0000
  C   C18       1.0  0.83756  0.05437  0.31740  1.0000
  C   C19       1.0  0.61717  0.72750  0.71191  1.0000
  C   C20       1.0  0.38282  0.27250  0.28809  1.0000
  C   C21       1.0  0.02177  0.14167  0.71025  1.0000
  C   C22       1.0  0.97823  0.85833  0.28975  1.0000
  C   C23       1.0  0.44457  0.53698  0.73614  1.0000
  C   C24       1.0  0.55543  0.46302  0.26385  1.0000
  C   C25       1.0  0.47470  0.23228  0.87726  1.0000
  C   C26       1.0  0.52531  0.76772  0.12275  1.0000
  C   C27       1.0  0.07654  0.51172  0.13712  1.0000
  C   C28       1.0  0.92347  0.48828  0.86288  1.0000
  C   C29       1.0  0.53232  0.44662  0.66063  1.0000
  C   C30       1.0  0.46767  0.55338  0.33936  1.0000
  C   C31       1.0  0.70626  0.63852  0.63641  1.0000
  C   C32       1.0  0.29373  0.36148  0.36359  1.0000
  C   C33       1.0  0.21690  0.08071  0.57201  1.0000
  C   C34       1.0  0.78310  0.91929  0.42799  1.0000
  C   C35       1.0  0.24558  0.96942  0.59845  1.0000
  C   C36       1.0  0.75443  0.03059  0.40155  1.0000
  C   C37       1.0  0.10590  0.16810  0.62743  1.0000
  C   C38       1.0  0.89410  0.83191  0.37257  1.0000
  N   N1        1.0  0.15682  0.28047  0.06936  1.0000
  N   N2        1.0  0.84319  0.71953  0.93063  1.0000
  N   N3        1.0  0.25946  0.20328  0.00214  1.0000
  N   N4        1.0  0.74054  0.79672  0.99786  1.0000
  Cl  Cl1       1.0  0.32029  0.10912  0.46679  1.0000
  Cl  Cl2       1.0  0.67970  0.89089  0.53321  1.0000
  Cl  Cl3       1.0  0.77682  0.38769  0.51982  1.0000
  Cl  Cl4       1.0  0.22318  0.61232  0.48017  1.0000
  O   O1        1.0  0.45769  0.90534  0.87871  1.0000
  O   O2        1.0  0.54231  0.09465  0.12130  1.0000
  O   O3        1.0  0.01132  0.91838  0.86575  1.0000
  O   O4        1.0  0.98868  0.08162  0.13425  1.0000
  O   O5        1.0  0.27159  0.73240  0.88782  1.0000
  O   O6        1.0  0.72840  0.26759  0.11217  1.0000
  O   O7        1.0  0.83776  0.06868  0.86420  1.0000
  O   O8        1.0  0.16225  0.93132  0.13581  1.0000
