data_image0
_chemical_formula_structural       Cd2H32C38N8O16
_chemical_formula_sum              "Cd2 H32 C38 N8 O16"
_cell_length_a       7.87064
_cell_length_b       11.3581
_cell_length_c       11.9657
_cell_angle_alpha    84.9566
_cell_angle_beta     73.3228
_cell_angle_gamma    82.285

_space_group_name_H-M_alt    "P 1"
_space_group_IT_number       1

loop_
  _space_group_symop_operation_xyz
  'x, y, z'

loop_
  _atom_site_type_symbol
  _atom_site_label
  _atom_site_symmetry_multiplicity
  _atom_site_fract_x
  _atom_site_fract_y
  _atom_site_fract_z
  _atom_site_occupancy
  Cd  Cd1       1.0  0.23836  0.99443  0.99682  1.0000
  Cd  Cd2       1.0  0.76164  0.00557  0.00318  1.0000
  H   H1        1.0  0.61225  0.68941  0.77036  1.0000
  H   H2        1.0  0.38776  0.31059  0.22964  1.0000
  H   H3        1.0  0.86155  0.58959  0.61339  1.0000
  H   H4        1.0  0.13846  0.41041  0.38660  1.0000
  H   H5        1.0  0.09612  0.91822  0.52547  1.0000
  H   H6        1.0  0.90388  0.08178  0.47453  1.0000
  H   H7        1.0  0.84750  0.01755  0.68371  1.0000
  H   H8        1.0  0.15250  0.98245  0.31629  1.0000
  H   H9        1.0  0.03407  0.36156  0.75172  1.0000
  H   H10       1.0  0.96594  0.63844  0.24828  1.0000
  H   H11       1.0  0.27053  0.43727  0.57992  1.0000
  H   H12       1.0  0.72947  0.56273  0.42008  1.0000
  H   H13       1.0  0.52884  0.08073  0.52631  1.0000
  H   H14       1.0  0.47116  0.91927  0.47369  1.0000
  H   H15       1.0  0.29204  0.00424  0.69723  1.0000
  H   H16       1.0  0.70796  0.99576  0.30277  1.0000
  H   H17       1.0  0.85572  0.28098  0.06042  1.0000
  H   H18       1.0  0.14427  0.71901  0.93959  1.0000
  H   H19       1.0  0.91414  0.34841  0.17051  1.0000
  H   H20       1.0  0.08585  0.65159  0.82949  1.0000
  H   H21       1.0  0.95363  0.19176  0.15892  1.0000
  H   H22       1.0  0.04637  0.80824  0.84108  1.0000
  H   H23       1.0  0.16423  0.48540  0.01060  1.0000
  H   H24       1.0  0.83578  0.51460  0.98940  1.0000
  H   H25       1.0  0.66549  0.37680  0.83790  1.0000
  H   H26       1.0  0.33452  0.62320  0.16210  1.0000
  H   H27       1.0  0.52904  0.51219  0.88528  1.0000
  H   H28       1.0  0.47096  0.48782  0.11472  1.0000
  H   H29       1.0  0.52521  0.45074  0.75475  1.0000
  H   H30       1.0  0.47479  0.54926  0.24525  1.0000
  H   H31       1.0  0.50396  0.18109  0.87062  1.0000
  H   H32       1.0  0.49604  0.81891  0.12938  1.0000
  C   C1        1.0  0.56701  0.91956  0.82733  1.0000
  C   C2        1.0  0.43299  0.08043  0.17266  1.0000
  C   C3        1.0  0.71577  0.85893  0.73523  1.0000
  C   C4        1.0  0.28423  0.14107  0.26477  1.0000
  C   C5        1.0  0.71952  0.73831  0.71680  1.0000
  C   C6        1.0  0.28048  0.26169  0.28320  1.0000
  C   C7        1.0  0.85723  0.68270  0.63011  1.0000
  C   C8        1.0  0.14278  0.31730  0.36989  1.0000
  C   C9        1.0  0.98776  0.75094  0.56132  1.0000
  C   C10       1.0  0.01225  0.24906  0.43868  1.0000
  C   C11       1.0  0.98848  0.87035  0.57939  1.0000
  C   C12       1.0  0.01152  0.12965  0.42061  1.0000
  C   C13       1.0  0.85198  0.92423  0.66745  1.0000
  C   C14       1.0  0.14801  0.07577  0.33255  1.0000
  C   C15       1.0  0.00286  0.13338  0.83165  1.0000
  C   C16       1.0  0.99714  0.86662  0.16835  1.0000
  C   C17       1.0  0.14810  0.17885  0.73315  1.0000
  C   C18       1.0  0.85190  0.82115  0.26685  1.0000
  C   C19       1.0  0.14300  0.30091  0.70184  1.0000
  C   C20       1.0  0.85700  0.69909  0.29816  1.0000
  C   C21       1.0  0.27320  0.34333  0.60716  1.0000
  C   C22       1.0  0.72680  0.65667  0.39284  1.0000
  C   C23       1.0  0.40714  0.26122  0.54456  1.0000
  C   C24       1.0  0.59286  0.73877  0.45544  1.0000
  C   C25       1.0  0.41856  0.13994  0.57635  1.0000
  C   C26       1.0  0.58144  0.86006  0.42365  1.0000
  C   C27       1.0  0.28809  0.09869  0.67116  1.0000
  C   C28       1.0  0.71191  0.90131  0.32884  1.0000
  C   C29       1.0  0.95639  0.27731  0.10864  1.0000
  C   C30       1.0  0.04361  0.72269  0.89136  1.0000
  C   C31       1.0  0.13687  0.29074  0.02773  1.0000
  C   C32       1.0  0.86313  0.70926  0.97227  1.0000
  C   C33       1.0  0.21928  0.39522  0.98754  1.0000
  C   C34       1.0  0.78072  0.60478  0.01246  1.0000
  C   C35       1.0  0.38763  0.35998  0.91306  1.0000
  C   C36       1.0  0.61237  0.64002  0.08694  1.0000
  C   C37       1.0  0.53520  0.42860  0.84411  1.0000
  C   C38       1.0  0.46480  0.57140  0.15589  1.0000
  N   N1        1.0  0.12786  0.69669  0.46437  1.0000
  N   N2        1.0  0.87214  0.30332  0.53563  1.0000
  N   N3        1.0  0.53658  0.30221  0.43809  1.0000
  N   N4        1.0  0.46342  0.69779  0.56191  1.0000
  N   N5        1.0  0.24960  0.19613  0.98015  1.0000
  N   N6        1.0  0.75039  0.80387  0.01985  1.0000
  N   N7        1.0  0.39912  0.24034  0.91127  1.0000
  N   N8        1.0  0.60089  0.75966  0.08873  1.0000
  O   O1        1.0  0.42285  0.87157  0.86547  1.0000
  O   O2        1.0  0.57715  0.12843  0.13453  1.0000
  O   O3        1.0  0.59106  0.01745  0.86285  1.0000
  O   O4        1.0  0.40894  0.98255  0.13715  1.0000
  O   O5        1.0  0.14468  0.58678  0.45984  1.0000
  O   O6        1.0  0.85532  0.41322  0.54016  1.0000
  O   O7        1.0  0.22141  0.76338  0.39120  1.0000
  O   O8        1.0  0.77859  0.23662  0.60880  1.0000
  O   O9        1.0  0.03444  0.02452  0.87170  1.0000
  O   O10       1.0  0.96556  0.97548  0.12830  1.0000
  O   O11       1.0  0.85800  0.19667  0.87098  1.0000
  O   O12       1.0  0.14200  0.80333  0.12901  1.0000
  O   O13       1.0  0.64954  0.22636  0.38103  1.0000
  O   O14       1.0  0.35046  0.77364  0.61897  1.0000
  O   O15       1.0  0.52470  0.40997  0.40914  1.0000
  O   O16       1.0  0.47531  0.59003  0.59086  1.0000
