data_image0
_chemical_formula_structural       Zn2H32C48Br4N4O12
_chemical_formula_sum              "Zn2 H32 C48 Br4 N4 O12"
_cell_length_a       8.76958
_cell_length_b       11.4001
_cell_length_c       13.7665
_cell_angle_alpha    95.1865
_cell_angle_beta     108.578
_cell_angle_gamma    112.61

_space_group_name_H-M_alt    "P 1"
_space_group_IT_number       1

loop_
  _space_group_symop_operation_xyz
  'x, y, z'

loop_
  _atom_site_type_symbol
  _atom_site_label
  _atom_site_symmetry_multiplicity
  _atom_site_fract_x
  _atom_site_fract_y
  _atom_site_fract_z
  _atom_site_occupancy
  Zn  Zn1       1.0  0.35617  0.24993  0.25006  1.0000
  Zn  Zn2       1.0  0.64383  0.75007  0.74995  1.0000
  H   H1        1.0  0.10249  0.73233  0.65656  1.0000
  H   H2        1.0  0.21396  0.76734  0.84360  1.0000
  H   H3        1.0  0.89751  0.26768  0.34345  1.0000
  H   H4        1.0  0.78604  0.23267  0.15639  1.0000
  H   H5        1.0  0.30769  0.85590  0.57572  1.0000
  H   H6        1.0  0.37664  0.64407  0.92476  1.0000
  H   H7        1.0  0.69231  0.14411  0.42429  1.0000
  H   H8        1.0  0.62336  0.35594  0.07523  1.0000
  H   H9        1.0  0.92351  0.60786  0.26749  1.0000
  H   H10       1.0  0.54822  0.89248  0.23280  1.0000
  H   H11       1.0  0.07651  0.39215  0.73252  1.0000
  H   H12       1.0  0.45179  0.10752  0.76719  1.0000
  H   H13       1.0  0.99391  0.03813  0.21104  1.0000
  H   H14       1.0  0.24515  0.46219  0.28899  1.0000
  H   H15       1.0  0.00609  0.96188  0.78895  1.0000
  H   H16       1.0  0.75487  0.53781  0.71100  1.0000
  H   H17       1.0  0.83332  0.91690  0.31404  1.0000
  H   H18       1.0  0.10262  0.58329  0.18592  1.0000
  H   H19       1.0  0.16665  0.08309  0.68593  1.0000
  H   H20       1.0  0.89739  0.41670  0.81408  1.0000
  H   H21       1.0  0.29701  0.16632  0.59721  1.0000
  H   H22       1.0  0.03414  0.33385  0.90286  1.0000
  H   H23       1.0  0.70295  0.83367  0.40278  1.0000
  H   H24       1.0  0.96583  0.66614  0.09713  1.0000
  H   H25       1.0  0.44196  0.27017  0.48108  1.0000
  H   H26       1.0  0.19121  0.22999  0.01906  1.0000
  H   H27       1.0  0.55802  0.72982  0.51892  1.0000
  H   H28       1.0  0.80878  0.77001  0.98093  1.0000
  H   H29       1.0  0.67333  0.47220  0.49456  1.0000
  H   H30       1.0  0.20632  0.02757  0.00528  1.0000
  H   H31       1.0  0.32667  0.52780  0.50544  1.0000
  H   H32       1.0  0.79370  0.97244  0.99472  1.0000
  C   C1        1.0  0.84667  0.56778  0.39795  1.0000
  C   C2        1.0  0.38077  0.93216  0.10212  1.0000
  C   C3        1.0  0.15334  0.43222  0.60205  1.0000
  C   C4        1.0  0.61924  0.06784  0.89788  1.0000
  C   C5        1.0  0.89502  0.60396  0.50854  1.0000
  C   C6        1.0  0.28251  0.89589  0.99150  1.0000
  C   C7        1.0  0.10498  0.39604  0.49147  1.0000
  C   C8        1.0  0.71749  0.10412  0.00850  1.0000
  C   C9        1.0  0.06295  0.70682  0.57119  1.0000
  C   C10       1.0  0.28510  0.79299  0.92902  1.0000
  C   C11       1.0  0.93705  0.29318  0.42882  1.0000
  C   C12       1.0  0.71490  0.20702  0.07098  1.0000
  C   C13       1.0  0.17844  0.77633  0.52537  1.0000
  C   C14       1.0  0.37713  0.72365  0.97500  1.0000
  C   C15       1.0  0.82157  0.22366  0.47464  1.0000
  C   C16       1.0  0.62287  0.27635  0.02499  1.0000
  C   C17       1.0  0.12710  0.74215  0.41576  1.0000
  C   C18       1.0  0.46974  0.75809  0.08461  1.0000
  C   C19       1.0  0.87292  0.25786  0.58425  1.0000
  C   C20       1.0  0.53026  0.24190  0.91538  1.0000
  C   C21       1.0  0.96463  0.63820  0.35262  1.0000
  C   C22       1.0  0.47397  0.86199  0.14763  1.0000
  C   C23       1.0  0.03539  0.36181  0.64739  1.0000
  C   C24       1.0  0.52603  0.13801  0.85236  1.0000
  C   C25       1.0  0.67641  0.45463  0.32879  1.0000
  C   C26       1.0  0.39230  0.04520  0.17116  1.0000
  C   C27       1.0  0.32360  0.54539  0.67122  1.0000
  C   C28       1.0  0.60772  0.95480  0.82885  1.0000
  C   C29       1.0  0.05693  0.06217  0.29695  1.0000
  C   C30       1.0  0.19825  0.43810  0.20310  1.0000
  C   C31       1.0  0.94306  0.93783  0.70304  1.0000
  C   C32       1.0  0.80177  0.56190  0.79690  1.0000
  C   C33       1.0  0.96663  0.99629  0.35627  1.0000
  C   C34       1.0  0.11441  0.50391  0.14373  1.0000
  C   C35       1.0  0.03335  0.00370  0.64372  1.0000
  C   C36       1.0  0.88560  0.49609  0.85627  1.0000
  C   C37       1.0  0.04741  0.03226  0.46704  1.0000
  C   C38       1.0  0.04838  0.46785  0.03295  1.0000
  C   C39       1.0  0.95256  0.96774  0.53295  1.0000
  C   C40       1.0  0.95161  0.53214  0.96705  1.0000
  C   C41       1.0  0.22268  0.13282  0.51216  1.0000
  C   C42       1.0  0.07832  0.36742  0.98790  1.0000
  C   C43       1.0  0.77729  0.86717  0.48783  1.0000
  C   C44       1.0  0.92166  0.63257  0.01210  1.0000
  C   C45       1.0  0.30561  0.19294  0.44776  1.0000
  C   C46       1.0  0.16551  0.30730  0.05237  1.0000
  C   C47       1.0  0.69437  0.80704  0.55224  1.0000
  C   C48       1.0  0.83449  0.69269  0.94763  1.0000
  Br  Br1       1.0  0.28275  0.84178  0.35259  1.0000
  Br  Br2       1.0  0.58938  0.65874  0.14798  1.0000
  Br  Br3       1.0  0.71728  0.15826  0.64744  1.0000
  Br  Br4       1.0  0.41062  0.34125  0.85201  1.0000
  N   N1        1.0  0.22386  0.16022  0.34173  1.0000
  N   N2        1.0  0.22239  0.34001  0.15838  1.0000
  N   N3        1.0  0.77614  0.83977  0.65826  1.0000
  N   N4        1.0  0.77762  0.65999  0.84162  1.0000
  O   O1        1.0  0.63950  0.41372  0.23296  1.0000
  O   O2        1.0  0.49173  0.08608  0.26706  1.0000
  O   O3        1.0  0.36051  0.58629  0.76704  1.0000
  O   O4        1.0  0.50825  0.91390  0.73294  1.0000
  O   O5        1.0  0.56376  0.39733  0.37304  1.0000
  O   O6        1.0  0.29261  0.10238  0.12677  1.0000
  O   O7        1.0  0.43626  0.60266  0.62696  1.0000
  O   O8        1.0  0.70742  0.89764  0.87323  1.0000
  O   O9        1.0  0.78326  0.54089  0.55508  1.0000
  O   O10       1.0  0.18733  0.95893  0.94482  1.0000
  O   O11       1.0  0.21673  0.45912  0.44492  1.0000
  O   O12       1.0  0.81267  0.04107  0.05519  1.0000
