data_image0
_chemical_formula_structural       Cd4B20H36C8N8O36
_chemical_formula_sum              "Cd4 B20 H36 C8 N8 O36"
_cell_length_a       6.67253
_cell_length_b       11.2778
_cell_length_c       14.354
_cell_angle_alpha    90.0001
_cell_angle_beta     90
_cell_angle_gamma    92.0261

_space_group_name_H-M_alt    "P 1"
_space_group_IT_number       1

loop_
  _space_group_symop_operation_xyz
  'x, y, z'

loop_
  _atom_site_type_symbol
  _atom_site_label
  _atom_site_symmetry_multiplicity
  _atom_site_fract_x
  _atom_site_fract_y
  _atom_site_fract_z
  _atom_site_occupancy
  Cd  Cd1       1.0  0.88730  0.29123  0.26738  1.0000
  Cd  Cd2       1.0  0.61270  0.20877  0.76738  1.0000
  Cd  Cd3       1.0  0.11269  0.70877  0.73262  1.0000
  Cd  Cd4       1.0  0.38731  0.79123  0.23262  1.0000
  B   B1        1.0  0.29711  0.42781  0.44200  1.0000
  B   B2        1.0  0.20289  0.07219  0.94200  1.0000
  B   B3        1.0  0.70289  0.57219  0.55800  1.0000
  B   B4        1.0  0.79711  0.92781  0.05800  1.0000
  B   B5        1.0  0.42114  0.32756  0.30598  1.0000
  B   B6        1.0  0.07885  0.17244  0.80598  1.0000
  B   B7        1.0  0.57885  0.67244  0.69402  1.0000
  B   B8        1.0  0.92115  0.82756  0.19402  1.0000
  B   B9        1.0  0.19825  0.48587  0.28184  1.0000
  B   B10       1.0  0.30175  0.01413  0.78185  1.0000
  B   B11       1.0  0.80175  0.51413  0.71815  1.0000
  B   B12       1.0  0.69825  0.98587  0.21815  1.0000
  B   B13       1.0  0.89983  0.60707  0.22754  1.0000
  B   B14       1.0  0.60017  0.89293  0.72754  1.0000
  B   B15       1.0  0.10017  0.39293  0.77246  1.0000
  B   B16       1.0  0.39983  0.10707  0.27246  1.0000
  B   B17       1.0  0.54559  0.52341  0.24155  1.0000
  B   B18       1.0  0.95441  0.97659  0.74155  1.0000
  B   B19       1.0  0.45441  0.47659  0.75845  1.0000
  B   B20       1.0  0.04559  0.02341  0.25845  1.0000
  H   H1        1.0  0.33063  0.38329  0.57386  1.0000
  H   H2        1.0  0.16938  0.11671  0.07386  1.0000
  H   H3        1.0  0.66938  0.61671  0.42615  1.0000
  H   H4        1.0  0.83062  0.88329  0.92614  1.0000
  H   H5        1.0  0.68772  0.42420  0.09379  1.0000
  H   H6        1.0  0.81228  0.07580  0.59379  1.0000
  H   H7        1.0  0.31228  0.57580  0.90621  1.0000
  H   H8        1.0  0.18772  0.92420  0.40621  1.0000
  H   H9        1.0  0.53405  0.29412  0.10465  1.0000
  H   H10       1.0  0.96595  0.20588  0.60465  1.0000
  H   H11       1.0  0.46595  0.70588  0.89535  1.0000
  H   H12       1.0  0.03405  0.79412  0.39535  1.0000
  H   H13       1.0  0.51828  0.37160  0.94510  1.0000
  H   H14       1.0  0.98172  0.12840  0.44510  1.0000
  H   H15       1.0  0.48173  0.62840  0.05490  1.0000
  H   H16       1.0  0.01828  0.87160  0.55490  1.0000
  H   H17       1.0  0.78154  0.37905  0.93418  1.0000
  H   H18       1.0  0.71846  0.12095  0.43418  1.0000
  H   H19       1.0  0.21847  0.62095  0.06582  1.0000
  H   H20       1.0  0.28153  0.87905  0.56582  1.0000
  H   H21       1.0  0.96890  0.28732  0.07450  1.0000
  H   H22       1.0  0.53109  0.21268  0.57450  1.0000
  H   H23       1.0  0.03109  0.71268  0.92551  1.0000
  H   H24       1.0  0.46891  0.78732  0.42550  1.0000
  H   H25       1.0  0.80978  0.17521  0.10258  1.0000
  H   H26       1.0  0.69022  0.32479  0.60258  1.0000
  H   H27       1.0  0.19021  0.82480  0.89742  1.0000
  H   H28       1.0  0.30978  0.67521  0.39742  1.0000
  H   H29       1.0  0.55462  0.15130  0.95657  1.0000
  H   H30       1.0  0.94539  0.34870  0.45657  1.0000
  H   H31       1.0  0.44539  0.84870  0.04343  1.0000
  H   H32       1.0  0.05461  0.65130  0.54343  1.0000
  H   H33       1.0  0.79350  0.17249  0.93158  1.0000
  H   H34       1.0  0.70650  0.32752  0.43158  1.0000
  H   H35       1.0  0.20650  0.82752  0.06842  1.0000
  H   H36       1.0  0.29350  0.67248  0.56842  1.0000
  C   C1        1.0  0.67135  0.33102  0.07189  1.0000
  C   C2        1.0  0.82865  0.16899  0.57189  1.0000
  C   C3        1.0  0.32865  0.66899  0.92811  1.0000
  C   C4        1.0  0.17135  0.83101  0.42811  1.0000
  C   C5        1.0  0.65601  0.32800  0.96601  1.0000
  C   C6        1.0  0.84399  0.17201  0.46601  1.0000
  C   C7        1.0  0.34399  0.67201  0.03399  1.0000
  C   C8        1.0  0.15601  0.82800  0.53399  1.0000
  N   N1        1.0  0.84046  0.26530  0.11050  1.0000
  N   N2        1.0  0.65954  0.23470  0.61050  1.0000
  N   N3        1.0  0.15954  0.73470  0.88950  1.0000
  N   N4        1.0  0.34046  0.76530  0.38950  1.0000
  N   N5        1.0  0.65479  0.20871  0.92437  1.0000
  N   N6        1.0  0.84521  0.29130  0.42437  1.0000
  N   N7        1.0  0.34522  0.79130  0.07563  1.0000
  N   N8        1.0  0.15478  0.70871  0.57563  1.0000
  O   O1        1.0  0.26596  0.44326  0.53720  1.0000
  O   O2        1.0  0.23405  0.05675  0.03720  1.0000
  O   O3        1.0  0.73404  0.55675  0.46279  1.0000
  O   O4        1.0  0.76596  0.94326  0.96280  1.0000
  O   O5        1.0  0.40194  0.33341  0.40994  1.0000
  O   O6        1.0  0.09806  0.16659  0.90994  1.0000
  O   O7        1.0  0.59806  0.66659  0.59006  1.0000
  O   O8        1.0  0.90195  0.83341  0.09006  1.0000
  O   O9        1.0  0.23433  0.36077  0.26191  1.0000
  O   O10       1.0  0.26567  0.13923  0.76192  1.0000
  O   O11       1.0  0.76568  0.63923  0.73809  1.0000
  O   O12       1.0  0.73433  0.86077  0.23808  1.0000
  O   O13       1.0  0.21190  0.50959  0.38472  1.0000
  O   O14       1.0  0.28810  0.99041  0.88472  1.0000
  O   O15       1.0  0.78810  0.49041  0.61528  1.0000
  O   O16       1.0  0.71190  0.00959  0.11528  1.0000
  O   O17       1.0  0.99567  0.50564  0.24808  1.0000
  O   O18       1.0  0.50433  0.99436  0.74808  1.0000
  O   O19       1.0  0.00432  0.49436  0.75192  1.0000
  O   O20       1.0  0.49568  0.00564  0.25192  1.0000
  O   O21       1.0  0.99974  0.71374  0.22114  1.0000
  O   O22       1.0  0.50025  0.78626  0.72115  1.0000
  O   O23       1.0  0.00025  0.28626  0.77885  1.0000
  O   O24       1.0  0.49975  0.21374  0.27885  1.0000
  O   O25       1.0  0.69400  0.60318  0.21119  1.0000
  O   O26       1.0  0.80599  0.89682  0.71119  1.0000
  O   O27       1.0  0.30600  0.39682  0.78880  1.0000
  O   O28       1.0  0.19401  0.10318  0.28881  1.0000
  O   O29       1.0  0.35420  0.56429  0.23608  1.0000
  O   O30       1.0  0.14580  0.93571  0.73608  1.0000
  O   O31       1.0  0.64580  0.43571  0.76392  1.0000
  O   O32       1.0  0.85420  0.06429  0.26392  1.0000
  O   O33       1.0  0.58663  0.41472  0.27649  1.0000
  O   O34       1.0  0.91337  0.08528  0.77648  1.0000
  O   O35       1.0  0.41337  0.58528  0.72352  1.0000
  O   O36       1.0  0.08663  0.91472  0.22352  1.0000
