data_image0
_chemical_formula_structural       Zn4H28C40N12O20
_chemical_formula_sum              "Zn4 H28 C40 N12 O20"
_cell_length_a       6.71932
_cell_length_b       8.41037
_cell_length_c       17.5721
_cell_angle_alpha    89.9999
_cell_angle_beta     90.0001
_cell_angle_gamma    89.9998

_space_group_name_H-M_alt    "P 1"
_space_group_IT_number       1

loop_
  _space_group_symop_operation_xyz
  'x, y, z'

loop_
  _atom_site_type_symbol
  _atom_site_label
  _atom_site_symmetry_multiplicity
  _atom_site_fract_x
  _atom_site_fract_y
  _atom_site_fract_z
  _atom_site_occupancy
  Zn  Zn1       1.0  0.25729  0.90493  0.68771  1.0000
  Zn  Zn2       1.0  0.24271  0.09508  0.18771  1.0000
  Zn  Zn3       1.0  0.75729  0.59508  0.31229  1.0000
  Zn  Zn4       1.0  0.74271  0.40492  0.81229  1.0000
  H   H1        1.0  0.79775  0.57469  0.52169  1.0000
  H   H2        1.0  0.70225  0.42531  0.02169  1.0000
  H   H3        1.0  0.29775  0.92531  0.47831  1.0000
  H   H4        1.0  0.20225  0.07469  0.97831  1.0000
  H   H5        1.0  0.96740  0.19303  0.70300  1.0000
  H   H6        1.0  0.53261  0.80697  0.20300  1.0000
  H   H7        1.0  0.46739  0.30697  0.29700  1.0000
  H   H8        1.0  0.03261  0.69303  0.79700  1.0000
  H   H9        1.0  0.13167  0.52952  0.52755  1.0000
  H   H10       1.0  0.36833  0.47048  0.02755  1.0000
  H   H11       1.0  0.63167  0.97047  0.47245  1.0000
  H   H12       1.0  0.86833  0.02953  0.97245  1.0000
  H   H13       1.0  0.48909  0.11949  0.58229  1.0000
  H   H14       1.0  0.01091  0.88050  0.08229  1.0000
  H   H15       1.0  0.98908  0.38051  0.41771  1.0000
  H   H16       1.0  0.51091  0.61950  0.91771  1.0000
  H   H17       1.0  0.43178  0.36545  0.50268  1.0000
  H   H18       1.0  0.06822  0.63455  0.00268  1.0000
  H   H19       1.0  0.93178  0.13455  0.49732  1.0000
  H   H20       1.0  0.56822  0.86545  0.99732  1.0000
  H   H21       1.0  0.94118  0.84766  0.60750  1.0000
  H   H22       1.0  0.55882  0.15234  0.10750  1.0000
  H   H23       1.0  0.44118  0.65234  0.39250  1.0000
  H   H24       1.0  0.05882  0.34766  0.89250  1.0000
  H   H25       1.0  0.82922  0.91603  0.68088  1.0000
  H   H26       1.0  0.67079  0.08397  0.18088  1.0000
  H   H27       1.0  0.32921  0.58397  0.31912  1.0000
  H   H28       1.0  0.17079  0.41603  0.81912  1.0000
  C   C1        1.0  0.40564  0.57411  0.73514  1.0000
  C   C2        1.0  0.09437  0.42589  0.23514  1.0000
  C   C3        1.0  0.90563  0.92589  0.26486  1.0000
  C   C4        1.0  0.59436  0.07411  0.76486  1.0000
  C   C5        1.0  0.02629  0.37577  0.61826  1.0000
  C   C6        1.0  0.47372  0.62423  0.11826  1.0000
  C   C7        1.0  0.52628  0.12423  0.38174  1.0000
  C   C8        1.0  0.97372  0.87577  0.88174  1.0000
  C   C9        1.0  0.06866  0.23581  0.65889  1.0000
  C   C10       1.0  0.43134  0.76419  0.15889  1.0000
  C   C11       1.0  0.56866  0.26419  0.34111  1.0000
  C   C12       1.0  0.93135  0.73581  0.84111  1.0000
  C   C13       1.0  0.45647  0.71695  0.55462  1.0000
  C   C14       1.0  0.04353  0.28305  0.05462  1.0000
  C   C15       1.0  0.95647  0.78306  0.44538  1.0000
  C   C16       1.0  0.54352  0.21695  0.94538  1.0000
  C   C17       1.0  0.15768  0.42151  0.56029  1.0000
  C   C18       1.0  0.34232  0.57849  0.06029  1.0000
  C   C19       1.0  0.65767  0.07849  0.43971  1.0000
  C   C20       1.0  0.84232  0.92152  0.93971  1.0000
  C   C21       1.0  0.57472  0.56916  0.68143  1.0000
  C   C22       1.0  0.92528  0.43084  0.18143  1.0000
  C   C23       1.0  0.07472  0.93084  0.31857  1.0000
  C   C24       1.0  0.42528  0.06916  0.81857  1.0000
  C   C25       1.0  0.58558  0.62271  0.60679  1.0000
  C   C26       1.0  0.91442  0.37729  0.10679  1.0000
  C   C27       1.0  0.08558  0.87729  0.39321  1.0000
  C   C28       1.0  0.41442  0.12271  0.89321  1.0000
  C   C29       1.0  0.35851  0.19443  0.58996  1.0000
  C   C30       1.0  0.14149  0.80556  0.08996  1.0000
  C   C31       1.0  0.85850  0.30556  0.41004  1.0000
  C   C32       1.0  0.64149  0.69444  0.91004  1.0000
  C   C33       1.0  0.84417  0.46557  0.63222  1.0000
  C   C34       1.0  0.65583  0.53443  0.13222  1.0000
  C   C35       1.0  0.34417  0.03443  0.36778  1.0000
  C   C36       1.0  0.15583  0.96557  0.86778  1.0000
  C   C37       1.0  0.32595  0.32978  0.54627  1.0000
  C   C38       1.0  0.17405  0.67022  0.04627  1.0000
  C   C39       1.0  0.82594  0.17022  0.45373  1.0000
  C   C40       1.0  0.67405  0.82978  0.95372  1.0000
  N   N1        1.0  0.73588  0.47278  0.69624  1.0000
  N   N2        1.0  0.76413  0.52722  0.19624  1.0000
  N   N3        1.0  0.23587  0.02721  0.30376  1.0000
  N   N4        1.0  0.26413  0.97278  0.80376  1.0000
  N   N5        1.0  0.75298  0.55348  0.57717  1.0000
  N   N6        1.0  0.74702  0.44652  0.07717  1.0000
  N   N7        1.0  0.25298  0.94652  0.42283  1.0000
  N   N8        1.0  0.24702  0.05348  0.92283  1.0000
  N   N9        1.0  0.23003  0.14688  0.64420  1.0000
  N   N10       1.0  0.26997  0.85312  0.14420  1.0000
  N   N11       1.0  0.73002  0.35311  0.35580  1.0000
  N   N12       1.0  0.76998  0.64688  0.85580  1.0000
  O   O1        1.0  0.26057  0.66632  0.72130  1.0000
  O   O2        1.0  0.23943  0.33367  0.22130  1.0000
  O   O3        1.0  0.76057  0.83368  0.27870  1.0000
  O   O4        1.0  0.73943  0.16632  0.77870  1.0000
  O   O5        1.0  0.41029  0.47578  0.79052  1.0000
  O   O6        1.0  0.08970  0.52421  0.29052  1.0000
  O   O7        1.0  0.91029  0.02422  0.20948  1.0000
  O   O8        1.0  0.58971  0.97579  0.70948  1.0000
  O   O9        1.0  0.45321  0.66851  0.48692  1.0000
  O   O10       1.0  0.04677  0.33149  0.98692  1.0000
  O   O11       1.0  0.95323  0.83150  0.51308  1.0000
  O   O12       1.0  0.54677  0.16851  0.01308  1.0000
  O   O13       1.0  0.36332  0.84048  0.57817  1.0000
  O   O14       1.0  0.13668  0.15952  0.07817  1.0000
  O   O15       1.0  0.86332  0.65953  0.42184  1.0000
  O   O16       1.0  0.63667  0.34048  0.92183  1.0000
  O   O17       1.0  0.95424  0.86404  0.66311  1.0000
  O   O18       1.0  0.54577  0.13596  0.16311  1.0000
  O   O19       1.0  0.45423  0.63596  0.33689  1.0000
  O   O20       1.0  0.04577  0.36404  0.83689  1.0000
