data_image0
_chemical_formula_structural       Li4H28C24O28
_chemical_formula_sum              "Li4 H28 C24 O28"
_cell_length_a       7.44423
_cell_length_b       9.14318
_cell_length_c       11.2258
_cell_angle_alpha    90
_cell_angle_beta     90.0003
_cell_angle_gamma    108.242

_space_group_name_H-M_alt    "P 1"
_space_group_IT_number       1

loop_
  _space_group_symop_operation_xyz
  'x, y, z'

loop_
  _atom_site_type_symbol
  _atom_site_label
  _atom_site_symmetry_multiplicity
  _atom_site_fract_x
  _atom_site_fract_y
  _atom_site_fract_z
  _atom_site_occupancy
  Li  Li1       1.0  0.10632  0.09396  0.12389  1.0000
  Li  Li2       1.0  0.89368  0.40604  0.62389  1.0000
  Li  Li3       1.0  0.89368  0.90604  0.87611  1.0000
  Li  Li4       1.0  0.10632  0.59396  0.37611  1.0000
  H   H1        1.0  0.71951  0.18153  0.18375  1.0000
  H   H2        1.0  0.28049  0.31847  0.68375  1.0000
  H   H3        1.0  0.28049  0.81847  0.81625  1.0000
  H   H4        1.0  0.71951  0.68153  0.31625  1.0000
  H   H5        1.0  0.79901  0.38473  0.18707  1.0000
  H   H6        1.0  0.20099  0.11528  0.68707  1.0000
  H   H7        1.0  0.20099  0.61527  0.81293  1.0000
  H   H8        1.0  0.79901  0.88472  0.31293  1.0000
  H   H9        1.0  0.71183  0.44255  0.41412  1.0000
  H   H10       1.0  0.28817  0.05745  0.91412  1.0000
  H   H11       1.0  0.28817  0.55745  0.58588  1.0000
  H   H12       1.0  0.71183  0.94255  0.08588  1.0000
  H   H13       1.0  0.63406  0.04130  0.37398  1.0000
  H   H14       1.0  0.36594  0.45870  0.87398  1.0000
  H   H15       1.0  0.36594  0.95870  0.62602  1.0000
  H   H16       1.0  0.63406  0.54130  0.12602  1.0000
  H   H17       1.0  0.57333  0.16896  0.47181  1.0000
  H   H18       1.0  0.42667  0.33104  0.97181  1.0000
  H   H19       1.0  0.42667  0.83104  0.52819  1.0000
  H   H20       1.0  0.57332  0.66896  0.02819  1.0000
  H   H21       1.0  0.84560  0.92694  0.61612  1.0000
  H   H22       1.0  0.15439  0.57306  0.11612  1.0000
  H   H23       1.0  0.15439  0.07306  0.38388  1.0000
  H   H24       1.0  0.84561  0.42693  0.88388  1.0000
  H   H25       1.0  0.33922  0.37637  0.32685  1.0000
  H   H26       1.0  0.66078  0.12362  0.82685  1.0000
  H   H27       1.0  0.66078  0.62362  0.67315  1.0000
  H   H28       1.0  0.33921  0.87637  0.17315  1.0000
  C   C1        1.0  0.51287  0.28199  0.24060  1.0000
  C   C2        1.0  0.48713  0.21801  0.74060  1.0000
  C   C3        1.0  0.48714  0.71801  0.75940  1.0000
  C   C4        1.0  0.51287  0.78199  0.25940  1.0000
  C   C5        1.0  0.71543  0.28147  0.23578  1.0000
  C   C6        1.0  0.28457  0.21853  0.73579  1.0000
  C   C7        1.0  0.28457  0.71853  0.76422  1.0000
  C   C8        1.0  0.71542  0.78147  0.26421  1.0000
  C   C9        1.0  0.80989  0.28044  0.35780  1.0000
  C   C10       1.0  0.19011  0.21956  0.85781  1.0000
  C   C11       1.0  0.19011  0.71956  0.64220  1.0000
  C   C12       1.0  0.80989  0.78044  0.14219  1.0000
  C   C13       1.0  0.69319  0.14114  0.43156  1.0000
  C   C14       1.0  0.30681  0.35886  0.93156  1.0000
  C   C15       1.0  0.30681  0.85886  0.56844  1.0000
  C   C16       1.0  0.69319  0.64114  0.06844  1.0000
  C   C17       1.0  0.80822  0.10161  0.52943  1.0000
  C   C18       1.0  0.19178  0.39839  0.02943  1.0000
  C   C19       1.0  0.19177  0.89839  0.47057  1.0000
  C   C20       1.0  0.80822  0.60161  0.97057  1.0000
  C   C21       1.0  0.00929  0.26750  0.33519  1.0000
  C   C22       1.0  0.99071  0.23250  0.83519  1.0000
  C   C23       1.0  0.99071  0.73250  0.66481  1.0000
  C   C24       1.0  0.00929  0.76750  0.16481  1.0000
  O   O1        1.0  0.48240  0.37720  0.32263  1.0000
  O   O2        1.0  0.51760  0.12280  0.82263  1.0000
  O   O3        1.0  0.51760  0.62280  0.67737  1.0000
  O   O4        1.0  0.48240  0.87720  0.17737  1.0000
  O   O5        1.0  0.39096  0.20537  0.17144  1.0000
  O   O6        1.0  0.60904  0.29463  0.67144  1.0000
  O   O7        1.0  0.60904  0.79463  0.82855  1.0000
  O   O8        1.0  0.39096  0.70537  0.32856  1.0000
  O   O9        1.0  0.76057  0.95233  0.55258  1.0000
  O   O10       1.0  0.23943  0.54767  0.05258  1.0000
  O   O11       1.0  0.23943  0.04767  0.44742  1.0000
  O   O12       1.0  0.76057  0.45233  0.94742  1.0000
  O   O13       1.0  0.93551  0.20084  0.58181  1.0000
  O   O14       1.0  0.06449  0.29916  0.08181  1.0000
  O   O15       1.0  0.06448  0.79916  0.41819  1.0000
  O   O16       1.0  0.93551  0.70084  0.91819  1.0000
  O   O17       1.0  0.01671  0.13471  0.30792  1.0000
  O   O18       1.0  0.98329  0.36529  0.80792  1.0000
  O   O19       1.0  0.98329  0.86529  0.69208  1.0000
  O   O20       1.0  0.01671  0.63471  0.19208  1.0000
  O   O21       1.0  0.14969  0.38894  0.34536  1.0000
  O   O22       1.0  0.85031  0.11106  0.84537  1.0000
  O   O23       1.0  0.85031  0.61106  0.65463  1.0000
  O   O24       1.0  0.14969  0.88894  0.15463  1.0000
  O   O25       1.0  0.83376  0.42238  0.42171  1.0000
  O   O26       1.0  0.16624  0.07763  0.92171  1.0000
  O   O27       1.0  0.16624  0.57763  0.57829  1.0000
  O   O28       1.0  0.83375  0.92237  0.07829  1.0000
