data_image0
_chemical_formula_structural       Ca2H20C12N16O12
_chemical_formula_sum              "Ca2 H20 C12 N16 O12"
_cell_length_a       7.24322
_cell_length_b       9.32559
_cell_length_c       9.99372
_cell_angle_alpha    106.902
_cell_angle_beta     89.9997
_cell_angle_gamma    89.9998

_space_group_name_H-M_alt    "P 1"
_space_group_IT_number       1

loop_
  _space_group_symop_operation_xyz
  'x, y, z'

loop_
  _atom_site_type_symbol
  _atom_site_label
  _atom_site_symmetry_multiplicity
  _atom_site_fract_x
  _atom_site_fract_y
  _atom_site_fract_z
  _atom_site_occupancy
  Ca  Ca1       1.0  0.50000  0.50000  0.00000  1.0000
  Ca  Ca2       1.0  0.00000  0.50000  0.50000  1.0000
  H   H1        1.0  0.59166  0.34248  0.34455  1.0000
  H   H2        1.0  0.09166  0.65752  0.15545  1.0000
  H   H3        1.0  0.40834  0.65752  0.65545  1.0000
  H   H4        1.0  0.90834  0.34248  0.84455  1.0000
  H   H5        1.0  0.42982  0.16081  0.62815  1.0000
  H   H6        1.0  0.92982  0.83919  0.87186  1.0000
  H   H7        1.0  0.57018  0.83919  0.37185  1.0000
  H   H8        1.0  0.07018  0.16081  0.12814  1.0000
  H   H9        1.0  0.62990  0.25886  0.59943  1.0000
  H   H10       1.0  0.12990  0.74114  0.90057  1.0000
  H   H11       1.0  0.37010  0.74114  0.40057  1.0000
  H   H12       1.0  0.87010  0.25886  0.09943  1.0000
  H   H13       1.0  0.39304  0.84868  0.10194  1.0000
  H   H14       1.0  0.89305  0.15133  0.39806  1.0000
  H   H15       1.0  0.60696  0.15132  0.89806  1.0000
  H   H16       1.0  0.10696  0.84867  0.60194  1.0000
  H   H17       1.0  0.47741  0.80230  0.95040  1.0000
  H   H18       1.0  0.97742  0.19770  0.54960  1.0000
  H   H19       1.0  0.52259  0.19770  0.04960  1.0000
  H   H20       1.0  0.02258  0.80230  0.45040  1.0000
  C   C1        1.0  0.51080  0.24044  0.32710  1.0000
  C   C2        1.0  0.01080  0.75956  0.17290  1.0000
  C   C3        1.0  0.48920  0.75955  0.67290  1.0000
  C   C4        1.0  0.98920  0.24044  0.82710  1.0000
  C   C5        1.0  0.48102  0.24373  0.57910  1.0000
  C   C6        1.0  0.98101  0.75627  0.92090  1.0000
  C   C7        1.0  0.51899  0.75627  0.42090  1.0000
  C   C8        1.0  0.01899  0.24373  0.07910  1.0000
  C   C9        1.0  0.38370  0.39409  0.64294  1.0000
  C   C10       1.0  0.88368  0.60592  0.85707  1.0000
  C   C11       1.0  0.61630  0.60591  0.35705  1.0000
  C   C12       1.0  0.11631  0.39408  0.14293  1.0000
  N   N1        1.0  0.45417  0.18347  0.42932  1.0000
  N   N2        1.0  0.95417  0.81653  0.07068  1.0000
  N   N3        1.0  0.54583  0.81653  0.57068  1.0000
  N   N4        1.0  0.04582  0.18347  0.92932  1.0000
  N   N5        1.0  0.35835  0.05654  0.37140  1.0000
  N   N6        1.0  0.85835  0.94346  0.12860  1.0000
  N   N7        1.0  0.64165  0.94346  0.62860  1.0000
  N   N8        1.0  0.14165  0.05654  0.87140  1.0000
  N   N9        1.0  0.35945  0.03749  0.23687  1.0000
  N   N10       1.0  0.85945  0.96251  0.26314  1.0000
  N   N11       1.0  0.64055  0.96251  0.76313  1.0000
  N   N12       1.0  0.14055  0.03749  0.73686  1.0000
  N   N13       1.0  0.45291  0.15059  0.20587  1.0000
  N   N14       1.0  0.95291  0.84941  0.29413  1.0000
  N   N15       1.0  0.54709  0.84941  0.79413  1.0000
  N   N16       1.0  0.04709  0.15059  0.70587  1.0000
  O   O1        1.0  0.40720  0.45136  0.77224  1.0000
  O   O2        1.0  0.90719  0.54864  0.72776  1.0000
  O   O3        1.0  0.59280  0.54864  0.22776  1.0000
  O   O4        1.0  0.09280  0.45136  0.27224  1.0000
  O   O5        1.0  0.29270  0.45121  0.56313  1.0000
  O   O6        1.0  0.79271  0.54880  0.93687  1.0000
  O   O7        1.0  0.70730  0.54879  0.43687  1.0000
  O   O8        1.0  0.20729  0.45120  0.06313  1.0000
  O   O9        1.0  0.42661  0.76006  0.02378  1.0000
  O   O10       1.0  0.92661  0.23995  0.47622  1.0000
  O   O11       1.0  0.57339  0.23994  0.97622  1.0000
  O   O12       1.0  0.07339  0.76005  0.52378  1.0000
