data_image0
_chemical_formula_structural       Er4H20C24N8O24
_chemical_formula_sum              "Er4 H20 C24 N8 O24"
_cell_length_a       5.99248
_cell_length_b       11.8198
_cell_length_c       12.4005
_cell_angle_alpha    77.1254
_cell_angle_beta     76.0026
_cell_angle_gamma    75.2873

_space_group_name_H-M_alt    "P 1"
_space_group_IT_number       1

loop_
  _space_group_symop_operation_xyz
  'x, y, z'

loop_
  _atom_site_type_symbol
  _atom_site_label
  _atom_site_symmetry_multiplicity
  _atom_site_fract_x
  _atom_site_fract_y
  _atom_site_fract_z
  _atom_site_occupancy
  Er  Er1       1.0  0.56566  0.97231  0.63926  1.0000
  Er  Er2       1.0  0.17749  0.52754  0.86075  1.0000
  Er  Er3       1.0  0.43434  0.02769  0.36075  1.0000
  Er  Er4       1.0  0.82251  0.47246  0.13925  1.0000
  H   H1        1.0  0.30518  0.14098  0.78899  1.0000
  H   H2        1.0  0.23519  0.35904  0.71090  1.0000
  H   H3        1.0  0.69482  0.85902  0.21101  1.0000
  H   H4        1.0  0.76481  0.64096  0.28910  1.0000
  H   H5        1.0  0.14522  0.15707  0.69533  1.0000
  H   H6        1.0  0.99783  0.34291  0.80475  1.0000
  H   H7        1.0  0.85478  0.84293  0.30467  1.0000
  H   H8        1.0  0.00218  0.65709  0.19525  1.0000
  H   H9        1.0  0.16620  0.93672  0.57190  1.0000
  H   H10       1.0  0.67478  0.56337  0.92807  1.0000
  H   H11       1.0  0.83380  0.06328  0.42810  1.0000
  H   H12       1.0  0.32521  0.43663  0.07192  1.0000
  H   H13       1.0  0.27873  0.51340  0.33402  1.0000
  H   H14       1.0  0.12684  0.98676  0.16610  1.0000
  H   H15       1.0  0.72127  0.48660  0.66598  1.0000
  H   H16       1.0  0.87315  0.01324  0.83390  1.0000
  H   H17       1.0  0.12210  0.44616  0.54350  1.0000
  H   H18       1.0  0.11285  0.05366  0.95664  1.0000
  H   H19       1.0  0.87790  0.55385  0.45649  1.0000
  H   H20       1.0  0.88716  0.94634  0.04336  1.0000
  C   C1        1.0  0.81281  0.20754  0.60303  1.0000
  C   C2        1.0  0.62404  0.29235  0.89690  1.0000
  C   C3        1.0  0.18719  0.79246  0.39697  1.0000
  C   C4        1.0  0.37596  0.70765  0.10309  1.0000
  C   C5        1.0  0.65814  0.28763  0.52307  1.0000
  C   C6        1.0  0.46953  0.21231  0.97691  1.0000
  C   C7        1.0  0.34186  0.71237  0.47694  1.0000
  C   C8        1.0  0.53047  0.78769  0.02308  1.0000
  C   C9        1.0  0.74051  0.31923  0.40634  1.0000
  C   C10       1.0  0.46678  0.18076  0.09365  1.0000
  C   C11       1.0  0.25949  0.68077  0.59366  1.0000
  C   C12       1.0  0.53322  0.81924  0.90635  1.0000
  C   C13       1.0  0.97795  0.26423  0.34319  1.0000
  C   C14       1.0  0.58601  0.23578  0.15673  1.0000
  C   C15       1.0  0.02205  0.73577  0.65681  1.0000
  C   C16       1.0  0.41398  0.76422  0.84327  1.0000
  C   C17       1.0  0.38543  0.44741  0.38832  1.0000
  C   C18       1.0  0.22189  0.05269  0.11177  1.0000
  C   C19       1.0  0.61457  0.55259  0.61168  1.0000
  C   C20       1.0  0.77811  0.94731  0.88823  1.0000
  C   C21       1.0  0.30153  0.41183  0.50287  1.0000
  C   C22       1.0  0.21714  0.08813  0.99721  1.0000
  C   C23       1.0  0.69846  0.58817  0.49713  1.0000
  C   C24       1.0  0.78286  0.91187  0.00279  1.0000
  N   N1        1.0  0.43726  0.33593  0.57040  1.0000
  N   N2        1.0  0.34436  0.16401  0.92962  1.0000
  N   N3        1.0  0.56274  0.66407  0.42960  1.0000
  N   N4        1.0  0.65564  0.83599  0.07038  1.0000
  N   N5        1.0  0.60691  0.40212  0.34152  1.0000
  N   N6        1.0  0.35116  0.09798  0.15855  1.0000
  N   N7        1.0  0.39310  0.59789  0.65848  1.0000
  N   N8        1.0  0.64884  0.90202  0.84145  1.0000
  O   O1        1.0  0.76579  0.10708  0.65139  1.0000
  O   O2        1.0  0.52473  0.39274  0.84845  1.0000
  O   O3        1.0  0.23421  0.89293  0.34861  1.0000
  O   O4        1.0  0.47528  0.60726  0.15155  1.0000
  O   O5        1.0  0.97107  0.25078  0.61846  1.0000
  O   O6        1.0  0.84106  0.24909  0.88154  1.0000
  O   O7        1.0  0.02893  0.74922  0.38155  1.0000
  O   O8        1.0  0.15895  0.75091  0.11845  1.0000
  O   O9        1.0  0.08579  0.16583  0.39090  1.0000
  O   O10       1.0  0.64264  0.33426  0.10904  1.0000
  O   O11       1.0  0.91421  0.83417  0.60910  1.0000
  O   O12       1.0  0.35737  0.66573  0.89096  1.0000
  O   O13       1.0  0.04991  0.31910  0.24634  1.0000
  O   O14       1.0  0.61605  0.18090  0.25358  1.0000
  O   O15       1.0  0.95009  0.68090  0.75366  1.0000
  O   O16       1.0  0.38393  0.81910  0.74642  1.0000
  O   O17       1.0  0.26855  0.09982  0.73591  1.0000
  O   O18       1.0  0.10444  0.40015  0.76413  1.0000
  O   O19       1.0  0.73145  0.90018  0.26408  1.0000
  O   O20       1.0  0.89556  0.59985  0.23586  1.0000
  O   O21       1.0  0.31154  0.96539  0.54232  1.0000
  O   O22       1.0  0.81925  0.53466  0.95765  1.0000
  O   O23       1.0  0.68846  0.03461  0.45768  1.0000
  O   O24       1.0  0.18075  0.46534  0.04234  1.0000
