data_image0
_chemical_formula_structural       Li4H28C16O24
_chemical_formula_sum              "Li4 H28 C16 O24"
_cell_length_a       5.83076
_cell_length_b       5.95924
_cell_length_c       18.7098
_cell_angle_alpha    90.0004
_cell_angle_beta     90.6399
_cell_angle_gamma    90.0005

_space_group_name_H-M_alt    "P 1"
_space_group_IT_number       1

loop_
  _space_group_symop_operation_xyz
  'x, y, z'

loop_
  _atom_site_type_symbol
  _atom_site_label
  _atom_site_symmetry_multiplicity
  _atom_site_fract_x
  _atom_site_fract_y
  _atom_site_fract_z
  _atom_site_occupancy
  Li  Li1       1.0  0.79182  0.39188  0.27555  1.0000
  Li  Li2       1.0  0.70820  0.89187  0.22445  1.0000
  Li  Li3       1.0  0.20819  0.60813  0.72445  1.0000
  Li  Li4       1.0  0.29180  0.10814  0.77555  1.0000
  H   H1        1.0  0.92644  0.24701  0.40918  1.0000
  H   H2        1.0  0.57354  0.74700  0.09082  1.0000
  H   H3        1.0  0.07356  0.75299  0.59082  1.0000
  H   H4        1.0  0.42644  0.25298  0.90918  1.0000
  H   H5        1.0  0.01334  0.23932  0.53100  1.0000
  H   H6        1.0  0.48667  0.73932  0.96900  1.0000
  H   H7        1.0  0.98668  0.76068  0.46900  1.0000
  H   H8        1.0  0.51332  0.26067  0.03100  1.0000
  H   H9        1.0  0.54149  0.23951  0.16950  1.0000
  H   H10       1.0  0.95852  0.73952  0.33050  1.0000
  H   H11       1.0  0.45851  0.76049  0.83050  1.0000
  H   H12       1.0  0.04149  0.26048  0.66950  1.0000
  H   H13       1.0  0.80266  0.23505  0.14824  1.0000
  H   H14       1.0  0.69735  0.73506  0.35176  1.0000
  H   H15       1.0  0.19734  0.76495  0.85176  1.0000
  H   H16       1.0  0.30266  0.26495  0.64824  1.0000
  H   H17       1.0  0.15506  0.26265  0.22680  1.0000
  H   H18       1.0  0.34495  0.76265  0.27320  1.0000
  H   H19       1.0  0.84494  0.73736  0.77320  1.0000
  H   H20       1.0  0.65505  0.23736  0.72679  1.0000
  H   H21       1.0  0.24264  0.28523  0.30542  1.0000
  H   H22       1.0  0.25738  0.78521  0.19458  1.0000
  H   H23       1.0  0.75736  0.71477  0.69458  1.0000
  H   H24       1.0  0.74262  0.21478  0.80542  1.0000
  H   H25       1.0  0.40020  0.24639  0.50028  1.0000
  H   H26       1.0  0.09979  0.74638  0.99973  1.0000
  H   H27       1.0  0.59981  0.75362  0.49973  1.0000
  H   H28       1.0  0.90019  0.25361  0.00027  1.0000
  C   C1        1.0  0.55668  0.25967  0.40785  1.0000
  C   C2        1.0  0.94331  0.75965  0.09215  1.0000
  C   C3        1.0  0.44334  0.74034  0.59214  1.0000
  C   C4        1.0  0.05666  0.24033  0.90785  1.0000
  C   C5        1.0  0.78181  0.24943  0.44581  1.0000
  C   C6        1.0  0.71819  0.74942  0.05420  1.0000
  C   C7        1.0  0.21820  0.75057  0.55420  1.0000
  C   C8        1.0  0.28180  0.25056  0.94580  1.0000
  C   C9        1.0  0.83203  0.24434  0.51630  1.0000
  C   C10       1.0  0.66795  0.74434  0.98370  1.0000
  C   C11       1.0  0.16798  0.75567  0.48370  1.0000
  C   C12       1.0  0.33203  0.25565  0.01630  1.0000
  C   C13       1.0  0.67919  0.24373  0.57974  1.0000
  C   C14       1.0  0.82080  0.74374  0.92026  1.0000
  C   C15       1.0  0.32082  0.75628  0.42027  1.0000
  C   C16       1.0  0.17919  0.25626  0.07973  1.0000
  O   O1        1.0  0.55261  0.27510  0.34128  1.0000
  O   O2        1.0  0.94738  0.77508  0.15872  1.0000
  O   O3        1.0  0.44740  0.72491  0.65872  1.0000
  O   O4        1.0  0.05261  0.22490  0.84128  1.0000
  O   O5        1.0  0.36426  0.25368  0.44353  1.0000
  O   O6        1.0  0.13573  0.75366  0.05647  1.0000
  O   O7        1.0  0.63573  0.74633  0.55647  1.0000
  O   O8        1.0  0.86426  0.24632  0.94353  1.0000
  O   O9        1.0  0.45901  0.24245  0.57100  1.0000
  O   O10       1.0  0.04099  0.74244  0.92901  1.0000
  O   O11       1.0  0.54100  0.75757  0.42900  1.0000
  O   O12       1.0  0.95900  0.25755  0.07099  1.0000
  O   O13       1.0  0.77271  0.24371  0.64063  1.0000
  O   O14       1.0  0.72729  0.74371  0.85937  1.0000
  O   O15       1.0  0.22729  0.75631  0.35937  1.0000
  O   O16       1.0  0.27270  0.25629  0.14063  1.0000
  O   O17       1.0  0.69910  0.21581  0.18978  1.0000
  O   O18       1.0  0.80092  0.71582  0.31022  1.0000
  O   O19       1.0  0.30091  0.78419  0.81022  1.0000
  O   O20       1.0  0.19909  0.28419  0.68978  1.0000
  O   O21       1.0  0.10080  0.27736  0.27656  1.0000
  O   O22       1.0  0.39922  0.77735  0.22344  1.0000
  O   O23       1.0  0.89921  0.72264  0.72343  1.0000
  O   O24       1.0  0.60079  0.22265  0.77656  1.0000
