data_image0
_chemical_formula_structural       Zn4H8C8Br4N12
_chemical_formula_sum              "Zn4 H8 C8 Br4 N12"
_cell_length_a       6.35561
_cell_length_b       8.98974
_cell_length_c       9.71675
_cell_angle_alpha    90
_cell_angle_beta     90.0002
_cell_angle_gamma    102.512

_space_group_name_H-M_alt    "P 1"
_space_group_IT_number       1

loop_
  _space_group_symop_operation_xyz
  'x, y, z'

loop_
  _atom_site_type_symbol
  _atom_site_label
  _atom_site_symmetry_multiplicity
  _atom_site_fract_x
  _atom_site_fract_y
  _atom_site_fract_z
  _atom_site_occupancy
  Zn  Zn1       1.0  0.04554  0.31731  0.57389  1.0000
  Zn  Zn2       1.0  0.45446  0.18269  0.07389  1.0000
  Zn  Zn3       1.0  0.95446  0.68269  0.42611  1.0000
  Zn  Zn4       1.0  0.54554  0.81731  0.92611  1.0000
  H   H1        1.0  0.73526  0.39470  0.83376  1.0000
  H   H2        1.0  0.76474  0.10530  0.33375  1.0000
  H   H3        1.0  0.26474  0.60531  0.16624  1.0000
  H   H4        1.0  0.23526  0.89471  0.66625  1.0000
  H   H5        1.0  0.85541  0.97956  0.68839  1.0000
  H   H6        1.0  0.64459  0.52043  0.18839  1.0000
  H   H7        1.0  0.14460  0.02044  0.31162  1.0000
  H   H8        1.0  0.35542  0.47957  0.81161  1.0000
  C   C1        1.0  0.73334  0.27417  0.82075  1.0000
  C   C2        1.0  0.76667  0.22583  0.32075  1.0000
  C   C3        1.0  0.26667  0.72582  0.17923  1.0000
  C   C4        1.0  0.23333  0.77417  0.67925  1.0000
  C   C5        1.0  0.79759  0.06391  0.74902  1.0000
  C   C6        1.0  0.70240  0.43609  0.24902  1.0000
  C   C7        1.0  0.20240  0.93606  0.25098  1.0000
  C   C8        1.0  0.29759  0.56391  0.75097  1.0000
  Br  Br1       1.0  0.31871  0.17798  0.55083  1.0000
  Br  Br2       1.0  0.18128  0.32202  0.05085  1.0000
  Br  Br3       1.0  0.68129  0.82202  0.44916  1.0000
  Br  Br4       1.0  0.81871  0.67797  0.94916  1.0000
  N   N1        1.0  0.62426  0.16531  0.90231  1.0000
  N   N2        1.0  0.87572  0.33468  0.40230  1.0000
  N   N3        1.0  0.37571  0.83468  0.09771  1.0000
  N   N4        1.0  0.12428  0.66532  0.59770  1.0000
  N   N5        1.0  0.66541  0.03006  0.85590  1.0000
  N   N6        1.0  0.83459  0.46995  0.35591  1.0000
  N   N7        1.0  0.33460  0.96996  0.14408  1.0000
  N   N8        1.0  0.16542  0.53006  0.64409  1.0000
  N   N9        1.0  0.84374  0.21518  0.72342  1.0000
  N   N10       1.0  0.65626  0.28481  0.22342  1.0000
  N   N11       1.0  0.15627  0.78483  0.27658  1.0000
  N   N12       1.0  0.34374  0.71520  0.77658  1.0000
