data_image0
_chemical_formula_structural       Cd12H24C24Br12N36
_chemical_formula_sum              "Cd12 H24 C24 Br12 N36"
_cell_length_a       8.46522
_cell_length_b       12.6442
_cell_length_c       15.6954
_cell_angle_alpha    90
_cell_angle_beta     102.673
_cell_angle_gamma    89.9999

_space_group_name_H-M_alt    "P 1"
_space_group_IT_number       1

loop_
  _space_group_symop_operation_xyz
  'x, y, z'

loop_
  _atom_site_type_symbol
  _atom_site_label
  _atom_site_symmetry_multiplicity
  _atom_site_fract_x
  _atom_site_fract_y
  _atom_site_fract_z
  _atom_site_occupancy
  Cd  Cd1       1.0  0.88473  0.55208  0.60005  1.0000
  Cd  Cd2       1.0  0.61527  0.05208  0.39995  1.0000
  Cd  Cd3       1.0  0.11527  0.44792  0.39995  1.0000
  Cd  Cd4       1.0  0.38473  0.94792  0.60005  1.0000
  Cd  Cd5       1.0  0.62928  0.46698  0.76938  1.0000
  Cd  Cd6       1.0  0.87072  0.96698  0.23062  1.0000
  Cd  Cd7       1.0  0.37072  0.53302  0.23062  1.0000
  Cd  Cd8       1.0  0.12928  0.03302  0.76938  1.0000
  Cd  Cd9       1.0  0.77041  0.50948  0.01572  1.0000
  Cd  Cd10      1.0  0.72959  0.00948  0.98428  1.0000
  Cd  Cd11      1.0  0.22959  0.49052  0.98428  1.0000
  Cd  Cd12      1.0  0.27041  0.99052  0.01572  1.0000
  H   H1        1.0  0.54489  0.61979  0.44217  1.0000
  H   H2        1.0  0.95511  0.11979  0.55783  1.0000
  H   H3        1.0  0.45511  0.38021  0.55783  1.0000
  H   H4        1.0  0.04489  0.88020  0.44217  1.0000
  H   H5        1.0  0.78375  0.50430  0.25400  1.0000
  H   H6        1.0  0.71625  0.00430  0.74600  1.0000
  H   H7        1.0  0.21625  0.49570  0.74600  1.0000
  H   H8        1.0  0.28375  0.99570  0.25400  1.0000
  H   H9        1.0  0.66272  0.78139  0.54347  1.0000
  H   H10       1.0  0.83728  0.28139  0.45653  1.0000
  H   H11       1.0  0.33728  0.21861  0.45653  1.0000
  H   H12       1.0  0.16272  0.71861  0.54347  1.0000
  H   H13       1.0  0.45392  0.73149  0.75973  1.0000
  H   H14       1.0  0.04608  0.23149  0.24027  1.0000
  H   H15       1.0  0.54607  0.26851  0.24027  1.0000
  H   H16       1.0  0.95392  0.76851  0.75973  1.0000
  H   H17       1.0  0.60502  0.18444  0.79956  1.0000
  H   H18       1.0  0.89497  0.68444  0.20044  1.0000
  H   H19       1.0  0.39498  0.81555  0.20044  1.0000
  H   H20       1.0  0.10503  0.31555  0.79956  1.0000
  H   H21       1.0  0.81335  0.24745  0.06377  1.0000
  H   H22       1.0  0.68665  0.74745  0.93623  1.0000
  H   H23       1.0  0.18665  0.75255  0.93623  1.0000
  H   H24       1.0  0.31335  0.25255  0.06377  1.0000
  C   C1        1.0  0.63720  0.58830  0.41098  1.0000
  C   C2        1.0  0.86280  0.08830  0.58902  1.0000
  C   C3        1.0  0.36280  0.41170  0.58902  1.0000
  C   C4        1.0  0.13720  0.91170  0.41098  1.0000
  C   C5        1.0  0.75820  0.53030  0.31554  1.0000
  C   C6        1.0  0.74180  0.03030  0.68446  1.0000
  C   C7        1.0  0.24180  0.46970  0.68446  1.0000
  C   C8        1.0  0.25820  0.96970  0.31554  1.0000
  C   C9        1.0  0.62665  0.74585  0.59939  1.0000
  C   C10       1.0  0.87335  0.24585  0.40061  1.0000
  C   C11       1.0  0.37335  0.25415  0.40061  1.0000
  C   C12       1.0  0.12665  0.75415  0.59939  1.0000
  C   C13       1.0  0.52132  0.72073  0.70897  1.0000
  C   C14       1.0  0.97868  0.22073  0.29103  1.0000
  C   C15       1.0  0.47868  0.27927  0.29103  1.0000
  C   C16       1.0  0.02132  0.77927  0.70897  1.0000
  C   C17       1.0  0.65747  0.22451  0.86035  1.0000
  C   C18       1.0  0.84253  0.72451  0.13965  1.0000
  C   C19       1.0  0.34254  0.77549  0.13965  1.0000
  C   C20       1.0  0.15747  0.27549  0.86035  1.0000
  C   C21       1.0  0.76191  0.25663  0.99463  1.0000
  C   C22       1.0  0.73809  0.75663  0.00537  1.0000
  C   C23       1.0  0.23810  0.74337  0.00538  1.0000
  C   C24       1.0  0.26191  0.24337  0.99463  1.0000
  Br  Br1       1.0  0.79599  0.36600  0.66016  1.0000
  Br  Br2       1.0  0.70401  0.86600  0.33984  1.0000
  Br  Br3       1.0  0.20401  0.63400  0.33984  1.0000
  Br  Br4       1.0  0.29599  0.13400  0.66016  1.0000
  Br  Br5       1.0  0.93919  0.56006  0.87269  1.0000
  Br  Br6       1.0  0.56080  0.06006  0.12731  1.0000
  Br  Br7       1.0  0.06081  0.43994  0.12731  1.0000
  Br  Br8       1.0  0.43919  0.93994  0.87269  1.0000
  Br  Br9       1.0  0.46483  0.56635  0.88939  1.0000
  Br  Br10      1.0  0.03518  0.06635  0.11061  1.0000
  Br  Br11      1.0  0.53518  0.43365  0.11061  1.0000
  Br  Br12      1.0  0.96483  0.93365  0.88939  1.0000
  N   N1        1.0  0.78582  0.56060  0.45364  1.0000
  N   N2        1.0  0.71418  0.06060  0.54636  1.0000
  N   N3        1.0  0.21418  0.43940  0.54636  1.0000
  N   N4        1.0  0.28582  0.93940  0.45364  1.0000
  N   N5        1.0  0.61486  0.57075  0.32429  1.0000
  N   N6        1.0  0.88514  0.07076  0.67571  1.0000
  N   N7        1.0  0.38514  0.42924  0.67571  1.0000
  N   N8        1.0  0.11486  0.92924  0.32429  1.0000
  N   N9        1.0  0.86347  0.52294  0.39188  1.0000
  N   N10       1.0  0.63652  0.02294  0.60812  1.0000
  N   N11       1.0  0.13652  0.47706  0.60812  1.0000
  N   N12       1.0  0.36348  0.97706  0.39188  1.0000
  N   N13       1.0  0.67339  0.64982  0.63022  1.0000
  N   N14       1.0  0.82661  0.14982  0.36978  1.0000
  N   N15       1.0  0.32661  0.35018  0.36978  1.0000
  N   N16       1.0  0.17339  0.85018  0.63022  1.0000
  N   N17       1.0  0.60664  0.63388  0.70103  1.0000
  N   N18       1.0  0.89336  0.13388  0.29897  1.0000
  N   N19       1.0  0.39336  0.36612  0.29897  1.0000
  N   N20       1.0  0.10664  0.86612  0.70103  1.0000
  N   N21       1.0  0.53067  0.79312  0.64647  1.0000
  N   N22       1.0  0.96933  0.29312  0.35353  1.0000
  N   N23       1.0  0.46933  0.20688  0.35353  1.0000
  N   N24       1.0  0.03067  0.70688  0.64646  1.0000
  N   N25       1.0  0.67376  0.32907  0.86791  1.0000
  N   N26       1.0  0.82623  0.82907  0.13210  1.0000
  N   N27       1.0  0.32623  0.67093  0.13209  1.0000
  N   N28       1.0  0.17377  0.17093  0.86791  1.0000
  N   N29       1.0  0.74050  0.34907  0.95380  1.0000
  N   N30       1.0  0.75950  0.84907  0.04620  1.0000
  N   N31       1.0  0.25950  0.65093  0.04620  1.0000
  N   N32       1.0  0.24050  0.15093  0.95380  1.0000
  N   N33       1.0  0.71182  0.17615  0.93852  1.0000
  N   N34       1.0  0.78818  0.67615  0.06148  1.0000
  N   N35       1.0  0.28818  0.82386  0.06148  1.0000
  N   N36       1.0  0.21182  0.32385  0.93852  1.0000
