data_image0
_chemical_formula_structural       Cd8H24C24I4N36
_chemical_formula_sum              "Cd8 H24 C24 I4 N36"
_cell_length_a       7.83164
_cell_length_b       10.4789
_cell_length_c       18.833
_cell_angle_alpha    90
_cell_angle_beta     89.9999
_cell_angle_gamma    90

_space_group_name_H-M_alt    "P 1"
_space_group_IT_number       1

loop_
  _space_group_symop_operation_xyz
  'x, y, z'

loop_
  _atom_site_type_symbol
  _atom_site_label
  _atom_site_symmetry_multiplicity
  _atom_site_fract_x
  _atom_site_fract_y
  _atom_site_fract_z
  _atom_site_occupancy
  Cd  Cd1       1.0  0.40911  0.25000  0.57561  1.0000
  Cd  Cd2       1.0  0.09089  0.75000  0.07561  1.0000
  Cd  Cd3       1.0  0.59089  0.75000  0.42439  1.0000
  Cd  Cd4       1.0  0.90911  0.25000  0.92439  1.0000
  Cd  Cd5       1.0  0.02089  0.75000  0.73173  1.0000
  Cd  Cd6       1.0  0.47911  0.25000  0.23173  1.0000
  Cd  Cd7       1.0  0.97911  0.25000  0.26827  1.0000
  Cd  Cd8       1.0  0.52089  0.75000  0.76827  1.0000
  H   H1        1.0  0.06104  0.03234  0.61629  1.0000
  H   H2        1.0  0.43896  0.96766  0.11629  1.0000
  H   H3        1.0  0.93896  0.53234  0.38371  1.0000
  H   H4        1.0  0.56104  0.46766  0.88371  1.0000
  H   H5        1.0  0.93896  0.96766  0.38371  1.0000
  H   H6        1.0  0.56104  0.03234  0.88371  1.0000
  H   H7        1.0  0.06104  0.46766  0.61629  1.0000
  H   H8        1.0  0.43896  0.53234  0.11629  1.0000
  H   H9        1.0  0.56857  0.04484  0.68913  1.0000
  H   H10       1.0  0.93143  0.95516  0.18913  1.0000
  H   H11       1.0  0.43143  0.54484  0.31087  1.0000
  H   H12       1.0  0.06857  0.45516  0.81087  1.0000
  H   H13       1.0  0.43143  0.95516  0.31087  1.0000
  H   H14       1.0  0.06857  0.04484  0.81087  1.0000
  H   H15       1.0  0.56857  0.45516  0.68913  1.0000
  H   H16       1.0  0.93143  0.54484  0.18913  1.0000
  H   H17       1.0  0.03654  0.25000  0.46405  1.0000
  H   H18       1.0  0.46346  0.75000  0.96405  1.0000
  H   H19       1.0  0.96346  0.75000  0.53595  1.0000
  H   H20       1.0  0.53654  0.25000  0.03595  1.0000
  H   H21       1.0  0.55949  0.25000  0.41258  1.0000
  H   H22       1.0  0.94051  0.75000  0.91258  1.0000
  H   H23       1.0  0.44051  0.75000  0.58742  1.0000
  H   H24       1.0  0.05949  0.25000  0.08742  1.0000
  C   C1        1.0  0.17986  0.00975  0.64332  1.0000
  C   C2        1.0  0.32013  0.99025  0.14332  1.0000
  C   C3        1.0  0.82013  0.50975  0.35668  1.0000
  C   C4        1.0  0.67986  0.49025  0.85668  1.0000
  C   C5        1.0  0.82013  0.99025  0.35668  1.0000
  C   C6        1.0  0.67986  0.00975  0.85668  1.0000
  C   C7        1.0  0.17986  0.49026  0.64332  1.0000
  C   C8        1.0  0.32013  0.50975  0.14332  1.0000
  C   C9        1.0  0.43645  0.01676  0.68127  1.0000
  C   C10       1.0  0.06355  0.98324  0.18127  1.0000
  C   C11       1.0  0.56355  0.51676  0.31873  1.0000
  C   C12       1.0  0.93645  0.48324  0.81873  1.0000
  C   C13       1.0  0.56355  0.98324  0.31873  1.0000
  C   C14       1.0  0.93645  0.01676  0.81873  1.0000
  C   C15       1.0  0.43645  0.48324  0.68127  1.0000
  C   C16       1.0  0.06355  0.51676  0.18127  1.0000
  C   C17       1.0  0.15616  0.25000  0.43464  1.0000
  C   C18       1.0  0.34384  0.75000  0.93464  1.0000
  C   C19       1.0  0.84384  0.75000  0.56536  1.0000
  C   C20       1.0  0.65616  0.25000  0.06536  1.0000
  C   C21       1.0  0.42119  0.25000  0.40809  1.0000
  C   C22       1.0  0.07881  0.75000  0.90809  1.0000
  C   C23       1.0  0.57881  0.75000  0.59191  1.0000
  C   C24       1.0  0.92119  0.25000  0.09191  1.0000
  I   I1        1.0  0.76407  0.25000  0.57710  1.0000
  I   I2        1.0  0.73593  0.75000  0.07710  1.0000
  I   I3        1.0  0.23593  0.75000  0.42290  1.0000
  I   I4        1.0  0.26407  0.25000  0.92290  1.0000
  N   N1        1.0  0.32593  0.07886  0.63788  1.0000
  N   N2        1.0  0.17407  0.92114  0.13788  1.0000
  N   N3        1.0  0.67407  0.57886  0.36212  1.0000
  N   N4        1.0  0.82593  0.42114  0.86212  1.0000
  N   N5        1.0  0.67407  0.92114  0.36212  1.0000
  N   N6        1.0  0.82593  0.07886  0.86212  1.0000
  N   N7        1.0  0.32593  0.42114  0.63788  1.0000
  N   N8        1.0  0.17407  0.57886  0.13788  1.0000
  N   N9        1.0  0.19954  0.91105  0.68719  1.0000
  N   N10       1.0  0.30046  0.08895  0.18719  1.0000
  N   N11       1.0  0.80046  0.41105  0.31281  1.0000
  N   N12       1.0  0.69954  0.58895  0.81281  1.0000
  N   N13       1.0  0.80046  0.08895  0.31281  1.0000
  N   N14       1.0  0.69954  0.91105  0.81281  1.0000
  N   N15       1.0  0.19954  0.58895  0.68719  1.0000
  N   N16       1.0  0.30046  0.41105  0.18719  1.0000
  N   N17       1.0  0.36430  0.91596  0.71171  1.0000
  N   N18       1.0  0.13570  0.08404  0.21171  1.0000
  N   N19       1.0  0.63570  0.41596  0.28829  1.0000
  N   N20       1.0  0.86430  0.58404  0.78829  1.0000
  N   N21       1.0  0.63570  0.08404  0.28829  1.0000
  N   N22       1.0  0.86430  0.91596  0.78829  1.0000
  N   N23       1.0  0.36430  0.58404  0.71171  1.0000
  N   N24       1.0  0.13570  0.41596  0.21171  1.0000
  N   N25       1.0  0.16634  0.25000  0.36409  1.0000
  N   N26       1.0  0.33366  0.75000  0.86409  1.0000
  N   N27       1.0  0.83365  0.75000  0.63591  1.0000
  N   N28       1.0  0.66634  0.25000  0.13591  1.0000
  N   N29       1.0  0.33644  0.25000  0.34698  1.0000
  N   N30       1.0  0.16356  0.75000  0.84698  1.0000
  N   N31       1.0  0.66356  0.75000  0.65302  1.0000
  N   N32       1.0  0.83643  0.25000  0.15302  1.0000
  N   N33       1.0  0.31386  0.25000  0.46468  1.0000
  N   N34       1.0  0.18614  0.75000  0.96469  1.0000
  N   N35       1.0  0.68614  0.75000  0.53531  1.0000
  N   N36       1.0  0.81386  0.25000  0.03531  1.0000
