data_image0
_chemical_formula_structural       Na2H30C22S4N4O6
_chemical_formula_sum              "Na2 H30 C22 S4 N4 O6"
_cell_length_a       5.3696
_cell_length_b       9.2431
_cell_length_c       17.7043
_cell_angle_alpha    122.057
_cell_angle_beta     81.0135
_cell_angle_gamma    93.8489

_space_group_name_H-M_alt    "P 1"
_space_group_IT_number       1

loop_
  _space_group_symop_operation_xyz
  'x, y, z'

loop_
  _atom_site_type_symbol
  _atom_site_label
  _atom_site_symmetry_multiplicity
  _atom_site_fract_x
  _atom_site_fract_y
  _atom_site_fract_z
  _atom_site_occupancy
  Na  Na1       1.0  0.39367  0.85248  0.30810  1.0000
  Na  Na2       1.0  0.60635  0.14751  0.69189  1.0000
  H   H1        1.0  0.35276  0.93061  0.53506  1.0000
  H   H2        1.0  0.64729  0.06936  0.46493  1.0000
  H   H3        1.0  0.29950  0.06970  0.24975  1.0000
  H   H4        1.0  0.70048  0.93032  0.75025  1.0000
  H   H5        1.0  0.79498  0.61583  0.37714  1.0000
  H   H6        1.0  0.20503  0.38417  0.62286  1.0000
  H   H7        1.0  0.66294  0.61416  0.48591  1.0000
  H   H8        1.0  0.33709  0.38582  0.51407  1.0000
  H   H9        1.0  0.59259  0.55955  0.60991  1.0000
  H   H10       1.0  0.40740  0.44043  0.39008  1.0000
  H   H11       1.0  0.89551  0.66553  0.71984  1.0000
  H   H12       1.0  0.10444  0.33449  0.28017  1.0000
  H   H13       1.0  0.25100  0.85061  0.71398  1.0000
  H   H14       1.0  0.74896  0.14940  0.28603  1.0000
  H   H15       1.0  0.75422  0.49550  0.01325  1.0000
  H   H16       1.0  0.24579  0.50451  0.98675  1.0000
  H   H17       1.0  0.76107  0.36146  0.05788  1.0000
  H   H18       1.0  0.23895  0.63855  0.94212  1.0000
  H   H19       1.0  0.51246  0.51649  0.10154  1.0000
  H   H20       1.0  0.48756  0.48351  0.89846  1.0000
  H   H21       1.0  0.51383  0.78497  0.08385  1.0000
  H   H22       1.0  0.48615  0.21505  0.91615  1.0000
  H   H23       1.0  0.64509  0.99016  0.12185  1.0000
  H   H24       1.0  0.35487  0.00987  0.87815  1.0000
  H   H25       1.0  0.08831  0.90538  0.09589  1.0000
  H   H26       1.0  0.91165  0.09463  0.90412  1.0000
  H   H27       1.0  0.32268  0.92612  0.01897  1.0000
  H   H28       1.0  0.67725  0.07388  0.98103  1.0000
  H   H29       1.0  0.23083  0.10652  0.12802  1.0000
  H   H30       1.0  0.76910  0.89349  0.87199  1.0000
  C   C1        1.0  0.06954  0.78283  0.45025  1.0000
  C   C2        1.0  0.93048  0.21715  0.54974  1.0000
  C   C3        1.0  0.00125  0.76039  0.52729  1.0000
  C   C4        1.0  0.99878  0.23960  0.47271  1.0000
  C   C5        1.0  0.79411  0.66529  0.53505  1.0000
  C   C6        1.0  0.20593  0.33470  0.46493  1.0000
  C   C7        1.0  0.75278  0.63349  0.60421  1.0000
  C   C8        1.0  0.24722  0.36649  0.39578  1.0000
  C   C9        1.0  0.92058  0.69680  0.66782  1.0000
  C   C10       1.0  0.07943  0.30322  0.33219  1.0000
  C   C11       1.0  0.12114  0.79759  0.66438  1.0000
  C   C12       1.0  0.87884  0.20240  0.33562  1.0000
  C   C13       1.0  0.16103  0.83209  0.59525  1.0000
  C   C14       1.0  0.83900  0.16789  0.40475  1.0000
  C   C15       1.0  0.84742  0.61111  0.24334  1.0000
  C   C16       1.0  0.15261  0.38889  0.75666  1.0000
  C   C17       1.0  0.71326  0.48913  0.07419  1.0000
  C   C18       1.0  0.28675  0.51087  0.92581  1.0000
  C   C19       1.0  0.46987  0.92251  0.12484  1.0000
  C   C20       1.0  0.53009  0.07751  0.87516  1.0000
  C   C21       1.0  0.26542  0.96781  0.09010  1.0000
  C   C22       1.0  0.73452  0.03220  0.90991  1.0000
  S   S1        1.0  0.61961  0.47755  0.24762  1.0000
  S   S2        1.0  0.38041  0.52245  0.75238  1.0000
  S   S3        1.0  0.90932  0.64542  0.15213  1.0000
  S   S4        1.0  0.09069  0.35459  0.84788  1.0000
  N   N1        1.0  0.99257  0.70955  0.30578  1.0000
  N   N2        1.0  0.00747  0.29045  0.69421  1.0000
  N   N3        1.0  0.93846  0.69866  0.38078  1.0000
  N   N4        1.0  0.06158  0.30134  0.61922  1.0000
  O   O1        1.0  0.25544  0.87549  0.44812  1.0000
  O   O2        1.0  0.74461  0.12449  0.55188  1.0000
  O   O3        1.0  0.35609  0.93095  0.59335  1.0000
  O   O4        1.0  0.64393  0.06902  0.40664  1.0000
  O   O5        1.0  0.39428  0.96101  0.21545  1.0000
  O   O6        1.0  0.60570  0.03900  0.78455  1.0000
