data_image0
_chemical_formula_structural       Zn4H44C52N8O20
_chemical_formula_sum              "Zn4 H44 C52 N8 O20"
_cell_length_a       7.65296
_cell_length_b       11.939
_cell_length_c       16.1604
_cell_angle_alpha    108.526
_cell_angle_beta     90.0006
_cell_angle_gamma    89.9998

_space_group_name_H-M_alt    "P 1"
_space_group_IT_number       1

loop_
  _space_group_symop_operation_xyz
  'x, y, z'

loop_
  _atom_site_type_symbol
  _atom_site_label
  _atom_site_symmetry_multiplicity
  _atom_site_fract_x
  _atom_site_fract_y
  _atom_site_fract_z
  _atom_site_occupancy
  Zn  Zn1       1.0  0.98683  0.17392  0.31412  1.0000
  Zn  Zn2       1.0  0.48683  0.82608  0.18588  1.0000
  Zn  Zn3       1.0  0.01316  0.82608  0.68588  1.0000
  Zn  Zn4       1.0  0.51317  0.17392  0.81412  1.0000
  H   H1        1.0  0.21722  0.42984  0.21215  1.0000
  H   H2        1.0  0.71722  0.57016  0.28785  1.0000
  H   H3        1.0  0.78279  0.57016  0.78785  1.0000
  H   H4        1.0  0.28278  0.42985  0.71215  1.0000
  H   H5        1.0  0.09120  0.33568  0.22604  1.0000
  H   H6        1.0  0.59119  0.66432  0.27396  1.0000
  H   H7        1.0  0.90882  0.66432  0.77397  1.0000
  H   H8        1.0  0.40881  0.33569  0.72604  1.0000
  H   H9        1.0  0.52132  0.98469  0.85734  1.0000
  H   H10       1.0  0.02131  0.01530  0.64266  1.0000
  H   H11       1.0  0.47868  0.01531  0.14266  1.0000
  H   H12       1.0  0.97869  0.98469  0.35734  1.0000
  H   H13       1.0  0.67075  0.96848  0.77924  1.0000
  H   H14       1.0  0.17075  0.03151  0.72076  1.0000
  H   H15       1.0  0.32924  0.03152  0.22076  1.0000
  H   H16       1.0  0.82924  0.96849  0.27924  1.0000
  H   H17       1.0  0.97133  0.34821  0.49690  1.0000
  H   H18       1.0  0.47133  0.65180  0.00310  1.0000
  H   H19       1.0  0.02867  0.65179  0.50310  1.0000
  H   H20       1.0  0.52867  0.34821  0.99690  1.0000
  H   H21       1.0  0.67887  0.28507  0.27125  1.0000
  H   H22       1.0  0.17887  0.71493  0.22875  1.0000
  H   H23       1.0  0.32114  0.71492  0.72876  1.0000
  H   H24       1.0  0.82114  0.28507  0.77125  1.0000
  H   H25       1.0  0.74973  0.48644  0.58546  1.0000
  H   H26       1.0  0.24972  0.51357  0.91455  1.0000
  H   H27       1.0  0.25027  0.51355  0.41455  1.0000
  H   H28       1.0  0.75027  0.48644  0.08545  1.0000
  H   H29       1.0  0.13354  0.18881  0.06681  1.0000
  H   H30       1.0  0.63353  0.81119  0.43319  1.0000
  H   H31       1.0  0.86646  0.81119  0.93319  1.0000
  H   H32       1.0  0.36647  0.18881  0.56681  1.0000
  H   H33       1.0  0.60377  0.06586  0.01228  1.0000
  H   H34       1.0  0.10376  0.93415  0.48772  1.0000
  H   H35       1.0  0.39623  0.93415  0.98772  1.0000
  H   H36       1.0  0.89623  0.06585  0.51228  1.0000
  H   H37       1.0  0.93948  0.08363  0.80351  1.0000
  H   H38       1.0  0.43947  0.91636  0.69649  1.0000
  H   H39       1.0  0.06052  0.91636  0.19649  1.0000
  H   H40       1.0  0.56052  0.08363  0.30351  1.0000
  H   H41       1.0  0.44094  0.41521  0.34794  1.0000
  H   H42       1.0  0.94094  0.58479  0.15206  1.0000
  H   H43       1.0  0.55906  0.58478  0.65206  1.0000
  H   H44       1.0  0.05906  0.41521  0.84794  1.0000
  C   C1        1.0  0.85296  0.36908  0.46731  1.0000
  C   C2        1.0  0.35295  0.63093  0.03270  1.0000
  C   C3        1.0  0.14705  0.63091  0.53270  1.0000
  C   C4        1.0  0.64705  0.36908  0.96730  1.0000
  C   C5        1.0  0.69028  0.33392  0.34048  1.0000
  C   C6        1.0  0.19027  0.66608  0.15952  1.0000
  C   C7        1.0  0.30972  0.66608  0.65953  1.0000
  C   C8        1.0  0.80973  0.33392  0.84048  1.0000
  C   C9        1.0  0.72602  0.44465  0.51590  1.0000
  C   C10       1.0  0.22602  0.55535  0.98410  1.0000
  C   C11       1.0  0.27398  0.55534  0.48411  1.0000
  C   C12       1.0  0.77398  0.44466  0.01590  1.0000
  C   C13       1.0  0.23091  0.16531  0.90310  1.0000
  C   C14       1.0  0.73092  0.83469  0.59690  1.0000
  C   C15       1.0  0.76908  0.83470  0.09690  1.0000
  C   C16       1.0  0.26908  0.16531  0.40310  1.0000
  C   C17       1.0  0.02704  0.15677  0.02086  1.0000
  C   C18       1.0  0.52704  0.84324  0.47914  1.0000
  C   C19       1.0  0.97296  0.84323  0.97914  1.0000
  C   C20       1.0  0.47296  0.15677  0.52086  1.0000
  C   C21       1.0  0.86523  0.12954  0.04933  1.0000
  C   C22       1.0  0.36522  0.87046  0.45067  1.0000
  C   C23       1.0  0.13477  0.87046  0.95067  1.0000
  C   C24       1.0  0.63478  0.12954  0.54933  1.0000
  C   C25       1.0  0.73037  0.08474  0.98905  1.0000
  C   C26       1.0  0.23036  0.91526  0.51095  1.0000
  C   C27       1.0  0.26963  0.91526  0.01096  1.0000
  C   C28       1.0  0.76963  0.08474  0.48905  1.0000
  C   C29       1.0  0.92104  0.09409  0.87233  1.0000
  C   C30       1.0  0.42104  0.90591  0.62767  1.0000
  C   C31       1.0  0.07895  0.90591  0.12767  1.0000
  C   C32       1.0  0.57895  0.09409  0.37233  1.0000
  C   C33       1.0  0.83855  0.14197  0.14361  1.0000
  C   C34       1.0  0.33855  0.85803  0.35639  1.0000
  C   C35       1.0  0.16145  0.85803  0.85639  1.0000
  C   C36       1.0  0.66146  0.14197  0.64361  1.0000
  C   C37       1.0  0.75894  0.06595  0.90043  1.0000
  C   C38       1.0  0.25894  0.93405  0.59957  1.0000
  C   C39       1.0  0.24105  0.93404  0.09957  1.0000
  C   C40       1.0  0.74106  0.06595  0.40043  1.0000
  C   C41       1.0  0.05508  0.13918  0.93215  1.0000
  C   C42       1.0  0.55508  0.86082  0.56785  1.0000
  C   C43       1.0  0.94492  0.86082  0.06785  1.0000
  C   C44       1.0  0.44492  0.13918  0.43215  1.0000
  C   C45       1.0  0.55688  0.40697  0.38467  1.0000
  C   C46       1.0  0.05687  0.59303  0.11533  1.0000
  C   C47       1.0  0.44313  0.59302  0.61533  1.0000
  C   C48       1.0  0.94313  0.40697  0.88467  1.0000
  C   C49       1.0  0.57144  0.46302  0.47501  1.0000
  C   C50       1.0  0.07144  0.53698  0.02500  1.0000
  C   C51       1.0  0.42855  0.53697  0.52500  1.0000
  C   C52       1.0  0.92855  0.46303  0.97500  1.0000
  N   N1        1.0  0.62274  0.02652  0.83703  1.0000
  N   N2        1.0  0.12273  0.97348  0.66296  1.0000
  N   N3        1.0  0.37726  0.97348  0.16297  1.0000
  N   N4        1.0  0.87726  0.02652  0.33704  1.0000
  N   N5        1.0  0.83518  0.31357  0.38098  1.0000
  N   N6        1.0  0.33517  0.68643  0.11902  1.0000
  N   N7        1.0  0.16482  0.68643  0.61902  1.0000
  N   N8        1.0  0.66483  0.31357  0.88097  1.0000
  O   O1        1.0  0.69988  0.10738  0.16895  1.0000
  O   O2        1.0  0.19988  0.89263  0.33105  1.0000
  O   O3        1.0  0.30012  0.89262  0.83105  1.0000
  O   O4        1.0  0.80012  0.10738  0.66895  1.0000
  O   O5        1.0  0.14635  0.41231  0.25644  1.0000
  O   O6        1.0  0.64635  0.58769  0.24356  1.0000
  O   O7        1.0  0.85367  0.58769  0.74356  1.0000
  O   O8        1.0  0.35365  0.41231  0.75644  1.0000
  O   O9        1.0  0.96890  0.18860  0.19509  1.0000
  O   O10       1.0  0.46889  0.81140  0.30490  1.0000
  O   O11       1.0  0.03111  0.81140  0.80490  1.0000
  O   O12       1.0  0.53111  0.18860  0.69510  1.0000
  O   O13       1.0  0.35279  0.19841  0.95742  1.0000
  O   O14       1.0  0.85278  0.80159  0.54258  1.0000
  O   O15       1.0  0.64721  0.80160  0.04257  1.0000
  O   O16       1.0  0.14722  0.19841  0.45743  1.0000
  O   O17       1.0  0.25355  0.15146  0.82038  1.0000
  O   O18       1.0  0.75355  0.84854  0.67962  1.0000
  O   O19       1.0  0.74644  0.84854  0.17962  1.0000
  O   O20       1.0  0.24645  0.15146  0.32038  1.0000
