data_image0
_chemical_formula_structural       Ag4H68C40S4N8O16
_chemical_formula_sum              "Ag4 H68 C40 S4 N8 O16"
_cell_length_a       6.7627
_cell_length_b       10.1213
_cell_length_c       19.1179
_cell_angle_alpha    89.9998
_cell_angle_beta     94.1928
_cell_angle_gamma    89.9989

_space_group_name_H-M_alt    "P 1"
_space_group_IT_number       1

loop_
  _space_group_symop_operation_xyz
  'x, y, z'

loop_
  _atom_site_type_symbol
  _atom_site_label
  _atom_site_symmetry_multiplicity
  _atom_site_fract_x
  _atom_site_fract_y
  _atom_site_fract_z
  _atom_site_occupancy
  Ag  Ag1       1.0  0.83313  0.86780  0.73477  1.0000
  Ag  Ag2       1.0  0.66687  0.36780  0.26523  1.0000
  Ag  Ag3       1.0  0.16685  0.13219  0.26523  1.0000
  Ag  Ag4       1.0  0.33315  0.63219  0.73476  1.0000
  H   H1        1.0  0.78021  0.73505  0.87756  1.0000
  H   H2        1.0  0.71982  0.23505  0.12245  1.0000
  H   H3        1.0  0.21982  0.26496  0.12245  1.0000
  H   H4        1.0  0.28020  0.76495  0.87755  1.0000
  H   H5        1.0  0.98589  0.63482  0.90589  1.0000
  H   H6        1.0  0.51412  0.13485  0.09411  1.0000
  H   H7        1.0  0.01413  0.36516  0.09411  1.0000
  H   H8        1.0  0.48588  0.86516  0.90589  1.0000
  H   H9        1.0  0.72304  0.61819  0.99035  1.0000
  H   H10       1.0  0.77699  0.11820  0.00965  1.0000
  H   H11       1.0  0.27698  0.38181  0.00965  1.0000
  H   H12       1.0  0.22303  0.88181  0.99035  1.0000
  H   H13       1.0  0.54760  0.57073  0.92197  1.0000
  H   H14       1.0  0.95240  0.07072  0.07803  1.0000
  H   H15       1.0  0.45241  0.42928  0.07803  1.0000
  H   H16       1.0  0.04760  0.92928  0.92197  1.0000
  H   H17       1.0  0.91708  0.41281  0.97387  1.0000
  H   H18       1.0  0.58291  0.91284  0.02612  1.0000
  H   H19       1.0  0.08290  0.58717  0.02612  1.0000
  H   H20       1.0  0.41709  0.08718  0.97387  1.0000
  H   H21       1.0  0.66873  0.37157  0.98726  1.0000
  H   H22       1.0  0.83126  0.87158  0.01273  1.0000
  H   H23       1.0  0.33126  0.62843  0.01273  1.0000
  H   H24       1.0  0.16873  0.12843  0.98726  1.0000
  H   H25       1.0  0.59531  0.34146  0.85834  1.0000
  H   H26       1.0  0.90467  0.84144  0.14166  1.0000
  H   H27       1.0  0.40467  0.65856  0.14165  1.0000
  H   H28       1.0  0.09531  0.15856  0.85834  1.0000
  H   H29       1.0  0.79910  0.24188  0.88738  1.0000
  H   H30       1.0  0.70085  0.74188  0.11261  1.0000
  H   H31       1.0  0.20085  0.75812  0.11261  1.0000
  H   H32       1.0  0.29912  0.25812  0.88738  1.0000
  H   H33       1.0  0.85882  0.35756  0.77676  1.0000
  H   H34       1.0  0.64112  0.85755  0.22322  1.0000
  H   H35       1.0  0.14114  0.64245  0.22322  1.0000
  H   H36       1.0  0.35884  0.14244  0.77677  1.0000
  H   H37       1.0  0.03335  0.40965  0.84436  1.0000
  H   H38       1.0  0.46662  0.90967  0.15563  1.0000
  H   H39       1.0  0.96661  0.59034  0.15563  1.0000
  H   H40       1.0  0.53337  0.09033  0.84436  1.0000
  H   H41       1.0  0.65368  0.55914  0.79513  1.0000
  H   H42       1.0  0.84630  0.05911  0.20487  1.0000
  H   H43       1.0  0.34631  0.44088  0.20487  1.0000
  H   H44       1.0  0.15369  0.94087  0.79513  1.0000
  H   H45       1.0  0.91088  0.45693  0.67717  1.0000
  H   H46       1.0  0.58912  0.95693  0.32283  1.0000
  H   H47       1.0  0.08911  0.54307  0.32284  1.0000
  H   H48       1.0  0.41088  0.04307  0.67717  1.0000
  H   H49       1.0  0.70214  0.56625  0.66648  1.0000
  H   H50       1.0  0.79788  0.06625  0.33352  1.0000
  H   H51       1.0  0.29787  0.43375  0.33352  1.0000
  H   H52       1.0  0.20213  0.93374  0.66648  1.0000
  H   H53       1.0  0.09683  0.73282  0.50911  1.0000
  H   H54       1.0  0.40319  0.23282  0.49089  1.0000
  H   H55       1.0  0.90319  0.26719  0.49090  1.0000
  H   H56       1.0  0.59682  0.76718  0.50911  1.0000
  H   H57       1.0  0.91743  0.66204  0.44640  1.0000
  H   H58       1.0  0.58258  0.16203  0.55360  1.0000
  H   H59       1.0  0.08258  0.33798  0.55361  1.0000
  H   H60       1.0  0.41743  0.83797  0.44640  1.0000
  H   H61       1.0  0.74632  0.42182  0.57605  1.0000
  H   H62       1.0  0.75369  0.92181  0.42396  1.0000
  H   H63       1.0  0.25367  0.57820  0.42395  1.0000
  H   H64       1.0  0.24632  0.07820  0.57605  1.0000
  H   H65       1.0  0.70856  0.47612  0.48754  1.0000
  H   H66       1.0  0.79145  0.97610  0.51247  1.0000
  H   H67       1.0  0.29146  0.52390  0.51247  1.0000
  H   H68       1.0  0.20856  0.02390  0.48753  1.0000
  C   C1        1.0  0.82844  0.63195  0.88615  1.0000
  C   C2        1.0  0.67157  0.13196  0.11386  1.0000
  C   C3        1.0  0.17158  0.36805  0.11386  1.0000
  C   C4        1.0  0.32843  0.86805  0.88614  1.0000
  C   C5        1.0  0.70591  0.56435  0.94022  1.0000
  C   C6        1.0  0.79409  0.06435  0.05978  1.0000
  C   C7        1.0  0.29409  0.43565  0.05978  1.0000
  C   C8        1.0  0.20591  0.93565  0.94022  1.0000
  C   C9        1.0  0.76378  0.41882  0.95016  1.0000
  C   C10       1.0  0.73622  0.91883  0.04983  1.0000
  C   C11       1.0  0.23621  0.58117  0.04983  1.0000
  C   C12       1.0  0.26378  0.08118  0.95016  1.0000
  C   C13       1.0  0.75040  0.34503  0.88021  1.0000
  C   C14       1.0  0.74956  0.84503  0.11978  1.0000
  C   C15       1.0  0.24956  0.65497  0.11978  1.0000
  C   C16       1.0  0.25042  0.15497  0.88021  1.0000
  C   C17       1.0  0.87465  0.41200  0.82649  1.0000
  C   C18       1.0  0.62531  0.91200  0.17350  1.0000
  C   C19       1.0  0.12531  0.58800  0.17350  1.0000
  C   C20       1.0  0.37466  0.08800  0.82649  1.0000
  C   C21       1.0  0.80964  0.55567  0.81700  1.0000
  C   C22       1.0  0.69035  0.05567  0.18300  1.0000
  C   C23       1.0  0.19035  0.44433  0.18300  1.0000
  C   C24       1.0  0.30964  0.94433  0.81700  1.0000
  C   C25       1.0  0.86479  0.56073  0.67314  1.0000
  C   C26       1.0  0.63522  0.06072  0.32687  1.0000
  C   C27       1.0  0.13522  0.43928  0.32687  1.0000
  C   C28       1.0  0.36479  0.93928  0.67313  1.0000
  C   C29       1.0  0.95780  0.63208  0.61381  1.0000
  C   C30       1.0  0.54221  0.13207  0.38619  1.0000
  C   C31       1.0  0.04222  0.36792  0.38620  1.0000
  C   C32       1.0  0.45781  0.86792  0.61381  1.0000
  C   C33       1.0  0.02525  0.64089  0.49084  1.0000
  C   C34       1.0  0.47477  0.14088  0.50916  1.0000
  C   C35       1.0  0.97477  0.35912  0.50917  1.0000
  C   C36       1.0  0.52524  0.85912  0.49084  1.0000
  C   C37       1.0  0.82090  0.45918  0.53121  1.0000
  C   C38       1.0  0.67910  0.95917  0.46880  1.0000
  C   C39       1.0  0.17911  0.54083  0.46880  1.0000
  C   C40       1.0  0.32090  0.04083  0.53120  1.0000
  S   S1        1.0  0.95080  0.64361  0.75374  1.0000
  S   S2        1.0  0.54922  0.14361  0.24626  1.0000
  S   S3        1.0  0.04922  0.35639  0.24627  1.0000
  S   S4        1.0  0.45078  0.85639  0.75373  1.0000
  N   N1        1.0  0.91994  0.58494  0.54824  1.0000
  N   N2        1.0  0.58008  0.08494  0.45177  1.0000
  N   N3        1.0  0.08007  0.41506  0.45177  1.0000
  N   N4        1.0  0.41994  0.91506  0.54824  1.0000
  N   N5        1.0  0.87394  0.12920  0.68289  1.0000
  N   N6        1.0  0.62608  0.62919  0.31711  1.0000
  N   N7        1.0  0.12607  0.87082  0.31710  1.0000
  N   N8        1.0  0.37393  0.37082  0.68290  1.0000
  O   O1        1.0  0.06507  0.73119  0.62689  1.0000
  O   O2        1.0  0.43494  0.23119  0.37312  1.0000
  O   O3        1.0  0.93497  0.26879  0.37312  1.0000
  O   O4        1.0  0.56508  0.76880  0.62688  1.0000
  O   O5        1.0  0.87109  0.10158  0.74860  1.0000
  O   O6        1.0  0.62892  0.60156  0.25141  1.0000
  O   O7        1.0  0.12892  0.89842  0.25140  1.0000
  O   O8        1.0  0.37107  0.39842  0.74860  1.0000
  O   O9        1.0  0.86563  0.03289  0.63948  1.0000
  O   O10       1.0  0.63440  0.53289  0.36053  1.0000
  O   O11       1.0  0.13435  0.96708  0.36052  1.0000
  O   O12       1.0  0.36567  0.46708  0.63948  1.0000
  O   O13       1.0  0.88454  0.24579  0.66257  1.0000
  O   O14       1.0  0.61546  0.74579  0.33743  1.0000
  O   O15       1.0  0.11546  0.75418  0.33743  1.0000
  O   O16       1.0  0.38452  0.25418  0.66257  1.0000
