data_image0
_chemical_formula_structural       Zn2H80C44N8O8
_chemical_formula_sum              "Zn2 H80 C44 N8 O8"
_cell_length_a       10.3583
_cell_length_b       11.2346
_cell_length_c       12.4163
_cell_angle_alpha    67.0148
_cell_angle_beta     73.6258
_cell_angle_gamma    89.1836

_space_group_name_H-M_alt    "P 1"
_space_group_IT_number       1

loop_
  _space_group_symop_operation_xyz
  'x, y, z'

loop_
  _atom_site_type_symbol
  _atom_site_label
  _atom_site_symmetry_multiplicity
  _atom_site_fract_x
  _atom_site_fract_y
  _atom_site_fract_z
  _atom_site_occupancy
  Zn  Zn1       1.0  0.50000  0.50000  0.50000  1.0000
  Zn  Zn2       1.0  1.00000  0.50000  0.00000  1.0000
  H   H1        1.0  0.42712  0.63543  0.31682  1.0000
  H   H2        1.0  0.57288  0.36457  0.68318  1.0000
  H   H3        1.0  0.59431  0.67147  0.54694  1.0000
  H   H4        1.0  0.40569  0.32853  0.45306  1.0000
  H   H5        1.0  0.12482  0.38103  0.15621  1.0000
  H   H6        1.0  0.87518  0.61897  0.84379  1.0000
  H   H7        1.0  0.82133  0.31990  0.05272  1.0000
  H   H8        1.0  0.17867  0.68010  0.94728  1.0000
  H   H9        1.0  0.61651  0.87214  0.38322  1.0000
  H   H10       1.0  0.38349  0.12786  0.61678  1.0000
  H   H11       1.0  0.39077  0.75936  0.49485  1.0000
  H   H12       1.0  0.60923  0.24064  0.50514  1.0000
  H   H13       1.0  0.28078  0.87366  0.33194  1.0000
  H   H14       1.0  0.71922  0.12634  0.66806  1.0000
  H   H15       1.0  0.41637  0.97177  0.32512  1.0000
  H   H16       1.0  0.58363  0.02823  0.67488  1.0000
  H   H17       1.0  0.43030  0.82479  0.15881  1.0000
  H   H18       1.0  0.56970  0.17521  0.84119  1.0000
  H   H19       1.0  0.43034  0.99456  0.11470  1.0000
  H   H20       1.0  0.56966  0.00544  0.88530  1.0000
  H   H21       1.0  0.64626  0.01072  0.15610  1.0000
  H   H22       1.0  0.35374  0.98928  0.84390  1.0000
  H   H23       1.0  0.66524  0.93155  0.05530  1.0000
  H   H24       1.0  0.33476  0.06845  0.94470  1.0000
  H   H25       1.0  0.64547  0.71633  0.22415  1.0000
  H   H26       1.0  0.35453  0.28367  0.77584  1.0000
  H   H27       1.0  0.77388  0.82181  0.21831  1.0000
  H   H28       1.0  0.22612  0.17819  0.78169  1.0000
  H   H29       1.0  0.80972  0.63598  0.35417  1.0000
  H   H30       1.0  0.19028  0.36402  0.64582  1.0000
  H   H31       1.0  0.84943  0.85773  0.35533  1.0000
  H   H32       1.0  0.15057  0.14227  0.64467  1.0000
  H   H33       1.0  0.96950  0.75384  0.40724  1.0000
  H   H34       1.0  0.03050  0.24616  0.59276  1.0000
  H   H35       1.0  0.83120  0.78143  0.51483  1.0000
  H   H36       1.0  0.16880  0.21857  0.48517  1.0000
  H   H37       1.0  0.19256  0.67855  0.39410  1.0000
  H   H38       1.0  0.80744  0.32145  0.60590  1.0000
  H   H39       1.0  0.21317  0.60589  0.54275  1.0000
  H   H40       1.0  0.78683  0.39411  0.45725  1.0000
  H   H41       1.0  0.74545  0.53162  0.63329  1.0000
  H   H42       1.0  0.25455  0.46838  0.36671  1.0000
  H   H43       1.0  0.90538  0.53144  0.53451  1.0000
  H   H44       1.0  0.09462  0.46855  0.46548  1.0000
  H   H45       1.0  0.88269  0.12635  0.17259  1.0000
  H   H46       1.0  0.11731  0.87365  0.82742  1.0000
  H   H47       1.0  0.10831  0.12523  0.03398  1.0000
  H   H48       1.0  0.89169  0.87476  0.96602  1.0000
  H   H49       1.0  0.17556  0.25583  0.05249  1.0000
  H   H50       1.0  0.82444  0.74417  0.94751  1.0000
  H   H51       1.0  0.05857  0.98224  0.25152  1.0000
  H   H52       1.0  0.94143  0.01776  0.74848  1.0000
  H   H53       1.0  0.23033  0.04624  0.19047  1.0000
  H   H54       1.0  0.76967  0.95376  0.80954  1.0000
  H   H55       1.0  0.12004  0.04693  0.39928  1.0000
  H   H56       1.0  0.87996  0.95308  0.60072  1.0000
  H   H57       1.0  0.18443  0.20420  0.28671  1.0000
  H   H58       1.0  0.81557  0.79580  0.71329  1.0000
  H   H59       1.0  0.94947  0.20609  0.41610  1.0000
  H   H60       1.0  0.05053  0.79392  0.58390  1.0000
  H   H61       1.0  0.88771  0.08345  0.38279  1.0000
  H   H62       1.0  0.11229  0.91656  0.61721  1.0000
  H   H63       1.0  0.83329  0.29196  0.25345  1.0000
  H   H64       1.0  0.16671  0.70804  0.74655  1.0000
  H   H65       1.0  0.01041  0.41604  0.34234  1.0000
  H   H66       1.0  0.98959  0.58396  0.65766  1.0000
  H   H67       1.0  0.88769  0.48664  0.26738  1.0000
  H   H68       1.0  0.11231  0.51336  0.73262  1.0000
  H   H69       1.0  0.06894  0.28991  0.87849  1.0000
  H   H70       1.0  0.93106  0.71009  0.12151  1.0000
  H   H71       1.0  0.91295  0.07624  0.00415  1.0000
  H   H72       1.0  0.08705  0.92375  0.99585  1.0000
  H   H73       1.0  0.92343  0.14049  0.84649  1.0000
  H   H74       1.0  0.07658  0.85951  0.15351  1.0000
  H   H75       1.0  0.77929  0.15918  0.95473  1.0000
  H   H76       1.0  0.22071  0.84082  0.04527  1.0000
  H   H77       1.0  0.19085  0.58797  0.15490  1.0000
  H   H78       1.0  0.80915  0.41203  0.84510  1.0000
  H   H79       1.0  0.08033  0.63561  0.26312  1.0000
  H   H80       1.0  0.91967  0.36439  0.73688  1.0000
  C   C1        1.0  0.59220  0.78295  0.37175  1.0000
  C   C2        1.0  0.40780  0.21704  0.62825  1.0000
  C   C3        1.0  0.43646  0.76667  0.40046  1.0000
  C   C4        1.0  0.56354  0.23333  0.59954  1.0000
  C   C5        1.0  0.39151  0.88519  0.31045  1.0000
  C   C6        1.0  0.60849  0.11481  0.68955  1.0000
  C   C7        1.0  0.46140  0.90681  0.17705  1.0000
  C   C8        1.0  0.53860  0.09319  0.82295  1.0000
  C   C9        1.0  0.61513  0.92070  0.14979  1.0000
  C   C10       1.0  0.38487  0.07930  0.85021  1.0000
  C   C11       1.0  0.66373  0.80429  0.23858  1.0000
  C   C12       1.0  0.33627  0.19571  0.76142  1.0000
  C   C13       1.0  0.77672  0.65008  0.44030  1.0000
  C   C14       1.0  0.22328  0.34992  0.55970  1.0000
  C   C15       1.0  0.86136  0.76768  0.42844  1.0000
  C   C16       1.0  0.13864  0.23231  0.57156  1.0000
  C   C17       1.0  0.24564  0.60538  0.45081  1.0000
  C   C18       1.0  0.75437  0.39462  0.54918  1.0000
  C   C19       1.0  0.79649  0.52723  0.54421  1.0000
  C   C20       1.0  0.20352  0.47277  0.45578  1.0000
  C   C21       1.0  0.58607  0.49539  0.23729  1.0000
  C   C22       1.0  0.41393  0.50461  0.76271  1.0000
  C   C23       1.0  0.68484  0.45433  0.14366  1.0000
  C   C24       1.0  0.31516  0.54566  0.85634  1.0000
  C   C25       1.0  0.95738  0.21376  0.13055  1.0000
  C   C26       1.0  0.04262  0.78624  0.86945  1.0000
  C   C27       1.0  0.09902  0.17049  0.09955  1.0000
  C   C28       1.0  0.90098  0.82951  0.90045  1.0000
  C   C29       1.0  0.12697  0.07252  0.21497  1.0000
  C   C30       1.0  0.87303  0.92748  0.78503  1.0000
  C   C31       1.0  0.10608  0.12298  0.31598  1.0000
  C   C32       1.0  0.89392  0.87702  0.68402  1.0000
  C   C33       1.0  0.96496  0.16761  0.34489  1.0000
  C   C34       1.0  0.03504  0.83239  0.65511  1.0000
  C   C35       1.0  0.93847  0.26910  0.22976  1.0000
  C   C36       1.0  0.06153  0.73090  0.77024  1.0000
  C   C37       1.0  0.99541  0.47097  0.25192  1.0000
  C   C38       1.0  0.00459  0.52904  0.74808  1.0000
  C   C39       1.0  0.95813  0.28844  0.91017  1.0000
  C   C40       1.0  0.04187  0.71156  0.08983  1.0000
  C   C41       1.0  0.88977  0.15845  0.93044  1.0000
  C   C42       1.0  0.11023  0.84155  0.06956  1.0000
  C   C43       1.0  0.08374  0.60135  0.19062  1.0000
  C   C44       1.0  0.91626  0.39865  0.80938  1.0000
  N   N1        1.0  0.39252  0.64137  0.40173  1.0000
  N   N2        1.0  0.60748  0.35863  0.59827  1.0000
  N   N3        1.0  0.63140  0.66816  0.46247  1.0000
  N   N4        1.0  0.36860  0.33184  0.53753  1.0000
  N   N5        1.0  0.02428  0.39458  0.17677  1.0000
  N   N6        1.0  0.97572  0.60542  0.82323  1.0000
  N   N7        1.0  0.92508  0.31223  0.02345  1.0000
  N   N8        1.0  0.07492  0.68777  0.97655  1.0000
  O   O1        1.0  0.61859  0.46705  0.33676  1.0000
  O   O2        1.0  0.38141  0.53295  0.66324  1.0000
  O   O3        1.0  0.48665  0.55389  0.21245  1.0000
  O   O4        1.0  0.51335  0.44611  0.78756  1.0000
  O   O5        1.0  0.65930  0.34662  0.14062  1.0000
  O   O6        1.0  0.34070  0.65338  0.85938  1.0000
  O   O7        1.0  0.79150  0.53554  0.07907  1.0000
  O   O8        1.0  0.20850  0.46446  0.92093  1.0000
