data_image0
_chemical_formula_structural       Zn2H44C52S4N28Cl4O4
_chemical_formula_sum              "Zn2 H44 C52 S4 N28 Cl4 O4"
_cell_length_a       10.372
_cell_length_b       11.5094
_cell_length_c       13.2017
_cell_angle_alpha    90
_cell_angle_beta     90
_cell_angle_gamma    100.597

_space_group_name_H-M_alt    "P 1"
_space_group_IT_number       1

loop_
  _space_group_symop_operation_xyz
  'x, y, z'

loop_
  _atom_site_type_symbol
  _atom_site_label
  _atom_site_symmetry_multiplicity
  _atom_site_fract_x
  _atom_site_fract_y
  _atom_site_fract_z
  _atom_site_occupancy
  Zn  Zn1       1.0  0.50000  0.00000  1.00000  1.0000
  Zn  Zn2       1.0  1.00000  0.00000  0.50000  1.0000
  H   H1        1.0  0.61909  0.16485  0.20627  1.0000
  H   H2        1.0  0.88091  0.83515  0.70627  1.0000
  H   H3        1.0  0.38091  0.83515  0.79373  1.0000
  H   H4        1.0  0.11909  0.16485  0.29373  1.0000
  H   H5        1.0  0.24422  0.13308  0.07452  1.0000
  H   H6        1.0  0.25578  0.86692  0.57452  1.0000
  H   H7        1.0  0.75578  0.86692  0.92548  1.0000
  H   H8        1.0  0.74422  0.13308  0.42548  1.0000
  H   H9        1.0  0.57671  0.26612  0.36627  1.0000
  H   H10       1.0  0.92329  0.73388  0.86627  1.0000
  H   H11       1.0  0.42330  0.73388  0.63373  1.0000
  H   H12       1.0  0.07671  0.26612  0.13373  1.0000
  H   H13       1.0  0.41521  0.20471  0.40938  1.0000
  H   H14       1.0  0.08479  0.79529  0.90938  1.0000
  H   H15       1.0  0.58479  0.79529  0.59062  1.0000
  H   H16       1.0  0.91521  0.20471  0.09062  1.0000
  H   H17       1.0  0.98768  0.71744  0.43059  1.0000
  H   H18       1.0  0.51232  0.28256  0.93060  1.0000
  H   H19       1.0  0.01232  0.28256  0.56941  1.0000
  H   H20       1.0  0.48768  0.71744  0.06940  1.0000
  H   H21       1.0  0.69559  0.92177  0.38524  1.0000
  H   H22       1.0  0.80441  0.07823  0.88524  1.0000
  H   H23       1.0  0.30441  0.07823  0.61476  1.0000
  H   H24       1.0  0.19559  0.92177  0.11476  1.0000
  H   H25       1.0  0.54265  0.77630  0.27312  1.0000
  H   H26       1.0  0.95735  0.22370  0.77313  1.0000
  H   H27       1.0  0.45735  0.22370  0.72688  1.0000
  H   H28       1.0  0.04265  0.77630  0.22687  1.0000
  H   H29       1.0  0.62432  0.67475  0.20828  1.0000
  H   H30       1.0  0.87568  0.32524  0.70828  1.0000
  H   H31       1.0  0.37569  0.32525  0.79172  1.0000
  H   H32       1.0  0.12432  0.67476  0.29172  1.0000
  H   H33       1.0  0.25538  0.33324  0.43670  1.0000
  H   H34       1.0  0.24462  0.66676  0.93670  1.0000
  H   H35       1.0  0.74462  0.66676  0.56330  1.0000
  H   H36       1.0  0.75538  0.33324  0.06330  1.0000
  H   H37       1.0  0.36997  0.70806  0.38499  1.0000
  H   H38       1.0  0.13003  0.29194  0.88499  1.0000
  H   H39       1.0  0.63003  0.29194  0.61501  1.0000
  H   H40       1.0  0.86997  0.70806  0.11501  1.0000
  H   H41       1.0  0.72249  0.53245  0.30401  1.0000
  H   H42       1.0  0.77751  0.46755  0.80401  1.0000
  H   H43       1.0  0.27751  0.46756  0.69599  1.0000
  H   H44       1.0  0.22249  0.53245  0.19599  1.0000
  C   C1        1.0  0.51683  0.16826  0.19082  1.0000
  C   C2        1.0  0.98317  0.83174  0.69082  1.0000
  C   C3        1.0  0.48317  0.83174  0.80918  1.0000
  C   C4        1.0  0.01683  0.16826  0.30918  1.0000
  C   C5        1.0  0.32574  0.15333  0.12713  1.0000
  C   C6        1.0  0.17426  0.84667  0.62713  1.0000
  C   C7        1.0  0.67426  0.84667  0.87287  1.0000
  C   C8        1.0  0.82574  0.15334  0.37287  1.0000
  C   C9        1.0  0.47193  0.26618  0.35513  1.0000
  C   C10       1.0  0.02807  0.73382  0.85513  1.0000
  C   C11       1.0  0.52807  0.73382  0.64487  1.0000
  C   C12       1.0  0.97193  0.26618  0.14487  1.0000
  C   C13       1.0  0.89872  0.74574  0.40581  1.0000
  C   C14       1.0  0.60129  0.25426  0.90581  1.0000
  C   C15       1.0  0.10128  0.25426  0.59420  1.0000
  C   C16       1.0  0.39871  0.74574  0.09419  1.0000
  C   C17       1.0  0.75277  0.85183  0.38456  1.0000
  C   C18       1.0  0.74723  0.14817  0.88456  1.0000
  C   C19       1.0  0.24723  0.14817  0.61544  1.0000
  C   C20       1.0  0.25277  0.85183  0.11544  1.0000
  C   C21       1.0  0.59409  0.70205  0.28316  1.0000
  C   C22       1.0  0.90591  0.29795  0.78316  1.0000
  C   C23       1.0  0.40591  0.29795  0.71684  1.0000
  C   C24       1.0  0.09409  0.70205  0.21684  1.0000
  C   C25       1.0  0.50689  0.60037  0.33505  1.0000
  C   C26       1.0  0.99310  0.39963  0.83505  1.0000
  C   C27       1.0  0.49311  0.39963  0.66495  1.0000
  C   C28       1.0  0.00690  0.60037  0.16495  1.0000
  C   C29       1.0  0.53652  0.48585  0.33130  1.0000
  C   C30       1.0  0.96348  0.51415  0.83130  1.0000
  C   C31       1.0  0.46349  0.51415  0.66870  1.0000
  C   C32       1.0  0.03652  0.48585  0.16870  1.0000
  C   C33       1.0  0.44384  0.38906  0.36646  1.0000
  C   C34       1.0  0.05616  0.61094  0.86646  1.0000
  C   C35       1.0  0.55617  0.61094  0.63354  1.0000
  C   C36       1.0  0.94384  0.38906  0.13354  1.0000
  C   C37       1.0  0.32732  0.40829  0.41043  1.0000
  C   C38       1.0  0.17267  0.59171  0.91043  1.0000
  C   C39       1.0  0.67268  0.59171  0.58957  1.0000
  C   C40       1.0  0.82733  0.40829  0.08957  1.0000
  C   C41       1.0  0.30302  0.52302  0.41987  1.0000
  C   C42       1.0  0.19698  0.47699  0.91987  1.0000
  C   C43       1.0  0.69698  0.47699  0.58013  1.0000
  C   C44       1.0  0.80302  0.52301  0.08013  1.0000
  C   C45       1.0  0.39119  0.61858  0.38143  1.0000
  C   C46       1.0  0.10881  0.38142  0.88143  1.0000
  C   C47       1.0  0.60881  0.38142  0.61857  1.0000
  C   C48       1.0  0.89119  0.61858  0.11857  1.0000
  C   C49       1.0  0.76564  0.95666  0.11361  1.0000
  C   C50       1.0  0.73435  0.04334  0.61362  1.0000
  C   C51       1.0  0.23436  0.04334  0.88638  1.0000
  C   C52       1.0  0.26565  0.95666  0.38639  1.0000
  S   S1        1.0  0.91329  0.93949  0.14130  1.0000
  S   S2        1.0  0.58670  0.06051  0.64131  1.0000
  S   S3        1.0  0.08670  0.06051  0.85869  1.0000
  S   S4        1.0  0.41330  0.93949  0.35869  1.0000
  N   N1        1.0  0.44652  0.12611  0.10945  1.0000
  N   N2        1.0  0.05348  0.87388  0.60945  1.0000
  N   N3        1.0  0.55348  0.87389  0.89055  1.0000
  N   N4        1.0  0.94652  0.12612  0.39055  1.0000
  N   N5        1.0  0.44050  0.21811  0.25342  1.0000
  N   N6        1.0  0.05950  0.78189  0.75342  1.0000
  N   N7        1.0  0.55950  0.78189  0.74658  1.0000
  N   N8        1.0  0.94050  0.21811  0.24658  1.0000
  N   N9        1.0  0.31746  0.20847  0.21456  1.0000
  N   N10       1.0  0.18254  0.79153  0.71456  1.0000
  N   N11       1.0  0.68254  0.79153  0.78544  1.0000
  N   N12       1.0  0.81746  0.20847  0.28544  1.0000
  N   N13       1.0  0.86986  0.85369  0.42730  1.0000
  N   N14       1.0  0.63014  0.14631  0.92730  1.0000
  N   N15       1.0  0.13014  0.14631  0.57270  1.0000
  N   N16       1.0  0.36986  0.85369  0.07270  1.0000
  N   N17       1.0  0.80579  0.67775  0.35187  1.0000
  N   N18       1.0  0.69421  0.32225  0.85187  1.0000
  N   N19       1.0  0.19421  0.32226  0.64813  1.0000
  N   N20       1.0  0.30579  0.67775  0.14812  1.0000
  N   N21       1.0  0.71406  0.74696  0.33928  1.0000
  N   N22       1.0  0.78594  0.25304  0.83928  1.0000
  N   N23       1.0  0.28594  0.25304  0.66072  1.0000
  N   N24       1.0  0.21406  0.74696  0.16072  1.0000
  N   N25       1.0  0.65741  0.96953  0.09333  1.0000
  N   N26       1.0  0.84257  0.03047  0.59334  1.0000
  N   N27       1.0  0.34258  0.03047  0.90666  1.0000
  N   N28       1.0  0.15742  0.96953  0.40667  1.0000
  Cl  Cl1       1.0  0.15857  0.54760  0.47586  1.0000
  Cl  Cl2       1.0  0.34144  0.45240  0.97586  1.0000
  Cl  Cl3       1.0  0.84144  0.45240  0.52414  1.0000
  Cl  Cl4       1.0  0.65856  0.54760  0.02414  1.0000
  O   O1        1.0  0.65056  0.46342  0.29208  1.0000
  O   O2        1.0  0.84944  0.53658  0.79208  1.0000
  O   O3        1.0  0.34944  0.53658  0.70792  1.0000
  O   O4        1.0  0.15056  0.46342  0.20792  1.0000
