data_image0
_chemical_formula_structural       H44Pb2C40S4N4O12
_chemical_formula_sum              "H44 Pb2 C40 S4 N4 O12"
_cell_length_a       9.51231
_cell_length_b       11.5187
_cell_length_c       12.2616
_cell_angle_alpha    66.1148
_cell_angle_beta     71.7464
_cell_angle_gamma    67.2607

_space_group_name_H-M_alt    "P 1"
_space_group_IT_number       1

loop_
  _space_group_symop_operation_xyz
  'x, y, z'

loop_
  _atom_site_type_symbol
  _atom_site_label
  _atom_site_symmetry_multiplicity
  _atom_site_fract_x
  _atom_site_fract_y
  _atom_site_fract_z
  _atom_site_occupancy
  H   H1        1.0  0.14033  0.49643  0.41597  1.0000
  H   H2        1.0  0.85972  0.50358  0.58406  1.0000
  H   H3        1.0  0.04447  0.30909  0.56568  1.0000
  H   H4        1.0  0.95550  0.69093  0.43427  1.0000
  H   H5        1.0  0.19268  0.07634  0.56834  1.0000
  H   H6        1.0  0.80732  0.92367  0.43163  1.0000
  H   H7        1.0  0.43654  0.03579  0.41484  1.0000
  H   H8        1.0  0.56348  0.96421  0.58518  1.0000
  H   H9        1.0  0.36777  0.53429  0.44699  1.0000
  H   H10       1.0  0.63230  0.46573  0.55297  1.0000
  H   H11       1.0  0.35983  0.60976  0.61261  1.0000
  H   H12       1.0  0.64013  0.39023  0.38739  1.0000
  H   H13       1.0  0.23019  0.84658  0.60154  1.0000
  H   H14       1.0  0.76981  0.15341  0.39845  1.0000
  H   H15       1.0  0.10629  0.00752  0.42179  1.0000
  H   H16       1.0  0.89372  0.99248  0.57821  1.0000
  H   H17       1.0  0.72301  0.48573  0.03741  1.0000
  H   H18       1.0  0.27701  0.51426  0.96264  1.0000
  H   H19       1.0  0.06396  0.51970  0.80673  1.0000
  H   H20       1.0  0.93603  0.48029  0.19329  1.0000
  H   H21       1.0  0.02847  0.68519  0.80582  1.0000
  H   H22       1.0  0.97153  0.31480  0.19420  1.0000
  H   H23       1.0  0.94317  0.66021  0.71006  1.0000
  H   H24       1.0  0.05681  0.33978  0.28997  1.0000
  H   H25       1.0  0.63248  0.69785  0.98611  1.0000
  H   H26       1.0  0.36752  0.30216  0.01391  1.0000
  H   H27       1.0  0.68170  0.78676  0.82894  1.0000
  H   H28       1.0  0.31832  0.21324  0.17108  1.0000
  H   H29       1.0  0.77903  0.78031  0.93508  1.0000
  H   H30       1.0  0.22099  0.21967  0.06494  1.0000
  H   H31       1.0  0.89655  0.75233  0.17493  1.0000
  H   H32       1.0  0.10345  0.24764  0.82508  1.0000
  H   H33       1.0  0.76926  0.63843  0.32251  1.0000
  H   H34       1.0  0.23076  0.36158  0.67751  1.0000
  H   H35       1.0  0.59460  0.64035  0.29426  1.0000
  H   H36       1.0  0.40545  0.35964  0.70574  1.0000
  H   H37       1.0  0.58527  0.73035  0.38681  1.0000
  H   H38       1.0  0.41472  0.26962  0.61322  1.0000
  H   H39       1.0  0.54104  0.99844  0.09166  1.0000
  H   H40       1.0  0.45895  0.00155  0.90837  1.0000
  H   H41       1.0  0.43959  0.94243  0.24349  1.0000
  H   H42       1.0  0.56039  0.05756  0.75654  1.0000
  H   H43       1.0  0.45434  0.86867  0.13582  1.0000
  H   H44       1.0  0.54569  0.13130  0.86421  1.0000
  Pb  Pb1       1.0  0.86393  0.14340  0.06626  1.0000
  Pb  Pb2       1.0  0.13602  0.85657  0.93372  1.0000
  C   C1        1.0  0.57967  0.20832  0.25027  1.0000
  C   C2        1.0  0.42029  0.79170  0.74968  1.0000
  C   C3        1.0  0.42977  0.24008  0.33545  1.0000
  C   C4        1.0  0.57022  0.75994  0.66452  1.0000
  C   C5        1.0  0.34655  0.37203  0.33480  1.0000
  C   C6        1.0  0.65345  0.62798  0.66518  1.0000
  C   C7        1.0  0.20660  0.39486  0.41737  1.0000
  C   C8        1.0  0.79342  0.60516  0.58263  1.0000
  C   C9        1.0  0.15176  0.28944  0.50056  1.0000
  C   C10       1.0  0.84823  0.71057  0.49941  1.0000
  C   C11       1.0  0.23372  0.15896  0.50177  1.0000
  C   C12       1.0  0.76628  0.84106  0.49821  1.0000
  C   C13       1.0  0.37037  0.13586  0.41805  1.0000
  C   C14       1.0  0.62964  0.86415  0.58194  1.0000
  C   C15       1.0  0.23385  0.72619  0.34496  1.0000
  C   C16       1.0  0.76621  0.27383  0.65500  1.0000
  C   C17       1.0  0.30772  0.63751  0.44314  1.0000
  C   C18       1.0  0.69232  0.36250  0.55682  1.0000
  C   C19       1.0  0.30516  0.68052  0.53518  1.0000
  C   C20       1.0  0.69484  0.31948  0.46481  1.0000
  C   C21       1.0  0.23390  0.81381  0.52874  1.0000
  C   C22       1.0  0.76610  0.18619  0.47126  1.0000
  C   C23       1.0  0.16289  0.90280  0.43040  1.0000
  C   C24       1.0  0.83713  0.09721  0.56958  1.0000
  C   C25       1.0  0.15742  0.86031  0.34017  1.0000
  C   C26       1.0  0.84261  0.13971  0.65980  1.0000
  C   C27       1.0  0.06101  0.95446  0.24646  1.0000
  C   C28       1.0  0.93895  0.04556  0.75354  1.0000
  C   C29       1.0  0.83018  0.48310  0.96797  1.0000
  C   C30       1.0  0.16982  0.51688  0.03206  1.0000
  C   C31       1.0  0.97855  0.61779  0.79878  1.0000
  C   C32       1.0  0.02144  0.38220  0.20124  1.0000
  C   C33       1.0  0.72792  0.72390  0.91269  1.0000
  C   C34       1.0  0.27209  0.27609  0.08734  1.0000
  C   C35       1.0  0.79731  0.83126  0.13603  1.0000
  C   C36       1.0  0.20269  0.16871  0.86398  1.0000
  C   C37       1.0  0.65167  0.69968  0.30681  1.0000
  C   C38       1.0  0.34834  0.30031  0.69321  1.0000
  C   C39       1.0  0.51507  0.91183  0.16539  1.0000
  C   C40       1.0  0.48493  0.08816  0.83464  1.0000
  S   S1        1.0  0.42100  0.50518  0.22980  1.0000
  S   S2        1.0  0.57899  0.49483  0.77015  1.0000
  S   S3        1.0  0.23113  0.67361  0.22758  1.0000
  S   S4        1.0  0.76889  0.32642  0.77239  1.0000
  N   N1        1.0  0.84478  0.60279  0.89585  1.0000
  N   N2        1.0  0.15522  0.39720  0.10418  1.0000
  N   N3        1.0  0.65988  0.81541  0.19977  1.0000
  N   N4        1.0  0.34012  0.18459  0.80027  1.0000
  O   O1        1.0  0.64432  0.30062  0.18968  1.0000
  O   O2        1.0  0.35565  0.69939  0.81026  1.0000
  O   O3        1.0  0.63718  0.09185  0.24118  1.0000
  O   O4        1.0  0.36277  0.90816  0.75876  1.0000
  O   O5        1.0  0.01127  0.07890  0.23200  1.0000
  O   O6        1.0  0.98858  0.92111  0.76807  1.0000
  O   O7        1.0  0.02581  0.90395  0.18688  1.0000
  O   O8        1.0  0.97420  0.09607  0.81309  1.0000
  O   O9        1.0  0.92807  0.37449  0.96042  1.0000
  O   O10       1.0  0.07192  0.62550  0.03960  1.0000
  O   O11       1.0  0.81634  0.92489  0.03937  1.0000
  O   O12       1.0  0.18366  0.07506  0.96061  1.0000
