data_image0
_chemical_formula_structural       Zn2H10C10O12
_chemical_formula_sum              "Zn2 H10 C10 O12"
_cell_length_a       7.03132
_cell_length_b       7.38784
_cell_length_c       8.32083
_cell_angle_alpha    90.2892
_cell_angle_beta     110.686
_cell_angle_gamma    94.9464

_space_group_name_H-M_alt    "P 1"
_space_group_IT_number       1

loop_
  _space_group_symop_operation_xyz
  'x, y, z'

loop_
  _atom_site_type_symbol
  _atom_site_label
  _atom_site_symmetry_multiplicity
  _atom_site_fract_x
  _atom_site_fract_y
  _atom_site_fract_z
  _atom_site_occupancy
  Zn  Zn1       1.0  0.50000  0.00000  0.50000  1.0000
  Zn  Zn2       1.0  0.00000  0.50000  0.50000  1.0000
  H   H1        1.0  0.42142  0.81039  0.05333  1.0000
  H   H2        1.0  0.57858  0.18961  0.94668  1.0000
  H   H3        1.0  0.17783  0.64941  0.28539  1.0000
  H   H4        1.0  0.82217  0.35059  0.71461  1.0000
  H   H5        1.0  0.03475  0.47628  0.19306  1.0000
  H   H6        1.0  0.96525  0.52372  0.80694  1.0000
  H   H7        1.0  0.16777  0.13727  0.43341  1.0000
  H   H8        1.0  0.83223  0.86273  0.56659  1.0000
  H   H9        1.0  0.14317  0.92607  0.47795  1.0000
  H   H10       1.0  0.85683  0.07393  0.52205  1.0000
  C   C1        1.0  0.45370  0.67326  0.02846  1.0000
  C   C2        1.0  0.54630  0.32674  0.97154  1.0000
  C   C3        1.0  0.42165  0.61348  0.86076  1.0000
  C   C4        1.0  0.57835  0.38652  0.13924  1.0000
  C   C5        1.0  0.46776  0.43756  0.83169  1.0000
  C   C6        1.0  0.53225  0.56244  0.16831  1.0000
  C   C7        1.0  0.42818  0.35155  0.65795  1.0000
  C   C8        1.0  0.57182  0.64845  0.34205  1.0000
  C   C9        1.0  0.35720  0.74949  0.72210  1.0000
  C   C10       1.0  0.64280  0.25051  0.27790  1.0000
  O   O1        1.0  0.49246  0.87414  0.72474  1.0000
  O   O2        1.0  0.50754  0.12586  0.27526  1.0000
  O   O3        1.0  0.17253  0.73729  0.61471  1.0000
  O   O4        1.0  0.82747  0.26271  0.38529  1.0000
  O   O5        1.0  0.56669  0.26106  0.64131  1.0000
  O   O6        1.0  0.43331  0.73894  0.35869  1.0000
  O   O7        1.0  0.25569  0.35939  0.53789  1.0000
  O   O8        1.0  0.74432  0.64061  0.46211  1.0000
  O   O9        1.0  0.03846  0.58597  0.25981  1.0000
  O   O10       1.0  0.96155  0.41403  0.74019  1.0000
  O   O11       1.0  0.18380  0.01180  0.40166  1.0000
  O   O12       1.0  0.81620  0.98820  0.59834  1.0000
