data_image0
_chemical_formula_structural       K2H10C4N16O4
_chemical_formula_sum              "K2 H10 C4 N16 O4"
_cell_length_a       7.23697
_cell_length_b       7.55875
_cell_length_c       7.90254
_cell_angle_alpha    85.7282
_cell_angle_beta     84.2854
_cell_angle_gamma    86.3705

_space_group_name_H-M_alt    "P 1"
_space_group_IT_number       1

loop_
  _space_group_symop_operation_xyz
  'x, y, z'

loop_
  _atom_site_type_symbol
  _atom_site_label
  _atom_site_symmetry_multiplicity
  _atom_site_fract_x
  _atom_site_fract_y
  _atom_site_fract_z
  _atom_site_occupancy
  K   K1        1.0  0.61298  0.35637  0.67974  1.0000
  K   K2        1.0  0.38702  0.64363  0.32026  1.0000
  H   H1        1.0  0.16595  0.37438  0.60129  1.0000
  H   H2        1.0  0.83405  0.62562  0.39870  1.0000
  H   H3        1.0  0.95243  0.52459  0.78741  1.0000
  H   H4        1.0  0.04758  0.47541  0.21259  1.0000
  H   H5        1.0  0.78914  0.94879  0.33653  1.0000
  H   H6        1.0  0.21086  0.05121  0.66347  1.0000
  H   H7        1.0  0.25999  0.26326  0.44710  1.0000
  H   H8        1.0  0.74001  0.73674  0.55290  1.0000
  H   H9        1.0  0.02988  0.32820  0.84012  1.0000
  H   H10       1.0  0.97012  0.67180  0.15988  1.0000
  C   C1        1.0  0.76156  0.97091  0.97568  1.0000
  C   C2        1.0  0.23844  0.02909  0.02432  1.0000
  C   C3        1.0  0.73961  0.07133  0.27094  1.0000
  C   C4        1.0  0.26039  0.92868  0.72906  1.0000
  N   N1        1.0  0.62425  0.33396  0.20932  1.0000
  N   N2        1.0  0.37575  0.66604  0.79068  1.0000
  N   N3        1.0  0.85592  0.81468  0.00199  1.0000
  N   N4        1.0  0.14408  0.18532  0.99801  1.0000
  N   N5        1.0  0.71912  0.09143  0.10202  1.0000
  N   N6        1.0  0.28088  0.90857  0.89798  1.0000
  N   N7        1.0  0.78196  0.85391  0.74044  1.0000
  N   N8        1.0  0.21803  0.14609  0.25956  1.0000
  N   N9        1.0  0.71286  0.00054  0.81658  1.0000
  N   N10       1.0  0.28713  0.99946  0.18343  1.0000
  N   N11       1.0  0.68124  0.22158  0.33941  1.0000
  N   N12       1.0  0.31876  0.77842  0.66059  1.0000
  N   N13       1.0  0.86616  0.74396  0.85006  1.0000
  N   N14       1.0  0.13384  0.25605  0.14994  1.0000
  N   N15       1.0  0.64559  0.25880  0.06579  1.0000
  N   N16       1.0  0.35441  0.74120  0.93421  1.0000
  O   O1        1.0  0.97627  0.40313  0.74632  1.0000
  O   O2        1.0  0.02373  0.59687  0.25368  1.0000
  O   O3        1.0  0.28734  0.33800  0.53826  1.0000
  O   O4        1.0  0.71266  0.66200  0.46174  1.0000
