data_image0
_chemical_formula_structural       Cd2H52C60N4O10
_chemical_formula_sum              "Cd2 H52 C60 N4 O10"
_cell_length_a       8.3778
_cell_length_b       12.4887
_cell_length_c       12.4887
_cell_angle_alpha    84.1271
_cell_angle_beta     81.7323
_cell_angle_gamma    81.7325

_space_group_name_H-M_alt    "P 1"
_space_group_IT_number       1

loop_
  _space_group_symop_operation_xyz
  'x, y, z'

loop_
  _atom_site_type_symbol
  _atom_site_label
  _atom_site_symmetry_multiplicity
  _atom_site_fract_x
  _atom_site_fract_y
  _atom_site_fract_z
  _atom_site_occupancy
  Cd  Cd1       1.0  0.75000  0.37373  0.62627  1.0000
  Cd  Cd2       1.0  0.25000  0.62627  0.37373  1.0000
  H   H1        1.0  0.65858  0.57189  0.47163  1.0000
  H   H2        1.0  0.84142  0.52837  0.42811  1.0000
  H   H3        1.0  0.34142  0.42811  0.52837  1.0000
  H   H4        1.0  0.15858  0.47163  0.57189  1.0000
  H   H5        1.0  0.78321  0.13203  0.53628  1.0000
  H   H6        1.0  0.71679  0.46372  0.86797  1.0000
  H   H7        1.0  0.21679  0.86797  0.46371  1.0000
  H   H8        1.0  0.28321  0.53628  0.13203  1.0000
  H   H9        1.0  0.94745  0.02073  0.39465  1.0000
  H   H10       1.0  0.55255  0.60536  0.97927  1.0000
  H   H11       1.0  0.05255  0.97927  0.60535  1.0000
  H   H12       1.0  0.44745  0.39464  0.02073  1.0000
  H   H13       1.0  0.21736  0.29252  0.29329  1.0000
  H   H14       1.0  0.28264  0.70671  0.70748  1.0000
  H   H15       1.0  0.78264  0.70748  0.70671  1.0000
  H   H16       1.0  0.71736  0.29329  0.29252  1.0000
  H   H17       1.0  0.04610  0.39038  0.43818  1.0000
  H   H18       1.0  0.45390  0.56182  0.60962  1.0000
  H   H19       1.0  0.95390  0.60962  0.56182  1.0000
  H   H20       1.0  0.54610  0.43818  0.39038  1.0000
  H   H21       1.0  0.19914  0.99318  0.26391  1.0000
  H   H22       1.0  0.30085  0.73608  0.00682  1.0000
  H   H23       1.0  0.80086  0.00682  0.73608  1.0000
  H   H24       1.0  0.69915  0.26391  0.99318  1.0000
  H   H25       1.0  0.28003  0.20970  0.14204  1.0000
  H   H26       1.0  0.21997  0.85796  0.79030  1.0000
  H   H27       1.0  0.71997  0.79030  0.85796  1.0000
  H   H28       1.0  0.78003  0.14204  0.20970  1.0000
  H   H29       1.0  0.40903  0.19627  0.96063  1.0000
  H   H30       1.0  0.09097  0.03937  0.80373  1.0000
  H   H31       1.0  0.59097  0.80373  0.03937  1.0000
  H   H32       1.0  0.90903  0.96063  0.19627  1.0000
  H   H33       1.0  0.41179  0.90352  0.17883  1.0000
  H   H34       1.0  0.08821  0.82117  0.09648  1.0000
  H   H35       1.0  0.58821  0.09648  0.82117  1.0000
  H   H36       1.0  0.91179  0.17883  0.90352  1.0000
  H   H37       1.0  0.07149  0.29990  0.02579  1.0000
  H   H38       1.0  0.42851  0.97421  0.70010  1.0000
  H   H39       1.0  0.92851  0.70010  0.97421  1.0000
  H   H40       1.0  0.57149  0.02579  0.29990  1.0000
  H   H41       1.0  0.05554  0.59666  0.81751  1.0000
  H   H42       1.0  0.44446  0.18249  0.40334  1.0000
  H   H43       1.0  0.94446  0.40334  0.18249  1.0000
  H   H44       1.0  0.55554  0.81751  0.59666  1.0000
  H   H45       1.0  0.19377  0.29496  0.84221  1.0000
  H   H46       1.0  0.30623  0.15779  0.70504  1.0000
  H   H47       1.0  0.80623  0.70504  0.15779  1.0000
  H   H48       1.0  0.69377  0.84221  0.29496  1.0000
  H   H49       1.0  0.24368  0.41701  0.76472  1.0000
  H   H50       1.0  0.25632  0.23528  0.58299  1.0000
  H   H51       1.0  0.75632  0.58299  0.23528  1.0000
  H   H52       1.0  0.74368  0.76472  0.41701  1.0000
  C   C1        1.0  0.88062  0.16430  0.48023  1.0000
  C   C2        1.0  0.61938  0.51977  0.83570  1.0000
  C   C3        1.0  0.11938  0.83570  0.51977  1.0000
  C   C4        1.0  0.38062  0.48023  0.16430  1.0000
  C   C5        1.0  0.97254  0.10296  0.40075  1.0000
  C   C6        1.0  0.52746  0.59925  0.89704  1.0000
  C   C7        1.0  0.02746  0.89704  0.59925  1.0000
  C   C8        1.0  0.47254  0.40075  0.10296  1.0000
  C   C9        1.0  0.09811  0.14629  0.32957  1.0000
  C   C10       1.0  0.40189  0.67043  0.85371  1.0000
  C   C11       1.0  0.90189  0.85371  0.67043  1.0000
  C   C12       1.0  0.59811  0.32957  0.14629  1.0000
  C   C13       1.0  0.12122  0.25330  0.34354  1.0000
  C   C14       1.0  0.37878  0.65646  0.74670  1.0000
  C   C15       1.0  0.87878  0.74670  0.65646  1.0000
  C   C16       1.0  0.62123  0.34354  0.25330  1.0000
  C   C17       1.0  0.02534  0.30887  0.42544  1.0000
  C   C18       1.0  0.47466  0.57456  0.69113  1.0000
  C   C19       1.0  0.97466  0.69113  0.57456  1.0000
  C   C20       1.0  0.52534  0.42544  0.30886  1.0000
  C   C21       1.0  0.19927  0.08094  0.24948  1.0000
  C   C22       1.0  0.30073  0.75052  0.91906  1.0000
  C   C23       1.0  0.80073  0.91906  0.75052  1.0000
  C   C24       1.0  0.69927  0.24948  0.08094  1.0000
  C   C25       1.0  0.28893  0.12149  0.15943  1.0000
  C   C26       1.0  0.21107  0.84057  0.87851  1.0000
  C   C27       1.0  0.71107  0.87851  0.84058  1.0000
  C   C28       1.0  0.78893  0.15943  0.12149  1.0000
  C   C29       1.0  0.39484  0.05829  0.07976  1.0000
  C   C30       1.0  0.10516  0.92024  0.94171  1.0000
  C   C31       1.0  0.60516  0.94171  0.92024  1.0000
  C   C32       1.0  0.89483  0.07976  0.05829  1.0000
  C   C33       1.0  0.44964  0.10991  0.97802  1.0000
  C   C34       1.0  0.05036  0.02198  0.89009  1.0000
  C   C35       1.0  0.55036  0.89009  0.02199  1.0000
  C   C36       1.0  0.94964  0.97801  0.10991  1.0000
  C   C37       1.0  0.44777  0.94650  0.10045  1.0000
  C   C38       1.0  0.05223  0.89955  0.05350  1.0000
  C   C39       1.0  0.55223  0.05350  0.89955  1.0000
  C   C40       1.0  0.94777  0.10045  0.94650  1.0000
  C   C41       1.0  0.04131  0.38794  0.01448  1.0000
  C   C42       1.0  0.45869  0.98552  0.61206  1.0000
  C   C43       1.0  0.95869  0.61206  0.98552  1.0000
  C   C44       1.0  0.54131  0.01448  0.38794  1.0000
  C   C45       1.0  0.07458  0.44122  0.91107  1.0000
  C   C46       1.0  0.42542  0.08893  0.55878  1.0000
  C   C47       1.0  0.92542  0.55878  0.08893  1.0000
  C   C48       1.0  0.57458  0.91107  0.44122  1.0000
  C   C49       1.0  0.03178  0.55404  0.89769  1.0000
  C   C50       1.0  0.46822  0.10231  0.44596  1.0000
  C   C51       1.0  0.96822  0.44596  0.10231  1.0000
  C   C52       1.0  0.53178  0.89769  0.55404  1.0000
  C   C53       1.0  0.14558  0.37808  0.81452  1.0000
  C   C54       1.0  0.35442  0.18548  0.62192  1.0000
  C   C55       1.0  0.85443  0.62192  0.18548  1.0000
  C   C56       1.0  0.64557  0.81452  0.37808  1.0000
  C   C57       1.0  0.01045  0.37285  0.74595  1.0000
  C   C58       1.0  0.48955  0.25405  0.62715  1.0000
  C   C59       1.0  0.98955  0.62715  0.25405  1.0000
  C   C60       1.0  0.51045  0.74595  0.37285  1.0000
  N   N1        1.0  0.90667  0.26573  0.49379  1.0000
  N   N2        1.0  0.59333  0.50621  0.73427  1.0000
  N   N3        1.0  0.09333  0.73427  0.50621  1.0000
  N   N4        1.0  0.40667  0.49379  0.26573  1.0000
  O   O1        1.0  0.90201  0.31226  0.78095  1.0000
  O   O2        1.0  0.59799  0.21905  0.68774  1.0000
  O   O3        1.0  0.09799  0.68774  0.21905  1.0000
  O   O4        1.0  0.40201  0.78095  0.31226  1.0000
  O   O5        1.0  0.00576  0.43401  0.65733  1.0000
  O   O6        1.0  0.49424  0.34267  0.56599  1.0000
  O   O7        1.0  0.99424  0.56599  0.34267  1.0000
  O   O8        1.0  0.50576  0.65733  0.43401  1.0000
  O   O9        1.0  0.75000  0.51394  0.48606  1.0000
  O   O10       1.0  0.25000  0.48606  0.51394  1.0000
