data_image0
_chemical_formula_structural       BaH18C12N8O10
_chemical_formula_sum              "Ba1 H18 C12 N8 O10"
_cell_length_a       4.68358
_cell_length_b       8.38425
_cell_length_c       12.5905
_cell_angle_alpha    103.976
_cell_angle_beta     100.732
_cell_angle_gamma    89.9959

_space_group_name_H-M_alt    "P 1"
_space_group_IT_number       1

loop_
  _space_group_symop_operation_xyz
  'x, y, z'

loop_
  _atom_site_type_symbol
  _atom_site_label
  _atom_site_symmetry_multiplicity
  _atom_site_fract_x
  _atom_site_fract_y
  _atom_site_fract_z
  _atom_site_occupancy
  Ba  Ba1       1.0  0.08625  0.99998  0.99999  1.0000
  H   H1        1.0  0.25056  0.38112  0.47965  1.0000
  H   H2        1.0  0.77145  0.61852  0.52029  1.0000
  H   H3        1.0  0.02515  0.13256  0.54099  1.0000
  H   H4        1.0  0.48438  0.86756  0.45918  1.0000
  H   H5        1.0  0.31213  0.59982  0.68242  1.0000
  H   H6        1.0  0.63019  0.40017  0.31751  1.0000
  H   H7        1.0  0.67962  0.67052  0.72895  1.0000
  H   H8        1.0  0.95112  0.32945  0.27098  1.0000
  H   H9        1.0  0.75592  0.50997  0.86841  1.0000
  H   H10       1.0  0.88779  0.49019  0.13160  1.0000
  H   H11       1.0  0.56202  0.14961  0.40100  1.0000
  H   H12       1.0  0.16141  0.85024  0.59904  1.0000
  H   H13       1.0  0.15643  0.36724  0.75691  1.0000
  H   H14       1.0  0.39982  0.63274  0.24311  1.0000
  H   H15       1.0  0.27849  0.39139  0.89736  1.0000
  H   H16       1.0  0.38110  0.60855  0.10265  1.0000
  H   H17       1.0  0.46844  0.27652  0.80899  1.0000
  H   H18       1.0  0.65942  0.72354  0.19099  1.0000
  C   C1        1.0  0.60835  0.42075  0.63089  1.0000
  C   C2        1.0  0.97793  0.57920  0.36910  1.0000
  C   C3        1.0  0.45456  0.35098  0.52509  1.0000
  C   C4        1.0  0.92997  0.64883  0.47491  1.0000
  C   C5        1.0  0.85952  0.22066  0.55615  1.0000
  C   C6        1.0  0.30372  0.77934  0.44394  1.0000
  C   C7        1.0  0.52975  0.56327  0.71514  1.0000
  C   C8        1.0  0.81507  0.43671  0.28481  1.0000
  C   C9        1.0  0.53208  0.53043  0.83014  1.0000
  C   C10       1.0  0.70230  0.46961  0.16983  1.0000
  C   C11       1.0  0.43236  0.68183  0.90792  1.0000
  C   C12       1.0  0.52493  0.31817  0.09202  1.0000
  N   N1        1.0  0.61690  0.22525  0.47933  1.0000
  N   N2        1.0  0.13798  0.77460  0.52073  1.0000
  N   N3        1.0  0.86249  0.33795  0.64900  1.0000
  N   N4        1.0  0.21387  0.66210  0.35105  1.0000
  N   N5        1.0  0.34664  0.38164  0.82218  1.0000
  N   N6        1.0  0.52461  0.61836  0.17781  1.0000
  N   N7        1.0  0.76324  0.02134  0.74730  1.0000
  N   N8        1.0  0.01659  0.97882  0.25271  1.0000
  O   O1        1.0  0.22857  0.66128  0.95827  1.0000
  O   O2        1.0  0.27076  0.33865  0.04162  1.0000
  O   O3        1.0  0.55877  0.81931  0.91641  1.0000
  O   O4        1.0  0.64294  0.18073  0.08364  1.0000
  O   O5        1.0  0.75004  0.13622  0.83454  1.0000
  O   O6        1.0  0.91536  0.86399  0.16553  1.0000
  O   O7        1.0  0.57203  0.00441  0.66156  1.0000
  O   O8        1.0  0.91180  0.99606  0.33859  1.0000
  O   O9        1.0  0.97671  0.92735  0.75181  1.0000
  O   O10       1.0  0.22580  0.07247  0.24798  1.0000
