data_image0
_chemical_formula_structural       Cu2H24C32O12
_chemical_formula_sum              "Cu2 H24 C32 O12"
_cell_length_a       4.85925
_cell_length_b       9.56524
_cell_length_c       15.5908
_cell_angle_alpha    103.102
_cell_angle_beta     90.002
_cell_angle_gamma    90.0021

_space_group_name_H-M_alt    "P 1"
_space_group_IT_number       1

loop_
  _space_group_symop_operation_xyz
  'x, y, z'

loop_
  _atom_site_type_symbol
  _atom_site_label
  _atom_site_symmetry_multiplicity
  _atom_site_fract_x
  _atom_site_fract_y
  _atom_site_fract_z
  _atom_site_occupancy
  Cu  Cu1       1.0  0.49996  0.49996  0.50001  1.0000
  Cu  Cu2       1.0  0.99998  0.99998  0.50001  1.0000
  H   H1        1.0  0.23205  0.20004  0.37666  1.0000
  H   H2        1.0  0.73189  0.29981  0.62331  1.0000
  H   H3        1.0  0.76799  0.79987  0.62329  1.0000
  H   H4        1.0  0.26801  0.70007  0.37666  1.0000
  H   H5        1.0  0.13259  0.08061  0.23221  1.0000
  H   H6        1.0  0.63250  0.41937  0.76778  1.0000
  H   H7        1.0  0.86750  0.91942  0.76777  1.0000
  H   H8        1.0  0.36746  0.58066  0.23222  1.0000
  H   H9        1.0  0.21056  0.03827  0.07067  1.0000
  H   H10       1.0  0.71058  0.46176  0.92933  1.0000
  H   H11       1.0  0.78950  0.96180  0.92931  1.0000
  H   H12       1.0  0.28945  0.53832  0.07068  1.0000
  H   H13       1.0  0.55230  0.18855  0.01184  1.0000
  H   H14       1.0  0.05230  0.31148  0.98816  1.0000
  H   H15       1.0  0.44777  0.81154  0.98815  1.0000
  H   H16       1.0  0.94771  0.68858  0.01184  1.0000
  H   H17       1.0  0.81072  0.38073  0.11543  1.0000
  H   H18       1.0  0.31069  0.11930  0.88458  1.0000
  H   H19       1.0  0.18938  0.61933  0.88458  1.0000
  H   H20       1.0  0.68935  0.88075  0.11542  1.0000
  H   H21       1.0  0.73080  0.42236  0.27619  1.0000
  H   H22       1.0  0.23066  0.07764  0.72382  1.0000
  H   H23       1.0  0.26929  0.57766  0.72382  1.0000
  H   H24       1.0  0.76926  0.92239  0.27618  1.0000
  C   C1        1.0  0.65280  0.24039  0.40724  1.0000
  C   C2        1.0  0.15266  0.25954  0.59278  1.0000
  C   C3        1.0  0.34719  0.75954  0.59276  1.0000
  C   C4        1.0  0.84724  0.74039  0.40723  1.0000
  C   C5        1.0  0.38999  0.27537  0.36201  1.0000
  C   C6        1.0  0.88985  0.22453  0.63799  1.0000
  C   C7        1.0  0.61003  0.72458  0.63798  1.0000
  C   C8        1.0  0.11004  0.77540  0.36201  1.0000
  C   C9        1.0  0.42662  0.25341  0.26384  1.0000
  C   C10       1.0  0.92651  0.24654  0.73616  1.0000
  C   C11       1.0  0.57343  0.74660  0.73617  1.0000
  C   C12       1.0  0.07342  0.75344  0.26383  1.0000
  C   C13       1.0  0.28037  0.14579  0.20594  1.0000
  C   C14       1.0  0.78028  0.35419  0.79405  1.0000
  C   C15       1.0  0.71972  0.85425  0.79404  1.0000
  C   C16       1.0  0.21967  0.64583  0.20594  1.0000
  C   C17       1.0  0.32578  0.12216  0.11542  1.0000
  C   C18       1.0  0.82574  0.37784  0.88458  1.0000
  C   C19       1.0  0.67428  0.87790  0.88457  1.0000
  C   C20       1.0  0.17424  0.62220  0.11542  1.0000
  C   C21       1.0  0.51620  0.20656  0.08251  1.0000
  C   C22       1.0  0.01618  0.29347  0.91748  1.0000
  C   C23       1.0  0.48389  0.79353  0.91748  1.0000
  C   C24       1.0  0.98384  0.70659  0.08251  1.0000
  C   C25       1.0  0.66132  0.31461  0.14036  1.0000
  C   C26       1.0  0.16127  0.18539  0.85965  1.0000
  C   C27       1.0  0.33875  0.68545  0.85966  1.0000
  C   C28       1.0  0.83872  0.81463  0.14035  1.0000
  C   C29       1.0  0.61746  0.33842  0.23078  1.0000
  C   C30       1.0  0.11732  0.16156  0.76922  1.0000
  C   C31       1.0  0.38263  0.66161  0.76923  1.0000
  C   C32       1.0  0.88259  0.83846  0.23078  1.0000
  O   O1        1.0  0.30933  0.41660  0.39981  1.0000
  O   O2        1.0  0.80932  0.08328  0.60020  1.0000
  O   O3        1.0  0.69060  0.58330  0.60022  1.0000
  O   O4        1.0  0.19069  0.91664  0.39983  1.0000
  O   O5        1.0  0.73412  0.34172  0.47358  1.0000
  O   O6        1.0  0.23410  0.15824  0.52647  1.0000
  O   O7        1.0  0.26580  0.65820  0.52645  1.0000
  O   O8        1.0  0.76584  0.84172  0.47354  1.0000
  O   O9        1.0  0.78018  0.12673  0.38348  1.0000
  O   O10       1.0  0.28006  0.37326  0.61656  1.0000
  O   O11       1.0  0.21982  0.87324  0.61651  1.0000
  O   O12       1.0  0.71986  0.62668  0.38347  1.0000
