data_image0
_chemical_formula_structural       Sr4H16C16S4O16
_chemical_formula_sum              "Sr4 H16 C16 S4 O16"
_cell_length_a       7.59305
_cell_length_b       9.04952
_cell_length_c       9.87656
_cell_angle_alpha    99.9473
_cell_angle_beta     90.0001
_cell_angle_gamma    89.9999

_space_group_name_H-M_alt    "P 1"
_space_group_IT_number       1

loop_
  _space_group_symop_operation_xyz
  'x, y, z'

loop_
  _atom_site_type_symbol
  _atom_site_label
  _atom_site_symmetry_multiplicity
  _atom_site_fract_x
  _atom_site_fract_y
  _atom_site_fract_z
  _atom_site_occupancy
  Sr  Sr1       1.0  0.96029  0.45490  0.69579  1.0000
  Sr  Sr2       1.0  0.46029  0.54510  0.80421  1.0000
  Sr  Sr3       1.0  0.03971  0.54510  0.30421  1.0000
  Sr  Sr4       1.0  0.53971  0.45490  0.19579  1.0000
  H   H1        1.0  0.11195  0.12577  0.03137  1.0000
  H   H2        1.0  0.61195  0.87424  0.46863  1.0000
  H   H3        1.0  0.88805  0.87423  0.96863  1.0000
  H   H4        1.0  0.38805  0.12577  0.53137  1.0000
  H   H5        1.0  0.27280  0.13174  0.90152  1.0000
  H   H6        1.0  0.77279  0.86826  0.59849  1.0000
  H   H7        1.0  0.72720  0.86825  0.09849  1.0000
  H   H8        1.0  0.22721  0.13175  0.40151  1.0000
  H   H9        1.0  0.70727  0.04598  0.88874  1.0000
  H   H10       1.0  0.20727  0.95402  0.61126  1.0000
  H   H11       1.0  0.29273  0.95402  0.11125  1.0000
  H   H12       1.0  0.79273  0.04598  0.38875  1.0000
  H   H13       1.0  0.81345  0.18091  0.01350  1.0000
  H   H14       1.0  0.31344  0.81909  0.48650  1.0000
  H   H15       1.0  0.18655  0.81909  0.98650  1.0000
  H   H16       1.0  0.68655  0.18091  0.51350  1.0000
  C   C1        1.0  0.17270  0.34574  0.98738  1.0000
  C   C2        1.0  0.67270  0.65427  0.51262  1.0000
  C   C3        1.0  0.82728  0.65427  0.01261  1.0000
  C   C4        1.0  0.32729  0.34573  0.48739  1.0000
  C   C5        1.0  0.14485  0.17714  0.94187  1.0000
  C   C6        1.0  0.64484  0.82286  0.55813  1.0000
  C   C7        1.0  0.85515  0.82285  0.05813  1.0000
  C   C8        1.0  0.35516  0.17714  0.44187  1.0000
  C   C9        1.0  0.66324  0.26964  0.86057  1.0000
  C   C10       1.0  0.16324  0.73036  0.63943  1.0000
  C   C11       1.0  0.33676  0.73036  0.13942  1.0000
  C   C12       1.0  0.83677  0.26964  0.36057  1.0000
  C   C13       1.0  0.78275  0.15133  0.90354  1.0000
  C   C14       1.0  0.28274  0.84867  0.59646  1.0000
  C   C15       1.0  0.21726  0.84867  0.09647  1.0000
  C   C16       1.0  0.71726  0.15133  0.40353  1.0000
  S   S1        1.0  0.98661  0.12003  0.80638  1.0000
  S   S2        1.0  0.48661  0.87997  0.69362  1.0000
  S   S3        1.0  0.01339  0.87997  0.19363  1.0000
  S   S4        1.0  0.51339  0.12003  0.30637  1.0000
  O   O1        1.0  0.15814  0.43319  0.90104  1.0000
  O   O2        1.0  0.65814  0.56681  0.59896  1.0000
  O   O3        1.0  0.84187  0.56680  0.09897  1.0000
  O   O4        1.0  0.34187  0.43320  0.40103  1.0000
  O   O5        1.0  0.21826  0.38546  0.11247  1.0000
  O   O6        1.0  0.71826  0.61454  0.38753  1.0000
  O   O7        1.0  0.78174  0.61454  0.88754  1.0000
  O   O8        1.0  0.28174  0.38546  0.61246  1.0000
  O   O9        1.0  0.68142  0.30749  0.74343  1.0000
  O   O10       1.0  0.18142  0.69250  0.75657  1.0000
  O   O11       1.0  0.31857  0.69250  0.25657  1.0000
  O   O12       1.0  0.81858  0.30750  0.24342  1.0000
  O   O13       1.0  0.54514  0.32530  0.94609  1.0000
  O   O14       1.0  0.04514  0.67471  0.55391  1.0000
  O   O15       1.0  0.45485  0.67471  0.05391  1.0000
  O   O16       1.0  0.95485  0.32529  0.44608  1.0000
