data_image0
_chemical_formula_structural       Ni2H24C16S2N4O8
_chemical_formula_sum              "Ni2 H24 C16 S2 N4 O8"
_cell_length_a       4.79763
_cell_length_b       9.89967
_cell_length_c       10.6455
_cell_angle_alpha    89.9998
_cell_angle_beta     90.0002
_cell_angle_gamma    90.0002

_space_group_name_H-M_alt    "P 1"
_space_group_IT_number       1

loop_
  _space_group_symop_operation_xyz
  'x, y, z'

loop_
  _atom_site_type_symbol
  _atom_site_label
  _atom_site_symmetry_multiplicity
  _atom_site_fract_x
  _atom_site_fract_y
  _atom_site_fract_z
  _atom_site_occupancy
  Ni  Ni1       1.0  0.16147  0.13569  0.50000  1.0000
  Ni  Ni2       1.0  0.83854  0.63569  0.50000  1.0000
  H   H1        1.0  0.44734  0.81546  0.00000  1.0000
  H   H2        1.0  0.55266  0.31546  1.00000  1.0000
  H   H3        1.0  0.64758  0.89167  0.79763  1.0000
  H   H4        1.0  0.35242  0.39167  0.20237  1.0000
  H   H5        1.0  0.35241  0.39168  0.79763  1.0000
  H   H6        1.0  0.64758  0.89168  0.20237  1.0000
  H   H7        1.0  0.13863  0.18247  0.77930  1.0000
  H   H8        1.0  0.86138  0.68247  0.22070  1.0000
  H   H9        1.0  0.86137  0.68248  0.77930  1.0000
  H   H10       1.0  0.13861  0.18248  0.22070  1.0000
  H   H11       1.0  0.30009  0.02538  0.75863  1.0000
  H   H12       1.0  0.69991  0.52538  0.24138  1.0000
  H   H13       1.0  0.69991  0.52538  0.75861  1.0000
  H   H14       1.0  0.30008  0.02539  0.24138  1.0000
  H   H15       1.0  0.22902  0.14145  0.00000  1.0000
  H   H16       1.0  0.77097  0.64145  0.00000  1.0000
  H   H17       1.0  0.75536  0.10211  0.65020  1.0000
  H   H18       1.0  0.24464  0.60212  0.34980  1.0000
  H   H19       1.0  0.24464  0.60211  0.65020  1.0000
  H   H20       1.0  0.75536  0.10212  0.34981  1.0000
  H   H21       1.0  0.91739  0.95609  0.62727  1.0000
  H   H22       1.0  0.08261  0.45609  0.37273  1.0000
  H   H23       1.0  0.08261  0.45609  0.62726  1.0000
  H   H24       1.0  0.91739  0.95609  0.37273  1.0000
  C   C1        1.0  0.62241  0.88586  0.00000  1.0000
  C   C2        1.0  0.37758  0.38586  1.00000  1.0000
  C   C3        1.0  0.95379  0.02269  0.88519  1.0000
  C   C4        1.0  0.04621  0.52269  0.11482  1.0000
  C   C5        1.0  0.04620  0.52269  0.88517  1.0000
  C   C6        1.0  0.95380  0.02269  0.11483  1.0000
  C   C7        1.0  0.73310  0.93019  0.88565  1.0000
  C   C8        1.0  0.26690  0.43019  0.11435  1.0000
  C   C9        1.0  0.26689  0.43019  0.88565  1.0000
  C   C10       1.0  0.73311  0.93019  0.11436  1.0000
  C   C11       1.0  0.09521  0.07431  0.76766  1.0000
  C   C12       1.0  0.90479  0.57431  0.23234  1.0000
  C   C13       1.0  0.90479  0.57431  0.76765  1.0000
  C   C14       1.0  0.09520  0.07431  0.23234  1.0000
  C   C15       1.0  0.05854  0.06858  0.00000  1.0000
  C   C16       1.0  0.94146  0.56857  1.00000  1.0000
  S   S1        1.0  0.39328  0.82542  0.50000  1.0000
  S   S2        1.0  0.60674  0.32542  0.50000  1.0000
  N   N1        1.0  0.94719  0.05607  0.64829  1.0000
  N   N2        1.0  0.05281  0.55607  0.35171  1.0000
  N   N3        1.0  0.05282  0.55607  0.64829  1.0000
  N   N4        1.0  0.94719  0.05607  0.35172  1.0000
  O   O1        1.0  0.45603  0.97280  0.50000  1.0000
  O   O2        1.0  0.54397  0.47281  0.50000  1.0000
  O   O3        1.0  0.08206  0.81050  0.50001  1.0000
  O   O4        1.0  0.91796  0.31050  0.50000  1.0000
  O   O5        1.0  0.51846  0.75853  0.61288  1.0000
  O   O6        1.0  0.48155  0.25852  0.38712  1.0000
  O   O7        1.0  0.48155  0.25853  0.61288  1.0000
  O   O8        1.0  0.51845  0.75853  0.38712  1.0000
