data_image0
_chemical_formula_structural       Zn2H16C20O8
_chemical_formula_sum              "Zn2 H16 C20 O8"
_cell_length_a       4.76175
_cell_length_b       10.0939
_cell_length_c       10.094
_cell_angle_alpha    83.2445
_cell_angle_beta     91.903
_cell_angle_gamma    91.9015

_space_group_name_H-M_alt    "P 1"
_space_group_IT_number       1

loop_
  _space_group_symop_operation_xyz
  'x, y, z'

loop_
  _atom_site_type_symbol
  _atom_site_label
  _atom_site_symmetry_multiplicity
  _atom_site_fract_x
  _atom_site_fract_y
  _atom_site_fract_z
  _atom_site_occupancy
  Zn  Zn1       1.0  0.25000  0.06523  0.93478  1.0000
  Zn  Zn2       1.0  0.75001  0.93477  0.06523  1.0000
  H   H1        1.0  0.11167  0.30182  0.15687  1.0000
  H   H2        1.0  0.38832  0.84313  0.69817  1.0000
  H   H3        1.0  0.88830  0.69818  0.84313  1.0000
  H   H4        1.0  0.61169  0.15687  0.30183  1.0000
  H   H5        1.0  0.63202  0.57021  0.70037  1.0000
  H   H6        1.0  0.86798  0.29963  0.42980  1.0000
  H   H7        1.0  0.36796  0.42979  0.29962  1.0000
  H   H8        1.0  0.13201  0.70038  0.57020  1.0000
  H   H9        1.0  0.37918  0.48315  0.80695  1.0000
  H   H10       1.0  0.12083  0.19305  0.51686  1.0000
  H   H11       1.0  0.62082  0.51685  0.19305  1.0000
  H   H12       1.0  0.87916  0.80696  0.48313  1.0000
  H   H13       1.0  0.61623  0.39210  0.72639  1.0000
  H   H14       1.0  0.88376  0.27360  0.60791  1.0000
  H   H15       1.0  0.38376  0.60790  0.27360  1.0000
  H   H16       1.0  0.11624  0.72640  0.39209  1.0000
  C   C1        1.0  0.86944  0.37671  0.98331  1.0000
  C   C2        1.0  0.63054  0.01670  0.62328  1.0000
  C   C3        1.0  0.13053  0.62328  0.01670  1.0000
  C   C4        1.0  0.36948  0.98330  0.37672  1.0000
  C   C5        1.0  0.80071  0.48825  0.89127  1.0000
  C   C6        1.0  0.69928  0.10872  0.51175  1.0000
  C   C7        1.0  0.19926  0.51176  0.10871  1.0000
  C   C8        1.0  0.30073  0.89129  0.48824  1.0000
  C   C9        1.0  0.06466  0.39055  0.08833  1.0000
  C   C10       1.0  0.43532  0.91167  0.60946  1.0000
  C   C11       1.0  0.93534  0.60946  0.91170  1.0000
  C   C12       1.0  0.56468  0.08831  0.39054  1.0000
  C   C13       1.0  0.73700  0.24145  0.97709  1.0000
  C   C14       1.0  0.76301  0.02291  0.75855  1.0000
  C   C15       1.0  0.26301  0.75855  0.02291  1.0000
  C   C16       1.0  0.23700  0.97709  0.24144  1.0000
  C   C17       1.0  0.59735  0.48308  0.77464  1.0000
  C   C18       1.0  0.90264  0.22536  0.51693  1.0000
  C   C19       1.0  0.40265  0.51692  0.22537  1.0000
  C   C20       1.0  0.09734  0.77464  0.48307  1.0000
  O   O1        1.0  0.49107  0.23326  0.92533  1.0000
  O   O2        1.0  0.00893  0.07467  0.76673  1.0000
  O   O3        1.0  0.50895  0.76673  0.07467  1.0000
  O   O4        1.0  0.99107  0.92533  0.23327  1.0000
  O   O5        1.0  0.88108  0.14133  0.02833  1.0000
  O   O6        1.0  0.61892  0.97165  0.85868  1.0000
  O   O7        1.0  0.11894  0.85867  0.97167  1.0000
  O   O8        1.0  0.38108  0.02834  0.14132  1.0000
