data_image0
_chemical_formula_structural       Tl4H24C28N4O8
_chemical_formula_sum              "Tl4 H24 C28 N4 O8"
_cell_length_a       7.02021
_cell_length_b       11.0381
_cell_length_c       11.0385
_cell_angle_alpha    81.6606
_cell_angle_beta     71.4307
_cell_angle_gamma    71.4311

_space_group_name_H-M_alt    "P 1"
_space_group_IT_number       1

loop_
  _space_group_symop_operation_xyz
  'x, y, z'

loop_
  _atom_site_type_symbol
  _atom_site_label
  _atom_site_symmetry_multiplicity
  _atom_site_fract_x
  _atom_site_fract_y
  _atom_site_fract_z
  _atom_site_occupancy
  Tl  Tl1       1.0  0.62894  0.78857  0.01417  1.0000
  Tl  Tl2       1.0  0.43176  0.21158  0.98590  1.0000
  Tl  Tl3       1.0  0.93177  0.98589  0.21157  1.0000
  Tl  Tl4       1.0  0.12895  0.01417  0.78857  1.0000
  H   H1        1.0  0.90991  0.33985  0.70742  1.0000
  H   H2        1.0  0.95760  0.65996  0.29278  1.0000
  H   H3        1.0  0.45763  0.29277  0.65994  1.0000
  H   H4        1.0  0.40990  0.70743  0.33985  1.0000
  H   H5        1.0  0.07158  0.42663  0.61766  1.0000
  H   H6        1.0  0.11668  0.57323  0.38243  1.0000
  H   H7        1.0  0.61672  0.38244  0.57322  1.0000
  H   H8        1.0  0.57154  0.61767  0.42663  1.0000
  H   H9        1.0  0.49966  0.19554  0.25952  1.0000
  H   H10       1.0  0.95443  0.80457  0.74056  1.0000
  H   H11       1.0  0.45440  0.74057  0.80458  1.0000
  H   H12       1.0  0.99961  0.25953  0.19554  1.0000
  H   H13       1.0  0.33250  0.35980  0.41977  1.0000
  H   H14       1.0  0.11246  0.64024  0.58041  1.0000
  H   H15       1.0  0.61245  0.58042  0.64025  1.0000
  H   H16       1.0  0.83248  0.41976  0.35981  1.0000
  H   H17       1.0  0.86351  0.16454  0.61052  1.0000
  H   H18       1.0  0.63951  0.83530  0.38925  1.0000
  H   H19       1.0  0.13955  0.38921  0.83528  1.0000
  H   H20       1.0  0.36348  0.61052  0.16456  1.0000
  H   H21       1.0  0.04874  0.99238  0.45745  1.0000
  H   H22       1.0  0.49893  0.00774  0.54218  1.0000
  H   H23       1.0  0.99890  0.54214  0.00772  1.0000
  H   H24       1.0  0.54871  0.45747  0.99239  1.0000
  C   C1        1.0  0.39597  0.97893  0.25251  1.0000
  C   C2        1.0  0.62687  0.02127  0.74728  1.0000
  C   C3        1.0  0.12681  0.74727  0.02128  1.0000
  C   C4        1.0  0.89593  0.25251  0.97893  1.0000
  C   C5        1.0  0.28661  0.08164  0.34616  1.0000
  C   C6        1.0  0.71427  0.91848  0.65373  1.0000
  C   C7        1.0  0.21425  0.65371  0.91847  1.0000
  C   C8        1.0  0.78656  0.34617  0.08165  1.0000
  C   C9        1.0  0.36087  0.18806  0.33713  1.0000
  C   C10       1.0  0.88599  0.81206  0.66293  1.0000
  C   C11       1.0  0.38597  0.66292  0.81207  1.0000
  C   C12       1.0  0.86084  0.33714  0.18805  1.0000
  C   C13       1.0  0.26508  0.28184  0.42620  1.0000
  C   C14       1.0  0.97352  0.71828  0.57382  1.0000
  C   C15       1.0  0.47351  0.57384  0.71826  1.0000
  C   C16       1.0  0.76504  0.42620  0.28183  1.0000
  C   C17       1.0  0.08579  0.27435  0.52842  1.0000
  C   C18       1.0  0.88923  0.72566  0.47160  1.0000
  C   C19       1.0  0.38925  0.47158  0.72566  1.0000
  C   C20       1.0  0.58578  0.52843  0.27435  1.0000
  C   C21       1.0  0.00611  0.16993  0.53518  1.0000
  C   C22       1.0  0.71187  0.83011  0.46465  1.0000
  C   C23       1.0  0.21186  0.46463  0.83009  1.0000
  C   C24       1.0  0.50611  0.53519  0.16993  1.0000
  C   C25       1.0  0.10747  0.07474  0.44731  1.0000
  C   C26       1.0  0.62974  0.92531  0.55249  1.0000
  C   C27       1.0  0.12975  0.55246  0.92530  1.0000
  C   C28       1.0  0.60743  0.44731  0.07475  1.0000
  N   N1        1.0  0.98739  0.36715  0.61699  1.0000
  N   N2        1.0  0.97235  0.63280  0.38312  1.0000
  N   N3        1.0  0.47237  0.38312  0.63280  1.0000
  N   N4        1.0  0.48738  0.61700  0.36715  1.0000
  O   O1        1.0  0.33311  0.87934  0.26915  1.0000
  O   O2        1.0  0.48111  0.12094  0.73045  1.0000
  O   O3        1.0  0.98111  0.73041  0.12093  1.0000
  O   O4        1.0  0.83310  0.26918  0.87934  1.0000
  O   O5        1.0  0.54888  0.99595  0.15668  1.0000
  O   O6        1.0  0.70081  0.00429  0.84315  1.0000
  O   O7        1.0  0.20077  0.84313  0.00430  1.0000
  O   O8        1.0  0.04883  0.15669  0.99596  1.0000
