data_image0
_chemical_formula_structural       Tl8H40C56O24
_chemical_formula_sum              "Tl8 H40 C56 O24"
_cell_length_a       10.3342
_cell_length_b       10.5406
_cell_length_c       13.002
_cell_angle_alpha    89.9999
_cell_angle_beta     89.9999
_cell_angle_gamma    90

_space_group_name_H-M_alt    "P 1"
_space_group_IT_number       1

loop_
  _space_group_symop_operation_xyz
  'x, y, z'

loop_
  _atom_site_type_symbol
  _atom_site_label
  _atom_site_symmetry_multiplicity
  _atom_site_fract_x
  _atom_site_fract_y
  _atom_site_fract_z
  _atom_site_occupancy
  Tl  Tl1       1.0  0.89966  0.63362  0.39938  1.0000
  Tl  Tl2       1.0  0.10034  0.86638  0.89938  1.0000
  Tl  Tl3       1.0  0.39966  0.36638  0.10062  1.0000
  Tl  Tl4       1.0  0.60034  0.13362  0.60062  1.0000
  Tl  Tl5       1.0  0.10033  0.36638  0.60062  1.0000
  Tl  Tl6       1.0  0.89966  0.13361  0.10062  1.0000
  Tl  Tl7       1.0  0.60033  0.63361  0.89938  1.0000
  Tl  Tl8       1.0  0.39966  0.86639  0.39938  1.0000
  H   H1        1.0  0.56760  0.17333  0.93905  1.0000
  H   H2        1.0  0.43240  0.32667  0.43906  1.0000
  H   H3        1.0  0.06760  0.82667  0.56094  1.0000
  H   H4        1.0  0.93240  0.67333  0.06094  1.0000
  H   H5        1.0  0.43240  0.82667  0.06095  1.0000
  H   H6        1.0  0.56760  0.67333  0.56094  1.0000
  H   H7        1.0  0.93240  0.17333  0.43906  1.0000
  H   H8        1.0  0.06760  0.32667  0.93906  1.0000
  H   H9        1.0  0.47363  0.47741  0.62130  1.0000
  H   H10       1.0  0.52637  0.02259  0.12130  1.0000
  H   H11       1.0  0.97363  0.52259  0.87870  1.0000
  H   H12       1.0  0.02637  0.97741  0.37870  1.0000
  H   H13       1.0  0.52637  0.52259  0.37870  1.0000
  H   H14       1.0  0.47363  0.97741  0.87870  1.0000
  H   H15       1.0  0.02637  0.47741  0.12130  1.0000
  H   H16       1.0  0.97363  0.02259  0.62130  1.0000
  H   H17       1.0  0.37545  0.36152  0.76802  1.0000
  H   H18       1.0  0.62455  0.13848  0.26802  1.0000
  H   H19       1.0  0.87545  0.63848  0.73198  1.0000
  H   H20       1.0  0.12455  0.86152  0.23198  1.0000
  H   H21       1.0  0.62455  0.63848  0.23198  1.0000
  H   H22       1.0  0.37545  0.86152  0.73198  1.0000
  H   H23       1.0  0.12455  0.36152  0.26802  1.0000
  H   H24       1.0  0.87545  0.13848  0.76802  1.0000
  H   H25       1.0  0.75567  0.27742  0.88552  1.0000
  H   H26       1.0  0.24433  0.22258  0.38552  1.0000
  H   H27       1.0  0.25567  0.72258  0.61448  1.0000
  H   H28       1.0  0.74433  0.77742  0.11448  1.0000
  H   H29       1.0  0.24433  0.72258  0.11448  1.0000
  H   H30       1.0  0.75567  0.77742  0.61448  1.0000
  H   H31       1.0  0.74433  0.27742  0.38552  1.0000
  H   H32       1.0  0.25567  0.22258  0.88552  1.0000
  H   H33       1.0  0.85320  0.38779  0.73698  1.0000
  H   H34       1.0  0.14680  0.11222  0.23699  1.0000
  H   H35       1.0  0.35319  0.61221  0.76302  1.0000
  H   H36       1.0  0.64681  0.88779  0.26301  1.0000
  H   H37       1.0  0.14681  0.61221  0.26302  1.0000
  H   H38       1.0  0.85319  0.88778  0.76301  1.0000
  H   H39       1.0  0.64681  0.38779  0.23698  1.0000
  H   H40       1.0  0.35319  0.11222  0.73699  1.0000
  C   C1        1.0  0.73295  0.50025  0.57608  1.0000
  C   C2        1.0  0.26705  0.99975  0.07608  1.0000
  C   C3        1.0  0.23295  0.49975  0.92392  1.0000
  C   C4        1.0  0.76705  0.00025  0.42392  1.0000
  C   C5        1.0  0.26705  0.49975  0.42392  1.0000
  C   C6        1.0  0.73295  0.00025  0.92392  1.0000
  C   C7        1.0  0.76705  0.50025  0.07608  1.0000
  C   C8        1.0  0.23295  0.99975  0.57608  1.0000
  C   C9        1.0  0.67102  0.44023  0.66802  1.0000
  C   C10       1.0  0.32898  0.05978  0.16802  1.0000
  C   C11       1.0  0.17102  0.55977  0.83198  1.0000
  C   C12       1.0  0.82898  0.94023  0.33198  1.0000
  C   C13       1.0  0.32898  0.55978  0.33198  1.0000
  C   C14       1.0  0.67102  0.94023  0.83198  1.0000
  C   C15       1.0  0.82898  0.44023  0.16802  1.0000
  C   C16       1.0  0.17102  0.05977  0.66802  1.0000
  C   C17       1.0  0.53578  0.43469  0.67949  1.0000
  C   C18       1.0  0.46422  0.06531  0.17949  1.0000
  C   C19       1.0  0.03578  0.56531  0.82051  1.0000
  C   C20       1.0  0.96422  0.93469  0.32051  1.0000
  C   C21       1.0  0.46422  0.56531  0.32051  1.0000
  C   C22       1.0  0.53578  0.93469  0.82051  1.0000
  C   C23       1.0  0.96422  0.43469  0.17949  1.0000
  C   C24       1.0  0.03578  0.06531  0.67949  1.0000
  C   C25       1.0  0.48011  0.36891  0.76133  1.0000
  C   C26       1.0  0.51989  0.13109  0.26133  1.0000
  C   C27       1.0  0.98011  0.63109  0.73867  1.0000
  C   C28       1.0  0.01989  0.86891  0.23867  1.0000
  C   C29       1.0  0.51989  0.63109  0.23867  1.0000
  C   C30       1.0  0.48011  0.86891  0.73867  1.0000
  C   C31       1.0  0.01989  0.36891  0.26133  1.0000
  C   C32       1.0  0.98011  0.13109  0.76133  1.0000
  C   C33       1.0  0.55836  0.30751  0.83473  1.0000
  C   C34       1.0  0.44164  0.19249  0.33473  1.0000
  C   C35       1.0  0.05836  0.69249  0.66527  1.0000
  C   C36       1.0  0.94164  0.80751  0.16527  1.0000
  C   C37       1.0  0.44164  0.69249  0.16527  1.0000
  C   C38       1.0  0.55836  0.80751  0.66527  1.0000
  C   C39       1.0  0.94164  0.30751  0.33473  1.0000
  C   C40       1.0  0.05836  0.19249  0.83473  1.0000
  C   C41       1.0  0.69388  0.31903  0.82682  1.0000
  C   C42       1.0  0.30612  0.18097  0.32682  1.0000
  C   C43       1.0  0.19388  0.68097  0.67318  1.0000
  C   C44       1.0  0.80612  0.81903  0.17318  1.0000
  C   C45       1.0  0.30612  0.68097  0.17318  1.0000
  C   C46       1.0  0.69388  0.81903  0.67318  1.0000
  C   C47       1.0  0.80612  0.31903  0.32682  1.0000
  C   C48       1.0  0.19388  0.18097  0.82682  1.0000
  C   C49       1.0  0.74835  0.38255  0.74373  1.0000
  C   C50       1.0  0.25165  0.11745  0.24372  1.0000
  C   C51       1.0  0.24835  0.61745  0.75628  1.0000
  C   C52       1.0  0.75165  0.88255  0.25628  1.0000
  C   C53       1.0  0.25165  0.61745  0.25628  1.0000
  C   C54       1.0  0.74835  0.88255  0.75628  1.0000
  C   C55       1.0  0.75165  0.38255  0.24373  1.0000
  C   C56       1.0  0.24835  0.11745  0.74372  1.0000
  O   O1        1.0  0.84898  0.46953  0.55508  1.0000
  O   O2        1.0  0.15102  0.03047  0.05508  1.0000
  O   O3        1.0  0.34898  0.53047  0.94492  1.0000
  O   O4        1.0  0.65102  0.96954  0.44492  1.0000
  O   O5        1.0  0.15102  0.53047  0.44492  1.0000
  O   O6        1.0  0.84898  0.96953  0.94492  1.0000
  O   O7        1.0  0.65102  0.46953  0.05508  1.0000
  O   O8        1.0  0.34898  0.03047  0.55508  1.0000
  O   O9        1.0  0.66773  0.57904  0.52107  1.0000
  O   O10       1.0  0.33227  0.92096  0.02107  1.0000
  O   O11       1.0  0.16773  0.42095  0.97894  1.0000
  O   O12       1.0  0.83227  0.07905  0.47894  1.0000
  O   O13       1.0  0.33227  0.42096  0.47894  1.0000
  O   O14       1.0  0.66773  0.07904  0.97893  1.0000
  O   O15       1.0  0.83227  0.57904  0.02106  1.0000
  O   O16       1.0  0.16773  0.92095  0.52106  1.0000
  O   O17       1.0  0.50174  0.23806  0.90982  1.0000
  O   O18       1.0  0.49826  0.26194  0.40982  1.0000
  O   O19       1.0  0.00174  0.76194  0.59018  1.0000
  O   O20       1.0  0.99826  0.73806  0.09017  1.0000
  O   O21       1.0  0.49826  0.76194  0.09018  1.0000
  O   O22       1.0  0.50174  0.73806  0.59017  1.0000
  O   O23       1.0  0.99826  0.23806  0.40983  1.0000
  O   O24       1.0  0.00174  0.26194  0.90982  1.0000
