data_image0
_chemical_formula_structural       Ag4H56C48S4N12O12
_chemical_formula_sum              "Ag4 H56 C48 S4 N12 O12"
_cell_length_a       7.01
_cell_length_b       12.6915
_cell_length_c       14.5584
_cell_angle_alpha    90.0002
_cell_angle_beta     89.9998
_cell_angle_gamma    94.1819

_space_group_name_H-M_alt    "P 1"
_space_group_IT_number       1

loop_
  _space_group_symop_operation_xyz
  'x, y, z'

loop_
  _atom_site_type_symbol
  _atom_site_label
  _atom_site_symmetry_multiplicity
  _atom_site_fract_x
  _atom_site_fract_y
  _atom_site_fract_z
  _atom_site_occupancy
  Ag  Ag1       1.0  0.82268  0.05311  0.79010  1.0000
  Ag  Ag2       1.0  0.67732  0.44689  0.29010  1.0000
  Ag  Ag3       1.0  0.17733  0.94689  0.20990  1.0000
  Ag  Ag4       1.0  0.32267  0.55311  0.70990  1.0000
  H   H1        1.0  0.49945  0.05469  0.92678  1.0000
  H   H2        1.0  0.00055  0.44531  0.42678  1.0000
  H   H3        1.0  0.50057  0.94531  0.07322  1.0000
  H   H4        1.0  0.99944  0.55470  0.57322  1.0000
  H   H5        1.0  0.13770  0.06277  0.92434  1.0000
  H   H6        1.0  0.36230  0.43723  0.42434  1.0000
  H   H7        1.0  0.86231  0.93723  0.07566  1.0000
  H   H8        1.0  0.63769  0.56277  0.57566  1.0000
  H   H9        1.0  0.98400  0.09854  0.62253  1.0000
  H   H10       1.0  0.51599  0.40146  0.12252  1.0000
  H   H11       1.0  0.01600  0.90145  0.37748  1.0000
  H   H12       1.0  0.48400  0.59854  0.87747  1.0000
  H   H13       1.0  0.08770  0.98213  0.58492  1.0000
  H   H14       1.0  0.41229  0.51787  0.08491  1.0000
  H   H15       1.0  0.91230  0.01787  0.41509  1.0000
  H   H16       1.0  0.58770  0.48213  0.91509  1.0000
  H   H17       1.0  0.20585  0.10768  0.56212  1.0000
  H   H18       1.0  0.29415  0.39231  0.06212  1.0000
  H   H19       1.0  0.79416  0.89231  0.43788  1.0000
  H   H20       1.0  0.70584  0.60769  0.93788  1.0000
  H   H21       1.0  0.67931  0.01333  0.63235  1.0000
  H   H22       1.0  0.82069  0.48667  0.13235  1.0000
  H   H23       1.0  0.32070  0.98667  0.36765  1.0000
  H   H24       1.0  0.17930  0.51333  0.86766  1.0000
  H   H25       1.0  0.51949  0.08836  0.56824  1.0000
  H   H26       1.0  0.98051  0.41164  0.06824  1.0000
  H   H27       1.0  0.48052  0.91164  0.43177  1.0000
  H   H28       1.0  0.01948  0.58836  0.93176  1.0000
  H   H29       1.0  0.46697  0.95041  0.58448  1.0000
  H   H30       1.0  0.03303  0.54958  0.08447  1.0000
  H   H31       1.0  0.53304  0.04958  0.41553  1.0000
  H   H32       1.0  0.96696  0.45041  0.91553  1.0000
  H   H33       1.0  0.21840  0.17787  0.07466  1.0000
  H   H34       1.0  0.28161  0.32213  0.57466  1.0000
  H   H35       1.0  0.78159  0.82214  0.92534  1.0000
  H   H36       1.0  0.71840  0.67787  0.42534  1.0000
  H   H37       1.0  0.34756  0.17751  0.23256  1.0000
  H   H38       1.0  0.15244  0.32249  0.73256  1.0000
  H   H39       1.0  0.65245  0.82249  0.76743  1.0000
  H   H40       1.0  0.84756  0.67750  0.26744  1.0000
  H   H41       1.0  0.77818  0.20218  0.34106  1.0000
  H   H42       1.0  0.72182  0.29782  0.84106  1.0000
  H   H43       1.0  0.22183  0.79782  0.65894  1.0000
  H   H44       1.0  0.27818  0.70218  0.15894  1.0000
  H   H45       1.0  0.65250  0.20738  0.18219  1.0000
  H   H46       1.0  0.84750  0.29262  0.68219  1.0000
  H   H47       1.0  0.34749  0.79262  0.81781  1.0000
  H   H48       1.0  0.15251  0.70738  0.31781  1.0000
  H   H49       1.0  0.28461  0.20282  0.39911  1.0000
  H   H50       1.0  0.21540  0.29718  0.89910  1.0000
  H   H51       1.0  0.71540  0.79718  0.60089  1.0000
  H   H52       1.0  0.78461  0.70282  0.10090  1.0000
  H   H53       1.0  0.05234  0.21344  0.43713  1.0000
  H   H54       1.0  0.44767  0.28656  0.93713  1.0000
  H   H55       1.0  0.94767  0.78656  0.56287  1.0000
  H   H56       1.0  0.55233  0.71344  0.06287  1.0000
  C   C1        1.0  0.42230  0.04273  0.70360  1.0000
  C   C2        1.0  0.07770  0.45728  0.20360  1.0000
  C   C3        1.0  0.57772  0.95727  0.29640  1.0000
  C   C4        1.0  0.92229  0.54273  0.79640  1.0000
  C   C5        1.0  0.41788  0.05285  0.86312  1.0000
  C   C6        1.0  0.08211  0.44715  0.36312  1.0000
  C   C7        1.0  0.58213  0.94714  0.13688  1.0000
  C   C8        1.0  0.91788  0.55286  0.63688  1.0000
  C   C9        1.0  0.22197  0.06051  0.86170  1.0000
  C   C10       1.0  0.27803  0.43948  0.36169  1.0000
  C   C11       1.0  0.77804  0.93949  0.13830  1.0000
  C   C12       1.0  0.72197  0.56052  0.63830  1.0000
  C   C13       1.0  0.22420  0.05658  0.70195  1.0000
  C   C14       1.0  0.27580  0.44342  0.20194  1.0000
  C   C15       1.0  0.77581  0.94342  0.29805  1.0000
  C   C16       1.0  0.72419  0.55658  0.79805  1.0000
  C   C17       1.0  0.11981  0.06192  0.61317  1.0000
  C   C18       1.0  0.38018  0.43808  0.11317  1.0000
  C   C19       1.0  0.88019  0.93808  0.38683  1.0000
  C   C20       1.0  0.61981  0.56192  0.88683  1.0000
  C   C21       1.0  0.52806  0.02326  0.61747  1.0000
  C   C22       1.0  0.97194  0.47674  0.11747  1.0000
  C   C23       1.0  0.47195  0.97674  0.38253  1.0000
  C   C24       1.0  0.02805  0.52326  0.88253  1.0000
  C   C25       1.0  0.92557  0.19283  0.11830  1.0000
  C   C26       1.0  0.57442  0.30718  0.61830  1.0000
  C   C27       1.0  0.07442  0.80717  0.88170  1.0000
  C   C28       1.0  0.42558  0.69283  0.38170  1.0000
  C   C29       1.0  0.12112  0.18293  0.13275  1.0000
  C   C30       1.0  0.37888  0.31707  0.63275  1.0000
  C   C31       1.0  0.87888  0.81708  0.86725  1.0000
  C   C32       1.0  0.62112  0.68293  0.36725  1.0000
  C   C33       1.0  0.19407  0.18110  0.22186  1.0000
  C   C34       1.0  0.30593  0.31890  0.72186  1.0000
  C   C35       1.0  0.80593  0.81890  0.77814  1.0000
  C   C36       1.0  0.69407  0.68110  0.27814  1.0000
  C   C37       1.0  0.07291  0.18945  0.29922  1.0000
  C   C38       1.0  0.42709  0.31055  0.79922  1.0000
  C   C39       1.0  0.92709  0.81054  0.70078  1.0000
  C   C40       1.0  0.57292  0.68945  0.20078  1.0000
  C   C41       1.0  0.87514  0.19661  0.28301  1.0000
  C   C42       1.0  0.62485  0.30339  0.78301  1.0000
  C   C43       1.0  0.12486  0.80339  0.71699  1.0000
  C   C44       1.0  0.37515  0.69661  0.21699  1.0000
  C   C45       1.0  0.80408  0.19899  0.19417  1.0000
  C   C46       1.0  0.69592  0.30101  0.69417  1.0000
  C   C47       1.0  0.19592  0.80101  0.80583  1.0000
  C   C48       1.0  0.30409  0.69899  0.30583  1.0000
  S   S1        1.0  0.82957  0.19816  0.00576  1.0000
  S   S2        1.0  0.67043  0.30185  0.50577  1.0000
  S   S3        1.0  0.17042  0.80185  0.99424  1.0000
  S   S4        1.0  0.32957  0.69816  0.49423  1.0000
  N   N1        1.0  0.14143  0.18878  0.38708  1.0000
  N   N2        1.0  0.35857  0.31122  0.88708  1.0000
  N   N3        1.0  0.85857  0.81121  0.61292  1.0000
  N   N4        1.0  0.64144  0.68878  0.11292  1.0000
  N   N5        1.0  0.12766  0.06494  0.78141  1.0000
  N   N6        1.0  0.37234  0.43506  0.28141  1.0000
  N   N7        1.0  0.87235  0.93506  0.21859  1.0000
  N   N8        1.0  0.62765  0.56494  0.71859  1.0000
  N   N9        1.0  0.51635  0.04492  0.78444  1.0000
  N   N10       1.0  0.98365  0.45508  0.28444  1.0000
  N   N11       1.0  0.48366  0.95508  0.21556  1.0000
  N   N12       1.0  0.01635  0.54493  0.71556  1.0000
  O   O1        1.0  0.82538  0.08986  0.96778  1.0000
  O   O2        1.0  0.67461  0.41014  0.46779  1.0000
  O   O3        1.0  0.17461  0.91014  0.03222  1.0000
  O   O4        1.0  0.32539  0.58986  0.53221  1.0000
  O   O5        1.0  0.96068  0.27255  0.95363  1.0000
  O   O6        1.0  0.53932  0.22745  0.45363  1.0000
  O   O7        1.0  0.03931  0.72745  0.04637  1.0000
  O   O8        1.0  0.46068  0.77255  0.54637  1.0000
  O   O9        1.0  0.63709  0.23553  0.01714  1.0000
  O   O10       1.0  0.86291  0.26447  0.51714  1.0000
  O   O11       1.0  0.36291  0.76447  0.98286  1.0000
  O   O12       1.0  0.13709  0.73553  0.48286  1.0000
