data_image0
_chemical_formula_structural       Ag4H56C60S4N12O12
_chemical_formula_sum              "Ag4 H56 C60 S4 N12 O12"
_cell_length_a       6.73964
_cell_length_b       9.04817
_cell_length_c       24.2432
_cell_angle_alpha    88.9962
_cell_angle_beta     89.9992
_cell_angle_gamma    89.9995

_space_group_name_H-M_alt    "P 1"
_space_group_IT_number       1

loop_
  _space_group_symop_operation_xyz
  'x, y, z'

loop_
  _atom_site_type_symbol
  _atom_site_label
  _atom_site_symmetry_multiplicity
  _atom_site_fract_x
  _atom_site_fract_y
  _atom_site_fract_z
  _atom_site_occupancy
  Ag  Ag1       1.0  0.89803  0.93878  0.66185  1.0000
  Ag  Ag2       1.0  0.39802  0.06122  0.83815  1.0000
  Ag  Ag3       1.0  0.10199  0.06123  0.33816  1.0000
  Ag  Ag4       1.0  0.60198  0.93878  0.16184  1.0000
  H   H1        1.0  0.22970  0.26075  0.90726  1.0000
  H   H2        1.0  0.72972  0.73925  0.59274  1.0000
  H   H3        1.0  0.77029  0.73923  0.09274  1.0000
  H   H4        1.0  0.27028  0.26076  0.40726  1.0000
  H   H5        1.0  0.44932  0.47825  0.90657  1.0000
  H   H6        1.0  0.94936  0.52175  0.59342  1.0000
  H   H7        1.0  0.55067  0.52174  0.09343  1.0000
  H   H8        1.0  0.05065  0.47826  0.40658  1.0000
  H   H9        1.0  0.34788  0.70919  0.85531  1.0000
  H   H10       1.0  0.84789  0.29081  0.64468  1.0000
  H   H11       1.0  0.65213  0.29079  0.14470  1.0000
  H   H12       1.0  0.15212  0.70921  0.35531  1.0000
  H   H13       1.0  0.10894  0.84791  0.80158  1.0000
  H   H14       1.0  0.60896  0.15209  0.69842  1.0000
  H   H15       1.0  0.89108  0.15208  0.19842  1.0000
  H   H16       1.0  0.39106  0.84791  0.30158  1.0000
  H   H17       1.0  0.55680  0.64683  0.75429  1.0000
  H   H18       1.0  0.05682  0.35318  0.74571  1.0000
  H   H19       1.0  0.44321  0.35319  0.24571  1.0000
  H   H20       1.0  0.94320  0.64681  0.25429  1.0000
  H   H21       1.0  0.65050  0.41532  0.80145  1.0000
  H   H22       1.0  0.15052  0.58469  0.69855  1.0000
  H   H23       1.0  0.34949  0.58469  0.19855  1.0000
  H   H24       1.0  0.84948  0.41530  0.30145  1.0000
  H   H25       1.0  0.22983  0.14871  0.61425  1.0000
  H   H26       1.0  0.72979  0.85127  0.88575  1.0000
  H   H27       1.0  0.77019  0.85131  0.38575  1.0000
  H   H28       1.0  0.27018  0.14872  0.11426  1.0000
  H   H29       1.0  0.73149  0.18671  0.47018  1.0000
  H   H30       1.0  0.23144  0.81331  0.02983  1.0000
  H   H31       1.0  0.26853  0.81330  0.52983  1.0000
  H   H32       1.0  0.76851  0.18669  0.97017  1.0000
  H   H33       1.0  0.68185  0.01684  0.55322  1.0000
  H   H34       1.0  0.18180  0.98317  0.94678  1.0000
  H   H35       1.0  0.31818  0.98316  0.44679  1.0000
  H   H36       1.0  0.81816  0.01683  0.05321  1.0000
  H   H37       1.0  0.35704  0.38312  0.49368  1.0000
  H   H38       1.0  0.85700  0.61687  0.00633  1.0000
  H   H39       1.0  0.64295  0.61689  0.50632  1.0000
  H   H40       1.0  0.14294  0.38311  0.99367  1.0000
  H   H41       1.0  0.42963  0.33172  0.56261  1.0000
  H   H42       1.0  0.92959  0.66827  0.93739  1.0000
  H   H43       1.0  0.57037  0.66830  0.43739  1.0000
  H   H44       1.0  0.07037  0.33171  0.06261  1.0000
  H   H45       1.0  0.25887  0.47836  0.55048  1.0000
  H   H46       1.0  0.75885  0.52164  0.94952  1.0000
  H   H47       1.0  0.74113  0.52166  0.44952  1.0000
  H   H48       1.0  0.24112  0.47834  0.05048  1.0000
  H   H49       1.0  0.62104  0.88417  0.73360  1.0000
  H   H50       1.0  0.12105  0.11584  0.76640  1.0000
  H   H51       1.0  0.37897  0.11583  0.26640  1.0000
  H   H52       1.0  0.87896  0.88416  0.23360  1.0000
  H   H53       1.0  0.79774  0.98594  0.76522  1.0000
  H   H54       1.0  0.29775  0.01406  0.73478  1.0000
  H   H55       1.0  0.20228  0.01406  0.23478  1.0000
  H   H56       1.0  0.70227  0.98593  0.26522  1.0000
  C   C1        1.0  0.00386  0.36461  0.85773  1.0000
  C   C2        1.0  0.50388  0.63540  0.64227  1.0000
  C   C3        1.0  0.99613  0.63539  0.14227  1.0000
  C   C4        1.0  0.49613  0.36461  0.35773  1.0000
  C   C5        1.0  0.18325  0.36100  0.88529  1.0000
  C   C6        1.0  0.68328  0.63900  0.61471  1.0000
  C   C7        1.0  0.81673  0.63899  0.11472  1.0000
  C   C8        1.0  0.31673  0.36100  0.38529  1.0000
  C   C9        1.0  0.30813  0.48628  0.88500  1.0000
  C   C10       1.0  0.80816  0.51372  0.61500  1.0000
  C   C11       1.0  0.69186  0.51370  0.11500  1.0000
  C   C12       1.0  0.19185  0.48630  0.38500  1.0000
  C   C13       1.0  0.25092  0.61312  0.85726  1.0000
  C   C14       1.0  0.75093  0.38688  0.64274  1.0000
  C   C15       1.0  0.74909  0.38686  0.14274  1.0000
  C   C16       1.0  0.24907  0.61313  0.35726  1.0000
  C   C17       1.0  0.06542  0.62225  0.82968  1.0000
  C   C18       1.0  0.56544  0.37775  0.67033  1.0000
  C   C19       1.0  0.93459  0.37774  0.17033  1.0000
  C   C20       1.0  0.43457  0.62225  0.32967  1.0000
  C   C21       1.0  0.00808  0.75354  0.80130  1.0000
  C   C22       1.0  0.50809  0.24646  0.69870  1.0000
  C   C23       1.0  0.99194  0.24646  0.19871  1.0000
  C   C24       1.0  0.49193  0.75354  0.30130  1.0000
  C   C25       1.0  0.82936  0.76108  0.77347  1.0000
  C   C26       1.0  0.32937  0.23892  0.72653  1.0000
  C   C27       1.0  0.17066  0.23893  0.22654  1.0000
  C   C28       1.0  0.67065  0.76107  0.27346  1.0000
  C   C29       1.0  0.70037  0.63763  0.77464  1.0000
  C   C30       1.0  0.20040  0.36238  0.72537  1.0000
  C   C31       1.0  0.29964  0.36238  0.22537  1.0000
  C   C32       1.0  0.79962  0.63761  0.27463  1.0000
  C   C33       1.0  0.75278  0.50821  0.80152  1.0000
  C   C34       1.0  0.25281  0.49180  0.69848  1.0000
  C   C35       1.0  0.24722  0.49180  0.19848  1.0000
  C   C36       1.0  0.74721  0.50820  0.30152  1.0000
  C   C37       1.0  0.93656  0.49558  0.82973  1.0000
  C   C38       1.0  0.43659  0.50443  0.67027  1.0000
  C   C39       1.0  0.06344  0.50443  0.17027  1.0000
  C   C40       1.0  0.56343  0.49557  0.32973  1.0000
  C   C41       1.0  0.11510  0.16070  0.58280  1.0000
  C   C42       1.0  0.61505  0.83928  0.91720  1.0000
  C   C43       1.0  0.88492  0.83932  0.41720  1.0000
  C   C44       1.0  0.38491  0.16070  0.08280  1.0000
  C   C45       1.0  0.13510  0.26362  0.53913  1.0000
  C   C46       1.0  0.63506  0.73638  0.96087  1.0000
  C   C47       1.0  0.86491  0.73640  0.46087  1.0000
  C   C48       1.0  0.36490  0.26360  0.03913  1.0000
  C   C49       1.0  0.84002  0.18243  0.50353  1.0000
  C   C50       1.0  0.33998  0.81759  0.99647  1.0000
  C   C51       1.0  0.15999  0.81758  0.49648  1.0000
  C   C52       1.0  0.65998  0.18240  0.00352  1.0000
  C   C53       1.0  0.81383  0.08548  0.54823  1.0000
  C   C54       1.0  0.31380  0.91453  0.95178  1.0000
  C   C55       1.0  0.18618  0.91453  0.45178  1.0000
  C   C56       1.0  0.68616  0.08547  0.04822  1.0000
  C   C57       1.0  0.30628  0.36879  0.53640  1.0000
  C   C58       1.0  0.80624  0.63121  0.96361  1.0000
  C   C59       1.0  0.69372  0.63123  0.46361  1.0000
  C   C60       1.0  0.19371  0.36877  0.03639  1.0000
  S   S1        1.0  0.86393  0.19763  0.85487  1.0000
  S   S2        1.0  0.36393  0.80237  0.64513  1.0000
  S   S3        1.0  0.13607  0.80237  0.14513  1.0000
  S   S4        1.0  0.63607  0.19763  0.35487  1.0000
  N   N1        1.0  0.76991  0.89072  0.74336  1.0000
  N   N2        1.0  0.26992  0.10928  0.75664  1.0000
  N   N3        1.0  0.23010  0.10928  0.25664  1.0000
  N   N4        1.0  0.73009  0.89071  0.24336  1.0000
  N   N5        1.0  0.95330  0.07457  0.58789  1.0000
  N   N6        1.0  0.45326  0.92542  0.91211  1.0000
  N   N7        1.0  0.04672  0.92543  0.41211  1.0000
  N   N8        1.0  0.54672  0.07458  0.08789  1.0000
  N   N9        1.0  0.99687  0.27269  0.49913  1.0000
  N   N10       1.0  0.49683  0.72731  0.00088  1.0000
  N   N11       1.0  0.00313  0.72732  0.50088  1.0000
  N   N12       1.0  0.50312  0.27267  0.99912  1.0000
  O   O1        1.0  0.66195  0.23395  0.87314  1.0000
  O   O2        1.0  0.16196  0.76604  0.62685  1.0000
  O   O3        1.0  0.33805  0.76605  0.12685  1.0000
  O   O4        1.0  0.83804  0.23396  0.37315  1.0000
  O   O5        1.0  0.86727  0.15658  0.79562  1.0000
  O   O6        1.0  0.36726  0.84342  0.70438  1.0000
  O   O7        1.0  0.13273  0.84342  0.20438  1.0000
  O   O8        1.0  0.63274  0.15657  0.29562  1.0000
  O   O9        1.0  0.96526  0.08827  0.89020  1.0000
  O   O10       1.0  0.46527  0.91173  0.60979  1.0000
  O   O11       1.0  0.03472  0.91172  0.10979  1.0000
  O   O12       1.0  0.53474  0.08828  0.39021  1.0000
