data_image0
_chemical_formula_structural       Ag2H32C32S2N6O6
_chemical_formula_sum              "Ag2 H32 C32 S2 N6 O6"
_cell_length_a       9.51494
_cell_length_b       9.51489
_cell_length_c       10.4706
_cell_angle_alpha    90.9511
_cell_angle_beta     90.9512
_cell_angle_gamma    116.813

_space_group_name_H-M_alt    "P 1"
_space_group_IT_number       1

loop_
  _space_group_symop_operation_xyz
  'x, y, z'

loop_
  _atom_site_type_symbol
  _atom_site_label
  _atom_site_symmetry_multiplicity
  _atom_site_fract_x
  _atom_site_fract_y
  _atom_site_fract_z
  _atom_site_occupancy
  Ag  Ag1       1.0  0.33118  0.83135  0.99748  1.0000
  Ag  Ag2       1.0  0.83136  0.33118  0.49748  1.0000
  H   H1        1.0  0.03188  0.30723  0.72209  1.0000
  H   H2        1.0  0.30724  0.03187  0.22209  1.0000
  H   H3        1.0  0.69890  0.26050  0.97210  1.0000
  H   H4        1.0  0.26050  0.69890  0.47209  1.0000
  H   H5        1.0  0.08217  0.84953  0.14091  1.0000
  H   H6        1.0  0.84953  0.08217  0.64092  1.0000
  H   H7        1.0  0.08819  0.68323  0.19513  1.0000
  H   H8        1.0  0.68323  0.08819  0.69513  1.0000
  H   H9        1.0  0.93070  0.43034  0.10729  1.0000
  H   H10       1.0  0.43033  0.93069  0.60730  1.0000
  H   H11       1.0  0.18185  0.86538  0.74912  1.0000
  H   H12       1.0  0.86538  0.18183  0.24912  1.0000
  H   H13       1.0  0.95370  0.65449  0.46354  1.0000
  H   H14       1.0  0.65448  0.95369  0.96354  1.0000
  H   H15       1.0  0.84358  0.68672  0.58663  1.0000
  H   H16       1.0  0.68671  0.84357  0.08662  1.0000
  H   H17       1.0  0.03439  0.83790  0.55275  1.0000
  H   H18       1.0  0.83789  0.03438  0.05275  1.0000
  H   H19       1.0  0.92784  0.84415  0.94944  1.0000
  H   H20       1.0  0.84414  0.92785  0.44944  1.0000
  H   H21       1.0  0.50233  0.65084  0.64358  1.0000
  H   H22       1.0  0.65083  0.50234  0.14359  1.0000
  H   H23       1.0  0.37978  0.35915  0.65637  1.0000
  H   H24       1.0  0.35915  0.37977  0.15636  1.0000
  H   H25       1.0  0.72983  0.81834  0.78567  1.0000
  H   H26       1.0  0.81833  0.72983  0.28568  1.0000
  H   H27       1.0  0.36242  0.54227  0.94296  1.0000
  H   H28       1.0  0.54227  0.36242  0.44296  1.0000
  H   H29       1.0  0.17520  0.44322  0.01346  1.0000
  H   H30       1.0  0.44323  0.17520  0.51346  1.0000
  H   H31       1.0  0.22943  0.34585  0.89292  1.0000
  H   H32       1.0  0.34585  0.22943  0.39292  1.0000
  C   C1        1.0  0.67518  0.45250  0.88271  1.0000
  C   C2        1.0  0.45248  0.67518  0.38272  1.0000
  C   C3        1.0  0.06198  0.43182  0.73078  1.0000
  C   C4        1.0  0.43183  0.06198  0.23078  1.0000
  C   C5        1.0  0.74749  0.38785  0.96760  1.0000
  C   C6        1.0  0.38784  0.74749  0.46761  1.0000
  C   C7        1.0  0.54035  0.36096  0.80268  1.0000
  C   C8        1.0  0.36095  0.54035  0.30268  1.0000
  C   C9        1.0  0.03425  0.64344  0.65251  1.0000
  C   C10       1.0  0.64344  0.03424  0.15251  1.0000
  C   C11       1.0  0.94169  0.64928  0.03965  1.0000
  C   C12       1.0  0.64927  0.94168  0.53966  1.0000
  C   C13       1.0  0.74405  0.62152  0.87631  1.0000
  C   C14       1.0  0.62151  0.74405  0.37631  1.0000
  C   C15       1.0  0.87727  0.48235  0.04263  1.0000
  C   C16       1.0  0.48234  0.87726  0.54264  1.0000
  C   C17       1.0  0.14422  0.73880  0.74586  1.0000
  C   C18       1.0  0.73880  0.14421  0.24586  1.0000
  C   C19       1.0  0.96285  0.70993  0.55832  1.0000
  C   C20       1.0  0.70993  0.96284  0.05831  1.0000
  C   C21       1.0  0.87641  0.71615  0.95560  1.0000
  C   C22       1.0  0.71614  0.87641  0.45561  1.0000
  C   C23       1.0  0.17007  0.52584  0.82575  1.0000
  C   C24       1.0  0.52584  0.17006  0.32576  1.0000
  C   C25       1.0  0.55133  0.59734  0.71046  1.0000
  C   C26       1.0  0.59734  0.55133  0.21046  1.0000
  C   C27       1.0  0.48189  0.43189  0.71706  1.0000
  C   C28       1.0  0.43188  0.48189  0.21706  1.0000
  C   C29       1.0  0.67782  0.69013  0.78956  1.0000
  C   C30       1.0  0.69013  0.67782  0.28956  1.0000
  C   C31       1.0  0.23799  0.46036  0.92315  1.0000
  C   C32       1.0  0.46037  0.23799  0.42315  1.0000
  S   S1        1.0  0.43120  0.15196  0.81586  1.0000
  S   S2        1.0  0.15196  0.43120  0.31585  1.0000
  N   N1        1.0  0.21096  0.68183  0.83118  1.0000
  N   N2        1.0  0.68183  0.21095  0.33118  1.0000
  N   N3        1.0  0.99307  0.48795  0.64677  1.0000
  N   N4        1.0  0.48794  0.99306  0.14678  1.0000
  N   N5        1.0  0.07323  0.74160  0.11780  1.0000
  N   N6        1.0  0.74159  0.07323  0.61781  1.0000
  O   O1        1.0  0.32428  0.09799  0.70313  1.0000
  O   O2        1.0  0.09799  0.32427  0.20313  1.0000
  O   O3        1.0  0.54693  0.08743  0.81678  1.0000
  O   O4        1.0  0.08743  0.54692  0.31678  1.0000
  O   O5        1.0  0.34810  0.12616  0.93712  1.0000
  O   O6        1.0  0.12615  0.34809  0.43711  1.0000
