data_image0
_chemical_formula_structural       Sm2H20C20O20
_chemical_formula_sum              "Sm2 H20 C20 O20"
_cell_length_a       8.82748
_cell_length_b       9.31353
_cell_length_c       9.6229
_cell_angle_alpha    84.408
_cell_angle_beta     66.5052
_cell_angle_gamma    64.1832

_space_group_name_H-M_alt    "P 1"
_space_group_IT_number       1

loop_
  _space_group_symop_operation_xyz
  'x, y, z'

loop_
  _atom_site_type_symbol
  _atom_site_label
  _atom_site_symmetry_multiplicity
  _atom_site_fract_x
  _atom_site_fract_y
  _atom_site_fract_z
  _atom_site_occupancy
  Sm  Sm1       1.0  0.23315  0.50612  0.54548  1.0000
  Sm  Sm2       1.0  0.76685  0.49388  0.45452  1.0000
  H   H1        1.0  0.93758  0.41593  0.73672  1.0000
  H   H2        1.0  0.06242  0.58406  0.26328  1.0000
  H   H3        1.0  0.05120  0.38325  0.83500  1.0000
  H   H4        1.0  0.94880  0.61675  0.16499  1.0000
  H   H5        1.0  0.33127  0.60122  0.77477  1.0000
  H   H6        1.0  0.66873  0.39878  0.22523  1.0000
  H   H7        1.0  0.11418  0.65817  0.86295  1.0000
  H   H8        1.0  0.88582  0.34183  0.13704  1.0000
  H   H9        1.0  0.32184  0.65221  0.01895  1.0000
  H   H10       1.0  0.67817  0.34778  0.98104  1.0000
  H   H11       1.0  0.17480  0.90705  0.42490  1.0000
  H   H12       1.0  0.82520  0.09295  0.57510  1.0000
  H   H13       1.0  0.41672  0.07504  0.40396  1.0000
  H   H14       1.0  0.58327  0.92497  0.59605  1.0000
  H   H15       1.0  0.11383  0.01141  0.79362  1.0000
  H   H16       1.0  0.88616  0.98859  0.20639  1.0000
  H   H17       1.0  0.24792  0.27790  0.06202  1.0000
  H   H18       1.0  0.75207  0.72211  0.93798  1.0000
  H   H19       1.0  0.50879  0.20685  0.13769  1.0000
  H   H20       1.0  0.49121  0.79315  0.86232  1.0000
  C   C1        1.0  0.36084  0.53039  0.21663  1.0000
  C   C2        1.0  0.63916  0.46961  0.78337  1.0000
  C   C3        1.0  0.41926  0.55044  0.05203  1.0000
  C   C4        1.0  0.58074  0.44956  0.94797  1.0000
  C   C5        1.0  0.45338  0.77469  0.42024  1.0000
  C   C6        1.0  0.54661  0.22531  0.57975  1.0000
  C   C7        1.0  0.29532  0.92075  0.41441  1.0000
  C   C8        1.0  0.70468  0.07925  0.58559  1.0000
  C   C9        1.0  0.29782  0.06434  0.40583  1.0000
  C   C10       1.0  0.70217  0.93566  0.59417  1.0000
  C   C11       1.0  0.13973  0.21649  0.40943  1.0000
  C   C12       1.0  0.86026  0.78352  0.59057  1.0000
  C   C13       1.0  0.19763  0.08333  0.91409  1.0000
  C   C14       1.0  0.80237  0.91667  0.08591  1.0000
  C   C15       1.0  0.35347  0.03910  0.95845  1.0000
  C   C16       1.0  0.64653  0.96090  0.04156  1.0000
  C   C17       1.0  0.35859  0.15684  0.03446  1.0000
  C   C18       1.0  0.64140  0.84316  0.96554  1.0000
  C   C19       1.0  0.50489  0.11734  0.07608  1.0000
  C   C20       1.0  0.49511  0.88266  0.92392  1.0000
  O   O1        1.0  0.46251  0.41287  0.26757  1.0000
  O   O2        1.0  0.53749  0.58712  0.73243  1.0000
  O   O3        1.0  0.20323  0.63265  0.30674  1.0000
  O   O4        1.0  0.79678  0.36735  0.69326  1.0000
  O   O5        1.0  0.42919  0.64894  0.46761  1.0000
  O   O6        1.0  0.57081  0.35106  0.53238  1.0000
  O   O7        1.0  0.61000  0.77201  0.38216  1.0000
  O   O8        1.0  0.39000  0.22800  0.61783  1.0000
  O   O9        1.0  0.01073  0.21596  0.38141  1.0000
  O   O10       1.0  0.98927  0.78404  0.61859  1.0000
  O   O11       1.0  0.13727  0.34756  0.44307  1.0000
  O   O12       1.0  0.86273  0.65245  0.55693  1.0000
  O   O13       1.0  0.00221  0.46132  0.76992  1.0000
  O   O14       1.0  0.99779  0.53868  0.23008  1.0000
  O   O15       1.0  0.22594  0.58102  0.78359  1.0000
  O   O16       1.0  0.77406  0.41898  0.21641  1.0000
  O   O17       1.0  0.05700  0.21154  0.95698  1.0000
  O   O18       1.0  0.94300  0.78846  0.04302  1.0000
  O   O19       1.0  0.21964  0.96979  0.82185  1.0000
  O   O20       1.0  0.78035  0.03021  0.17815  1.0000
