data_image0
_chemical_formula_structural       Tb2H20C20O20
_chemical_formula_sum              "Tb2 H20 C20 O20"
_cell_length_a       8.94582
_cell_length_b       9.33293
_cell_length_c       9.60954
_cell_angle_alpha    83.8117
_cell_angle_beta     65.9739
_cell_angle_gamma    63.4075

_space_group_name_H-M_alt    "P 1"
_space_group_IT_number       1

loop_
  _space_group_symop_operation_xyz
  'x, y, z'

loop_
  _atom_site_type_symbol
  _atom_site_label
  _atom_site_symmetry_multiplicity
  _atom_site_fract_x
  _atom_site_fract_y
  _atom_site_fract_z
  _atom_site_occupancy
  Tb  Tb1       1.0  0.24354  0.50193  0.54338  1.0000
  Tb  Tb2       1.0  0.75646  0.49807  0.45662  1.0000
  H   H1        1.0  0.94174  0.42207  0.72631  1.0000
  H   H2        1.0  0.05826  0.57793  0.27369  1.0000
  H   H3        1.0  0.05359  0.38102  0.82677  1.0000
  H   H4        1.0  0.94641  0.61898  0.17323  1.0000
  H   H5        1.0  0.33043  0.59638  0.77349  1.0000
  H   H6        1.0  0.66956  0.40362  0.22652  1.0000
  H   H7        1.0  0.11406  0.65019  0.86080  1.0000
  H   H8        1.0  0.88593  0.34981  0.13920  1.0000
  H   H9        1.0  0.31872  0.64946  0.01976  1.0000
  H   H10       1.0  0.68128  0.35054  0.98024  1.0000
  H   H11       1.0  0.16742  0.91574  0.42978  1.0000
  H   H12       1.0  0.83258  0.08426  0.57021  1.0000
  H   H13       1.0  0.41923  0.06873  0.40645  1.0000
  H   H14       1.0  0.58077  0.93127  0.59355  1.0000
  H   H15       1.0  0.11239  0.01796  0.79976  1.0000
  H   H16       1.0  0.88761  0.98203  0.20024  1.0000
  H   H17       1.0  0.24872  0.28032  0.06353  1.0000
  H   H18       1.0  0.75128  0.71968  0.93647  1.0000
  H   H19       1.0  0.51030  0.20533  0.13603  1.0000
  H   H20       1.0  0.48970  0.79468  0.86397  1.0000
  C   C1        1.0  0.36232  0.52884  0.21793  1.0000
  C   C2        1.0  0.63767  0.47117  0.78207  1.0000
  C   C3        1.0  0.41848  0.54936  0.05264  1.0000
  C   C4        1.0  0.58152  0.45064  0.94736  1.0000
  C   C5        1.0  0.44468  0.77535  0.42408  1.0000
  C   C6        1.0  0.55532  0.22465  0.57592  1.0000
  C   C7        1.0  0.28900  0.92506  0.41865  1.0000
  C   C8        1.0  0.71100  0.07493  0.58134  1.0000
  C   C9        1.0  0.29765  0.06583  0.40902  1.0000
  C   C10       1.0  0.70235  0.93417  0.59098  1.0000
  C   C11       1.0  0.14666  0.22521  0.41287  1.0000
  C   C12       1.0  0.85333  0.77479  0.58713  1.0000
  C   C13       1.0  0.19782  0.08827  0.91727  1.0000
  C   C14       1.0  0.80218  0.91173  0.08273  1.0000
  C   C15       1.0  0.35340  0.04128  0.96034  1.0000
  C   C16       1.0  0.64660  0.95872  0.03965  1.0000
  C   C17       1.0  0.35928  0.15828  0.03531  1.0000
  C   C18       1.0  0.64072  0.84172  0.96469  1.0000
  C   C19       1.0  0.50565  0.11666  0.07511  1.0000
  C   C20       1.0  0.49435  0.88333  0.92489  1.0000
  O   O1        1.0  0.46868  0.41397  0.26821  1.0000
  O   O2        1.0  0.53132  0.58603  0.73180  1.0000
  O   O3        1.0  0.20301  0.62747  0.30982  1.0000
  O   O4        1.0  0.79698  0.37253  0.69018  1.0000
  O   O5        1.0  0.41921  0.65039  0.47122  1.0000
  O   O6        1.0  0.58079  0.34961  0.52878  1.0000
  O   O7        1.0  0.60135  0.76927  0.38545  1.0000
  O   O8        1.0  0.39865  0.23073  0.61455  1.0000
  O   O9        1.0  0.01313  0.23532  0.38794  1.0000
  O   O10       1.0  0.98687  0.76467  0.61206  1.0000
  O   O11       1.0  0.15967  0.34824  0.44249  1.0000
  O   O12       1.0  0.84033  0.65176  0.55750  1.0000
  O   O13       1.0  0.00981  0.46073  0.75977  1.0000
  O   O14       1.0  0.99018  0.53926  0.24023  1.0000
  O   O15       1.0  0.22755  0.57602  0.77947  1.0000
  O   O16       1.0  0.77245  0.42397  0.22053  1.0000
  O   O17       1.0  0.05941  0.21928  0.95836  1.0000
  O   O18       1.0  0.94059  0.78072  0.04164  1.0000
  O   O19       1.0  0.21741  0.97388  0.82797  1.0000
  O   O20       1.0  0.78259  0.02612  0.17203  1.0000
