data_image0
_chemical_formula_structural       Sm4H32C32O32
_chemical_formula_sum              "Sm4 H32 C32 O32"
_cell_length_a       8.94711
_cell_length_b       10.5198
_cell_length_c       12.2524
_cell_angle_alpha    89.9996
_cell_angle_beta     90.0005
_cell_angle_gamma    102.597

_space_group_name_H-M_alt    "P 1"
_space_group_IT_number       1

loop_
  _space_group_symop_operation_xyz
  'x, y, z'

loop_
  _atom_site_type_symbol
  _atom_site_label
  _atom_site_symmetry_multiplicity
  _atom_site_fract_x
  _atom_site_fract_y
  _atom_site_fract_z
  _atom_site_occupancy
  Sm  Sm1       1.0  0.61798  0.31509  0.40249  1.0000
  Sm  Sm2       1.0  0.38203  0.68491  0.90249  1.0000
  Sm  Sm3       1.0  0.93490  0.11951  0.50266  1.0000
  Sm  Sm4       1.0  0.06510  0.88050  0.00266  1.0000
  H   H1        1.0  0.65810  0.35236  0.13987  1.0000
  H   H2        1.0  0.34190  0.64764  0.63987  1.0000
  H   H3        1.0  0.56306  0.44184  0.19714  1.0000
  H   H4        1.0  0.43694  0.55816  0.69714  1.0000
  H   H5        1.0  0.29917  0.12797  0.37576  1.0000
  H   H6        1.0  0.70083  0.87203  0.87576  1.0000
  H   H7        1.0  0.31270  0.23030  0.28033  1.0000
  H   H8        1.0  0.68731  0.76970  0.78033  1.0000
  H   H9        1.0  0.01475  0.06796  0.75006  1.0000
  H   H10       1.0  0.98525  0.93204  0.25006  1.0000
  H   H11       1.0  0.83811  0.04326  0.72542  1.0000
  H   H12       1.0  0.16189  0.95674  0.22542  1.0000
  H   H13       1.0  0.25026  0.32164  0.54838  1.0000
  H   H14       1.0  0.74974  0.67836  0.04838  1.0000
  H   H15       1.0  0.16063  0.29775  0.66205  1.0000
  H   H16       1.0  0.83937  0.70225  0.16205  1.0000
  H   H17       1.0  0.52184  0.75565  0.35488  1.0000
  H   H18       1.0  0.47816  0.24434  0.85488  1.0000
  H   H19       1.0  0.38658  0.93772  0.38107  1.0000
  H   H20       1.0  0.61341  0.06228  0.88108  1.0000
  H   H21       1.0  0.01277  0.67408  0.53630  1.0000
  H   H22       1.0  0.98723  0.32592  0.03630  1.0000
  H   H23       1.0  0.14925  0.49210  0.51319  1.0000
  H   H24       1.0  0.85075  0.50790  0.01319  1.0000
  H   H25       1.0  0.16110  0.36783  0.18543  1.0000
  H   H26       1.0  0.83890  0.63217  0.68543  1.0000
  H   H27       1.0  0.03985  0.61600  0.22972  1.0000
  H   H28       1.0  0.96015  0.38400  0.72972  1.0000
  H   H29       1.0  0.49788  0.90595  0.70436  1.0000
  H   H30       1.0  0.50211  0.09404  0.20436  1.0000
  H   H31       1.0  0.29444  0.10323  0.66011  1.0000
  H   H32       1.0  0.70556  0.89678  0.16011  1.0000
  C   C1        1.0  0.34548  0.61385  0.43396  1.0000
  C   C2        1.0  0.65451  0.38615  0.93396  1.0000
  C   C3        1.0  0.41053  0.73892  0.39479  1.0000
  C   C4        1.0  0.58947  0.26107  0.89479  1.0000
  C   C5        1.0  0.33452  0.83988  0.40913  1.0000
  C   C6        1.0  0.66547  0.16012  0.90913  1.0000
  C   C7        1.0  0.19207  0.81657  0.46185  1.0000
  C   C8        1.0  0.80792  0.18343  0.96185  1.0000
  C   C9        1.0  0.12514  0.69081  0.49823  1.0000
  C   C10       1.0  0.87486  0.30919  0.99823  1.0000
  C   C11       1.0  0.20163  0.59004  0.48527  1.0000
  C   C12       1.0  0.79836  0.40995  0.98527  1.0000
  C   C13       1.0  0.43074  0.50757  0.42188  1.0000
  C   C14       1.0  0.56925  0.49244  0.92188  1.0000
  C   C15       1.0  0.10971  0.92326  0.48205  1.0000
  C   C16       1.0  0.89029  0.07674  0.98205  1.0000
  C   C17       1.0  0.99109  0.36746  0.31573  1.0000
  C   C18       1.0  0.00892  0.63254  0.81573  1.0000
  C   C19       1.0  0.09224  0.42845  0.22515  1.0000
  C   C20       1.0  0.90777  0.57156  0.72515  1.0000
  C   C21       1.0  0.10388  0.55115  0.19102  1.0000
  C   C22       1.0  0.89613  0.44885  0.69102  1.0000
  C   C23       1.0  0.20033  0.60079  0.09590  1.0000
  C   C24       1.0  0.79968  0.39921  0.59590  1.0000
  C   C25       1.0  0.55834  0.05523  0.57741  1.0000
  C   C26       1.0  0.44166  0.94477  0.07741  1.0000
  C   C27       1.0  0.45787  0.98516  0.66485  1.0000
  C   C28       1.0  0.54213  0.01485  0.16485  1.0000
  C   C29       1.0  0.33184  0.02238  0.69942  1.0000
  C   C30       1.0  0.66816  0.97762  0.19942  1.0000
  C   C31       1.0  0.24402  0.96179  0.79505  1.0000
  C   C32       1.0  0.75598  0.03821  0.29505  1.0000
  O   O1        1.0  0.54004  0.52051  0.35308  1.0000
  O   O2        1.0  0.45995  0.47950  0.85308  1.0000
  O   O3        1.0  0.39584  0.40497  0.48139  1.0000
  O   O4        1.0  0.60416  0.59504  0.98139  1.0000
  O   O5        1.0  0.15986  0.03681  0.43969  1.0000
  O   O6        1.0  0.84014  0.96318  0.93969  1.0000
  O   O7        1.0  0.98977  0.90202  0.54067  1.0000
  O   O8        1.0  0.01023  0.09798  0.04067  1.0000
  O   O9        1.0  0.87042  0.40884  0.33526  1.0000
  O   O10       1.0  0.12959  0.59116  0.83526  1.0000
  O   O11       1.0  0.03594  0.27600  0.36566  1.0000
  O   O12       1.0  0.96406  0.72400  0.86566  1.0000
  O   O13       1.0  0.18333  0.70772  0.05118  1.0000
  O   O14       1.0  0.81667  0.29228  0.55118  1.0000
  O   O15       1.0  0.29398  0.53847  0.05655  1.0000
  O   O16       1.0  0.70603  0.46153  0.55654  1.0000
  O   O17       1.0  0.51460  0.14537  0.52573  1.0000
  O   O18       1.0  0.48540  0.85463  0.02573  1.0000
  O   O19       1.0  0.68459  0.01918  0.56371  1.0000
  O   O20       1.0  0.31540  0.98082  0.06371  1.0000
  O   O21       1.0  0.13594  0.01203  0.83175  1.0000
  O   O22       1.0  0.86406  0.98797  0.33175  1.0000
  O   O23       1.0  0.27771  0.86420  0.84353  1.0000
  O   O24       1.0  0.72229  0.13580  0.34353  1.0000
  O   O25       1.0  0.58496  0.35472  0.19866  1.0000
  O   O26       1.0  0.41505  0.64528  0.69866  1.0000
  O   O27       1.0  0.37404  0.18590  0.32612  1.0000
  O   O28       1.0  0.62597  0.81410  0.82612  1.0000
  O   O29       1.0  0.93592  0.09990  0.70595  1.0000
  O   O30       1.0  0.06408  0.90010  0.20595  1.0000
  O   O31       1.0  0.16151  0.26498  0.58804  1.0000
  O   O32       1.0  0.83849  0.73502  0.08804  1.0000
