data_image0
_chemical_formula_structural       Er4H32C32O32
_chemical_formula_sum              "Er4 H32 C32 O32"
_cell_length_a       8.70844
_cell_length_b       10.5911
_cell_length_c       12.0747
_cell_angle_alpha    89.9999
_cell_angle_beta     90.0003
_cell_angle_gamma    102.453

_space_group_name_H-M_alt    "P 1"
_space_group_IT_number       1

loop_
  _space_group_symop_operation_xyz
  'x, y, z'

loop_
  _atom_site_type_symbol
  _atom_site_label
  _atom_site_symmetry_multiplicity
  _atom_site_fract_x
  _atom_site_fract_y
  _atom_site_fract_z
  _atom_site_occupancy
  Er  Er1       1.0  0.62012  0.32070  0.40189  1.0000
  Er  Er2       1.0  0.37989  0.67930  0.90189  1.0000
  Er  Er3       1.0  0.94920  0.12095  0.50135  1.0000
  Er  Er4       1.0  0.05080  0.87905  0.00135  1.0000
  H   H1        1.0  0.56688  0.45396  0.19818  1.0000
  H   H2        1.0  0.43311  0.54604  0.69818  1.0000
  H   H3        1.0  0.56586  0.31878  0.14388  1.0000
  H   H4        1.0  0.43415  0.68122  0.64388  1.0000
  H   H5        1.0  0.31369  0.13200  0.37129  1.0000
  H   H6        1.0  0.68631  0.86800  0.87129  1.0000
  H   H7        1.0  0.28592  0.25537  0.31739  1.0000
  H   H8        1.0  0.71408  0.74463  0.81739  1.0000
  H   H9        1.0  0.02439  0.05255  0.74456  1.0000
  H   H10       1.0  0.97561  0.94745  0.24456  1.0000
  H   H11       1.0  0.84534  0.02931  0.71526  1.0000
  H   H12       1.0  0.15465  0.97070  0.21525  1.0000
  H   H13       1.0  0.25754  0.31735  0.54801  1.0000
  H   H14       1.0  0.74246  0.68265  0.04800  1.0000
  H   H15       1.0  0.15993  0.28943  0.66071  1.0000
  H   H16       1.0  0.84007  0.71057  0.16070  1.0000
  H   H17       1.0  0.53213  0.75632  0.34982  1.0000
  H   H18       1.0  0.46787  0.24366  0.84982  1.0000
  H   H19       1.0  0.38730  0.93483  0.36857  1.0000
  H   H20       1.0  0.61270  0.06516  0.86857  1.0000
  H   H21       1.0  0.01051  0.67637  0.53635  1.0000
  H   H22       1.0  0.98949  0.32363  0.03634  1.0000
  H   H23       1.0  0.15755  0.49899  0.52156  1.0000
  H   H24       1.0  0.84243  0.50101  0.02155  1.0000
  H   H25       1.0  0.17476  0.38405  0.19138  1.0000
  H   H26       1.0  0.82525  0.61595  0.69138  1.0000
  H   H27       1.0  0.02265  0.61531  0.23931  1.0000
  H   H28       1.0  0.97735  0.38469  0.73931  1.0000
  H   H29       1.0  0.51746  0.90804  0.69160  1.0000
  H   H30       1.0  0.48253  0.09196  0.19161  1.0000
  H   H31       1.0  0.29206  0.09287  0.65452  1.0000
  H   H32       1.0  0.70795  0.90714  0.15452  1.0000
  C   C1        1.0  0.35440  0.61755  0.43552  1.0000
  C   C2        1.0  0.64559  0.38244  0.93552  1.0000
  C   C3        1.0  0.41813  0.74010  0.39088  1.0000
  C   C4        1.0  0.58186  0.25989  0.89088  1.0000
  C   C5        1.0  0.33687  0.83894  0.40102  1.0000
  C   C6        1.0  0.66312  0.16105  0.90101  1.0000
  C   C7        1.0  0.19091  0.81605  0.45495  1.0000
  C   C8        1.0  0.80909  0.18394  0.95495  1.0000
  C   C9        1.0  0.12519  0.69280  0.49649  1.0000
  C   C10       1.0  0.87481  0.30720  0.99648  1.0000
  C   C11       1.0  0.20711  0.59434  0.48770  1.0000
  C   C12       1.0  0.79289  0.40566  0.98769  1.0000
  C   C13       1.0  0.44405  0.51326  0.42618  1.0000
  C   C14       1.0  0.55594  0.48673  0.92617  1.0000
  C   C15       1.0  0.10662  0.92241  0.47292  1.0000
  C   C16       1.0  0.89338  0.07759  0.97292  1.0000
  C   C17       1.0  0.99762  0.37104  0.32422  1.0000
  C   C18       1.0  0.00238  0.62897  0.82422  1.0000
  C   C19       1.0  0.09731  0.43783  0.23272  1.0000
  C   C20       1.0  0.90269  0.56217  0.73272  1.0000
  C   C21       1.0  0.09656  0.55811  0.19879  1.0000
  C   C22       1.0  0.90344  0.44189  0.69878  1.0000
  C   C23       1.0  0.19109  0.61460  0.10215  1.0000
  C   C24       1.0  0.80891  0.38540  0.60214  1.0000
  C   C25       1.0  0.56920  0.06145  0.56614  1.0000
  C   C26       1.0  0.43080  0.93855  0.06614  1.0000
  C   C27       1.0  0.47065  0.98556  0.65381  1.0000
  C   C28       1.0  0.52935  0.01444  0.15381  1.0000
  C   C29       1.0  0.33690  0.01364  0.69100  1.0000
  C   C30       1.0  0.66310  0.98637  0.19100  1.0000
  C   C31       1.0  0.25208  0.94287  0.78613  1.0000
  C   C32       1.0  0.74793  0.05714  0.28613  1.0000
  O   O1        1.0  0.56488  0.52935  0.36390  1.0000
  O   O2        1.0  0.43511  0.47064  0.86390  1.0000
  O   O3        1.0  0.40094  0.40701  0.48025  1.0000
  O   O4        1.0  0.59906  0.59299  0.98024  1.0000
  O   O5        1.0  0.16412  0.03639  0.43397  1.0000
  O   O6        1.0  0.83588  0.96361  0.93397  1.0000
  O   O7        1.0  0.97928  0.90274  0.52755  1.0000
  O   O8        1.0  0.02073  0.09727  0.02753  1.0000
  O   O9        1.0  0.87539  0.41079  0.35072  1.0000
  O   O10       1.0  0.12462  0.58921  0.85072  1.0000
  O   O11       1.0  0.04563  0.27625  0.36825  1.0000
  O   O12       1.0  0.95437  0.72376  0.86823  1.0000
  O   O13       1.0  0.16179  0.71660  0.05759  1.0000
  O   O14       1.0  0.83820  0.28340  0.55758  1.0000
  O   O15       1.0  0.29502  0.56014  0.06217  1.0000
  O   O16       1.0  0.70498  0.43986  0.56217  1.0000
  O   O17       1.0  0.52213  0.15436  0.52051  1.0000
  O   O18       1.0  0.47787  0.84565  0.02051  1.0000
  O   O19       1.0  0.69774  0.02623  0.54570  1.0000
  O   O20       1.0  0.30226  0.97378  0.04569  1.0000
  O   O21       1.0  0.13790  0.98506  0.82869  1.0000
  O   O22       1.0  0.86210  0.01493  0.32869  1.0000
  O   O23       1.0  0.29637  0.84558  0.82564  1.0000
  O   O24       1.0  0.70365  0.15443  0.32563  1.0000
  O   O25       1.0  0.60539  0.37449  0.20614  1.0000
  O   O26       1.0  0.39462  0.62551  0.70614  1.0000
  O   O27       1.0  0.36840  0.20558  0.32375  1.0000
  O   O28       1.0  0.63160  0.79442  0.82375  1.0000
  O   O29       1.0  0.94605  0.08699  0.69900  1.0000
  O   O30       1.0  0.05394  0.91301  0.19899  1.0000
  O   O31       1.0  0.17322  0.25371  0.58813  1.0000
  O   O32       1.0  0.82677  0.74629  0.08812  1.0000
