data_image0
_chemical_formula_structural       Sm4H32C36O32
_chemical_formula_sum              "Sm4 H32 C36 O32"
_cell_length_a       7.80021
_cell_length_b       8.2736
_cell_length_c       19.0907
_cell_angle_alpha    90
_cell_angle_beta     90
_cell_angle_gamma    106.115

_space_group_name_H-M_alt    "P 1"
_space_group_IT_number       1

loop_
  _space_group_symop_operation_xyz
  'x, y, z'

loop_
  _atom_site_type_symbol
  _atom_site_label
  _atom_site_symmetry_multiplicity
  _atom_site_fract_x
  _atom_site_fract_y
  _atom_site_fract_z
  _atom_site_occupancy
  Sm  Sm1       1.0  0.75798  0.25301  0.51785  1.0000
  Sm  Sm2       1.0  0.74202  0.74699  0.01786  1.0000
  Sm  Sm3       1.0  0.24202  0.74699  0.48215  1.0000
  Sm  Sm4       1.0  0.25798  0.25301  0.98215  1.0000
  H   H1        1.0  0.51309  0.24593  0.63960  1.0000
  H   H2        1.0  0.98691  0.75408  0.13960  1.0000
  H   H3        1.0  0.48691  0.75408  0.36040  1.0000
  H   H4        1.0  0.01309  0.24593  0.86040  1.0000
  H   H5        1.0  0.37837  0.15843  0.57857  1.0000
  H   H6        1.0  0.12162  0.84157  0.07857  1.0000
  H   H7        1.0  0.62163  0.84157  0.42143  1.0000
  H   H8        1.0  0.87838  0.15843  0.92143  1.0000
  H   H9        1.0  0.77420  0.62384  0.48378  1.0000
  H   H10       1.0  0.72581  0.37616  0.98378  1.0000
  H   H11       1.0  0.22581  0.37616  0.51622  1.0000
  H   H12       1.0  0.27420  0.62384  0.01622  1.0000
  H   H13       1.0  0.60360  0.55606  0.53269  1.0000
  H   H14       1.0  0.89640  0.44394  0.03269  1.0000
  H   H15       1.0  0.39640  0.44394  0.46731  1.0000
  H   H16       1.0  0.10360  0.55606  0.96731  1.0000
  H   H17       1.0  0.60566  0.43357  0.36969  1.0000
  H   H18       1.0  0.89434  0.56642  0.86969  1.0000
  H   H19       1.0  0.39434  0.56642  0.63031  1.0000
  H   H20       1.0  0.10566  0.43358  0.13031  1.0000
  H   H21       1.0  0.65681  0.58176  0.25399  1.0000
  H   H22       1.0  0.84319  0.41825  0.75399  1.0000
  H   H23       1.0  0.34319  0.41824  0.74601  1.0000
  H   H24       1.0  0.15681  0.58176  0.24601  1.0000
  H   H25       1.0  0.31582  0.14506  0.15408  1.0000
  H   H26       1.0  0.18418  0.85494  0.65409  1.0000
  H   H27       1.0  0.68418  0.85494  0.84592  1.0000
  H   H28       1.0  0.81582  0.14506  0.34592  1.0000
  H   H29       1.0  0.25949  0.99791  0.27048  1.0000
  H   H30       1.0  0.24051  0.00209  0.77048  1.0000
  H   H31       1.0  0.74050  0.00209  0.72952  1.0000
  H   H32       1.0  0.75949  0.99791  0.22952  1.0000
  C   C1        1.0  0.42924  0.20655  0.32658  1.0000
  C   C2        1.0  0.07076  0.79345  0.82658  1.0000
  C   C3        1.0  0.57076  0.79345  0.67342  1.0000
  C   C4        1.0  0.92924  0.20655  0.17342  1.0000
  C   C5        1.0  0.54004  0.37183  0.32256  1.0000
  C   C6        1.0  0.95996  0.62817  0.82256  1.0000
  C   C7        1.0  0.45995  0.62817  0.67744  1.0000
  C   C8        1.0  0.04004  0.37183  0.17744  1.0000
  C   C9        1.0  0.56918  0.45417  0.25831  1.0000
  C   C10       1.0  0.93082  0.54584  0.75831  1.0000
  C   C11       1.0  0.43082  0.54584  0.74169  1.0000
  C   C12       1.0  0.06919  0.45417  0.24169  1.0000
  C   C13       1.0  0.48896  0.37238  0.19741  1.0000
  C   C14       1.0  0.01104  0.62762  0.69741  1.0000
  C   C15       1.0  0.51104  0.62762  0.80259  1.0000
  C   C16       1.0  0.98896  0.37238  0.30259  1.0000
  C   C17       1.0  0.37681  0.20775  0.20169  1.0000
  C   C18       1.0  0.12319  0.79225  0.70169  1.0000
  C   C19       1.0  0.62319  0.79225  0.79831  1.0000
  C   C20       1.0  0.87681  0.20775  0.29831  1.0000
  C   C21       1.0  0.34617  0.12585  0.26592  1.0000
  C   C22       1.0  0.15383  0.87415  0.76592  1.0000
  C   C23       1.0  0.65383  0.87415  0.73408  1.0000
  C   C24       1.0  0.84617  0.12586  0.23408  1.0000
  C   C25       1.0  0.40680  0.11087  0.39401  1.0000
  C   C26       1.0  0.09320  0.88912  0.89401  1.0000
  C   C27       1.0  0.59320  0.88912  0.60599  1.0000
  C   C28       1.0  0.90680  0.11088  0.10599  1.0000
  C   C29       1.0  0.52296  0.46063  0.12823  1.0000
  C   C30       1.0  0.97705  0.53938  0.62823  1.0000
  C   C31       1.0  0.47705  0.53937  0.87177  1.0000
  C   C32       1.0  0.02296  0.46063  0.37177  1.0000
  C   C33       1.0  0.07299  0.05992  0.52289  1.0000
  C   C34       1.0  0.42702  0.94007  0.02290  1.0000
  C   C35       1.0  0.92702  0.94007  0.47710  1.0000
  C   C36       1.0  0.57298  0.05992  0.97710  1.0000
  O   O1        1.0  0.51222  0.17207  0.44463  1.0000
  O   O2        1.0  0.98779  0.82793  0.94463  1.0000
  O   O3        1.0  0.48779  0.82793  0.55537  1.0000
  O   O4        1.0  0.01222  0.17207  0.05537  1.0000
  O   O5        1.0  0.28647  0.97182  0.39743  1.0000
  O   O6        1.0  0.21354  0.02818  0.89743  1.0000
  O   O7        1.0  0.71353  0.02818  0.60257  1.0000
  O   O8        1.0  0.78647  0.97182  0.10257  1.0000
  O   O9        1.0  0.64382  0.59994  0.12505  1.0000
  O   O10       1.0  0.85617  0.40007  0.62505  1.0000
  O   O11       1.0  0.35617  0.40006  0.87495  1.0000
  O   O12       1.0  0.14383  0.59993  0.37495  1.0000
  O   O13       1.0  0.43013  0.39317  0.07535  1.0000
  O   O14       1.0  0.06987  0.60684  0.57535  1.0000
  O   O15       1.0  0.56987  0.60684  0.92465  1.0000
  O   O16       1.0  0.93013  0.39317  0.42465  1.0000
  O   O17       1.0  0.05447  0.20466  0.53511  1.0000
  O   O18       1.0  0.44552  0.79534  0.03512  1.0000
  O   O19       1.0  0.94553  0.79534  0.46488  1.0000
  O   O20       1.0  0.55447  0.20466  0.96489  1.0000
  O   O21       1.0  0.20009  0.00477  0.54399  1.0000
  O   O22       1.0  0.29990  0.99523  0.04400  1.0000
  O   O23       1.0  0.79990  0.99523  0.45600  1.0000
  O   O24       1.0  0.70009  0.00477  0.95600  1.0000
  O   O25       1.0  0.48828  0.25050  0.58985  1.0000
  O   O26       1.0  0.01172  0.74950  0.08985  1.0000
  O   O27       1.0  0.51172  0.74950  0.41015  1.0000
  O   O28       1.0  0.98828  0.25050  0.91015  1.0000
  O   O29       1.0  0.68597  0.52106  0.50170  1.0000
  O   O30       1.0  0.81403  0.47893  0.00170  1.0000
  O   O31       1.0  0.31404  0.47893  0.49830  1.0000
  O   O32       1.0  0.18597  0.52106  0.99831  1.0000
