data_image0
_chemical_formula_structural       Gd4H32C36O32
_chemical_formula_sum              "Gd4 H32 C36 O32"
_cell_length_a       7.76569
_cell_length_b       8.22105
_cell_length_c       18.9921
_cell_angle_alpha    90
_cell_angle_beta     90
_cell_angle_gamma    105.993

_space_group_name_H-M_alt    "P 1"
_space_group_IT_number       1

loop_
  _space_group_symop_operation_xyz
  'x, y, z'

loop_
  _atom_site_type_symbol
  _atom_site_label
  _atom_site_symmetry_multiplicity
  _atom_site_fract_x
  _atom_site_fract_y
  _atom_site_fract_z
  _atom_site_occupancy
  Gd  Gd1       1.0  0.75806  0.25171  0.51782  1.0000
  Gd  Gd2       1.0  0.74194  0.74829  0.01782  1.0000
  Gd  Gd3       1.0  0.24194  0.74829  0.48218  1.0000
  Gd  Gd4       1.0  0.25806  0.25171  0.98218  1.0000
  H   H1        1.0  0.60826  0.43384  0.36983  1.0000
  H   H2        1.0  0.89173  0.56615  0.86983  1.0000
  H   H3        1.0  0.39173  0.56615  0.63017  1.0000
  H   H4        1.0  0.10826  0.43385  0.13017  1.0000
  H   H5        1.0  0.65872  0.58267  0.25313  1.0000
  H   H6        1.0  0.84129  0.41733  0.75313  1.0000
  H   H7        1.0  0.34128  0.41733  0.74687  1.0000
  H   H8        1.0  0.15871  0.58267  0.24687  1.0000
  H   H9        1.0  0.31514  0.14366  0.15365  1.0000
  H   H10       1.0  0.18486  0.85634  0.65365  1.0000
  H   H11       1.0  0.68486  0.85634  0.84635  1.0000
  H   H12       1.0  0.81514  0.14366  0.34635  1.0000
  H   H13       1.0  0.25933  0.99605  0.27111  1.0000
  H   H14       1.0  0.24066  0.00395  0.77111  1.0000
  H   H15       1.0  0.74066  0.00395  0.72889  1.0000
  H   H16       1.0  0.75933  0.99605  0.22889  1.0000
  H   H17       1.0  0.51618  0.24784  0.63950  1.0000
  H   H18       1.0  0.98383  0.75216  0.13950  1.0000
  H   H19       1.0  0.48382  0.75216  0.36050  1.0000
  H   H20       1.0  0.01618  0.24784  0.86050  1.0000
  H   H21       1.0  0.38123  0.16064  0.57804  1.0000
  H   H22       1.0  0.11877  0.83936  0.07804  1.0000
  H   H23       1.0  0.61877  0.83935  0.42196  1.0000
  H   H24       1.0  0.88123  0.16064  0.92196  1.0000
  H   H25       1.0  0.77586  0.62139  0.48381  1.0000
  H   H26       1.0  0.72414  0.37861  0.98381  1.0000
  H   H27       1.0  0.22414  0.37861  0.51619  1.0000
  H   H28       1.0  0.27586  0.62139  0.01619  1.0000
  H   H29       1.0  0.60526  0.55138  0.53332  1.0000
  H   H30       1.0  0.89474  0.44862  0.03332  1.0000
  H   H31       1.0  0.39474  0.44862  0.46668  1.0000
  H   H32       1.0  0.10526  0.55138  0.96668  1.0000
  C   C1        1.0  0.43090  0.20610  0.32682  1.0000
  C   C2        1.0  0.06909  0.79390  0.82682  1.0000
  C   C3        1.0  0.56909  0.79390  0.67318  1.0000
  C   C4        1.0  0.93090  0.20610  0.17318  1.0000
  C   C5        1.0  0.54207  0.37210  0.32249  1.0000
  C   C6        1.0  0.95793  0.62790  0.82249  1.0000
  C   C7        1.0  0.45793  0.62790  0.67751  1.0000
  C   C8        1.0  0.04207  0.37210  0.17751  1.0000
  C   C9        1.0  0.57047  0.45455  0.25779  1.0000
  C   C10       1.0  0.92953  0.54546  0.75779  1.0000
  C   C11       1.0  0.42952  0.54545  0.74221  1.0000
  C   C12       1.0  0.07047  0.45455  0.24221  1.0000
  C   C13       1.0  0.48909  0.37182  0.19683  1.0000
  C   C14       1.0  0.01091  0.62818  0.69683  1.0000
  C   C15       1.0  0.51091  0.62818  0.80317  1.0000
  C   C16       1.0  0.98909  0.37182  0.30317  1.0000
  C   C17       1.0  0.37660  0.20641  0.20147  1.0000
  C   C18       1.0  0.12339  0.79360  0.70147  1.0000
  C   C19       1.0  0.62339  0.79360  0.79853  1.0000
  C   C20       1.0  0.87660  0.20641  0.29853  1.0000
  C   C21       1.0  0.34657  0.12453  0.26611  1.0000
  C   C22       1.0  0.15343  0.87548  0.76612  1.0000
  C   C23       1.0  0.65343  0.87548  0.73388  1.0000
  C   C24       1.0  0.84657  0.12453  0.23389  1.0000
  C   C25       1.0  0.40934  0.11014  0.39461  1.0000
  C   C26       1.0  0.09065  0.88986  0.89461  1.0000
  C   C27       1.0  0.59065  0.88986  0.60539  1.0000
  C   C28       1.0  0.90934  0.11014  0.10539  1.0000
  C   C29       1.0  0.52177  0.45909  0.12699  1.0000
  C   C30       1.0  0.97823  0.54091  0.62699  1.0000
  C   C31       1.0  0.47823  0.54091  0.87301  1.0000
  C   C32       1.0  0.02177  0.45909  0.37301  1.0000
  C   C33       1.0  0.07284  0.06040  0.52298  1.0000
  C   C34       1.0  0.42717  0.93960  0.02298  1.0000
  C   C35       1.0  0.92717  0.93960  0.47702  1.0000
  C   C36       1.0  0.57284  0.06040  0.97702  1.0000
  O   O1        1.0  0.51618  0.17099  0.44516  1.0000
  O   O2        1.0  0.98382  0.82901  0.94517  1.0000
  O   O3        1.0  0.48382  0.82901  0.55483  1.0000
  O   O4        1.0  0.01618  0.17099  0.05483  1.0000
  O   O5        1.0  0.28797  0.97083  0.39827  1.0000
  O   O6        1.0  0.21203  0.02917  0.89827  1.0000
  O   O7        1.0  0.71203  0.02917  0.60173  1.0000
  O   O8        1.0  0.78797  0.97083  0.10173  1.0000
  O   O9        1.0  0.64173  0.59982  0.12308  1.0000
  O   O10       1.0  0.85827  0.40018  0.62307  1.0000
  O   O11       1.0  0.35827  0.40018  0.87693  1.0000
  O   O12       1.0  0.14173  0.59982  0.37692  1.0000
  O   O13       1.0  0.42858  0.38890  0.07430  1.0000
  O   O14       1.0  0.07143  0.61111  0.57430  1.0000
  O   O15       1.0  0.57143  0.61111  0.92570  1.0000
  O   O16       1.0  0.92858  0.38890  0.42570  1.0000
  O   O17       1.0  0.05275  0.20539  0.53562  1.0000
  O   O18       1.0  0.44725  0.79460  0.03562  1.0000
  O   O19       1.0  0.94725  0.79461  0.46438  1.0000
  O   O20       1.0  0.55275  0.20539  0.96438  1.0000
  O   O21       1.0  0.20159  0.00582  0.54376  1.0000
  O   O22       1.0  0.29842  0.99418  0.04376  1.0000
  O   O23       1.0  0.79842  0.99419  0.45624  1.0000
  O   O24       1.0  0.70159  0.00582  0.95624  1.0000
  O   O25       1.0  0.49168  0.25279  0.58947  1.0000
  O   O26       1.0  0.00832  0.74721  0.08947  1.0000
  O   O27       1.0  0.50832  0.74721  0.41053  1.0000
  O   O28       1.0  0.99168  0.25279  0.91053  1.0000
  O   O29       1.0  0.68688  0.51771  0.50111  1.0000
  O   O30       1.0  0.81312  0.48229  0.00111  1.0000
  O   O31       1.0  0.31312  0.48229  0.49888  1.0000
  O   O32       1.0  0.18688  0.51771  0.99889  1.0000
