data_image0
_chemical_formula_structural       Dy4H32C36O32
_chemical_formula_sum              "Dy4 H32 C36 O32"
_cell_length_a       7.74435
_cell_length_b       8.15819
_cell_length_c       18.9403
_cell_angle_alpha    90
_cell_angle_beta     89.9999
_cell_angle_gamma    105.905

_space_group_name_H-M_alt    "P 1"
_space_group_IT_number       1

loop_
  _space_group_symop_operation_xyz
  'x, y, z'

loop_
  _atom_site_type_symbol
  _atom_site_label
  _atom_site_symmetry_multiplicity
  _atom_site_fract_x
  _atom_site_fract_y
  _atom_site_fract_z
  _atom_site_occupancy
  Dy  Dy1       1.0  0.75793  0.25135  0.51787  1.0000
  Dy  Dy2       1.0  0.74207  0.74865  0.01787  1.0000
  Dy  Dy3       1.0  0.24207  0.74865  0.48212  1.0000
  Dy  Dy4       1.0  0.25793  0.25135  0.98212  1.0000
  H   H1        1.0  0.61064  0.43628  0.36950  1.0000
  H   H2        1.0  0.88935  0.56372  0.86950  1.0000
  H   H3        1.0  0.38935  0.56372  0.63050  1.0000
  H   H4        1.0  0.11064  0.43628  0.13050  1.0000
  H   H5        1.0  0.66034  0.58398  0.25213  1.0000
  H   H6        1.0  0.83966  0.41602  0.75213  1.0000
  H   H7        1.0  0.33966  0.41602  0.74787  1.0000
  H   H8        1.0  0.16034  0.58398  0.24787  1.0000
  H   H9        1.0  0.31265  0.14108  0.15397  1.0000
  H   H10       1.0  0.18736  0.85892  0.65397  1.0000
  H   H11       1.0  0.68736  0.85892  0.84603  1.0000
  H   H12       1.0  0.81264  0.14108  0.34603  1.0000
  H   H13       1.0  0.25766  0.99480  0.27205  1.0000
  H   H14       1.0  0.24234  0.00519  0.77205  1.0000
  H   H15       1.0  0.74234  0.00519  0.72795  1.0000
  H   H16       1.0  0.75766  0.99480  0.22795  1.0000
  H   H17       1.0  0.51909  0.24916  0.63880  1.0000
  H   H18       1.0  0.98091  0.75084  0.13880  1.0000
  H   H19       1.0  0.48091  0.75084  0.36120  1.0000
  H   H20       1.0  0.01909  0.24916  0.86120  1.0000
  H   H21       1.0  0.38294  0.16117  0.57745  1.0000
  H   H22       1.0  0.11706  0.83883  0.07745  1.0000
  H   H23       1.0  0.61706  0.83883  0.42255  1.0000
  H   H24       1.0  0.88294  0.16117  0.92255  1.0000
  H   H25       1.0  0.77742  0.62050  0.48320  1.0000
  H   H26       1.0  0.72258  0.37950  0.98320  1.0000
  H   H27       1.0  0.22258  0.37950  0.51680  1.0000
  H   H28       1.0  0.27742  0.62050  0.01680  1.0000
  H   H29       1.0  0.60648  0.55111  0.53311  1.0000
  H   H30       1.0  0.89352  0.44889  0.03311  1.0000
  H   H31       1.0  0.39352  0.44889  0.46689  1.0000
  H   H32       1.0  0.10648  0.55111  0.96689  1.0000
  C   C1        1.0  0.43150  0.20655  0.32722  1.0000
  C   C2        1.0  0.06850  0.79345  0.82722  1.0000
  C   C3        1.0  0.56850  0.79345  0.67278  1.0000
  C   C4        1.0  0.93150  0.20655  0.17278  1.0000
  C   C5        1.0  0.54356  0.37341  0.32228  1.0000
  C   C6        1.0  0.95644  0.62659  0.82228  1.0000
  C   C7        1.0  0.45644  0.62660  0.67772  1.0000
  C   C8        1.0  0.04356  0.37341  0.17772  1.0000
  C   C9        1.0  0.57145  0.45530  0.25713  1.0000
  C   C10       1.0  0.92855  0.54470  0.75713  1.0000
  C   C11       1.0  0.42855  0.54470  0.74287  1.0000
  C   C12       1.0  0.07145  0.45530  0.24287  1.0000
  C   C13       1.0  0.48892  0.37109  0.19630  1.0000
  C   C14       1.0  0.01108  0.62891  0.69629  1.0000
  C   C15       1.0  0.51108  0.62891  0.80370  1.0000
  C   C16       1.0  0.98892  0.37109  0.30370  1.0000
  C   C17       1.0  0.37537  0.20500  0.20161  1.0000
  C   C18       1.0  0.12463  0.79500  0.70161  1.0000
  C   C19       1.0  0.62463  0.79500  0.79839  1.0000
  C   C20       1.0  0.87537  0.20500  0.29839  1.0000
  C   C21       1.0  0.34571  0.12374  0.26669  1.0000
  C   C22       1.0  0.15429  0.87626  0.76669  1.0000
  C   C23       1.0  0.65429  0.87626  0.73331  1.0000
  C   C24       1.0  0.84571  0.12374  0.23331  1.0000
  C   C25       1.0  0.41103  0.11052  0.39530  1.0000
  C   C26       1.0  0.08897  0.88949  0.89530  1.0000
  C   C27       1.0  0.58897  0.88948  0.60470  1.0000
  C   C28       1.0  0.91103  0.11052  0.10470  1.0000
  C   C29       1.0  0.52105  0.45746  0.12593  1.0000
  C   C30       1.0  0.97895  0.54253  0.62593  1.0000
  C   C31       1.0  0.47895  0.54253  0.87406  1.0000
  C   C32       1.0  0.02105  0.45747  0.37407  1.0000
  C   C33       1.0  0.07253  0.06059  0.52320  1.0000
  C   C34       1.0  0.42747  0.93941  0.02320  1.0000
  C   C35       1.0  0.92747  0.93941  0.47680  1.0000
  C   C36       1.0  0.57253  0.06059  0.97680  1.0000
  O   O1        1.0  0.51938  0.17165  0.44555  1.0000
  O   O2        1.0  0.98062  0.82836  0.94555  1.0000
  O   O3        1.0  0.48062  0.82835  0.55445  1.0000
  O   O4        1.0  0.01938  0.17165  0.05445  1.0000
  O   O5        1.0  0.28918  0.97049  0.39940  1.0000
  O   O6        1.0  0.21082  0.02952  0.89939  1.0000
  O   O7        1.0  0.71082  0.02952  0.60061  1.0000
  O   O8        1.0  0.78919  0.97048  0.10061  1.0000
  O   O9        1.0  0.64136  0.59894  0.12141  1.0000
  O   O10       1.0  0.85864  0.40106  0.62141  1.0000
  O   O11       1.0  0.35864  0.40105  0.87859  1.0000
  O   O12       1.0  0.14136  0.59894  0.37859  1.0000
  O   O13       1.0  0.42698  0.38566  0.07352  1.0000
  O   O14       1.0  0.07302  0.61434  0.57351  1.0000
  O   O15       1.0  0.57302  0.61434  0.92648  1.0000
  O   O16       1.0  0.92698  0.38566  0.42648  1.0000
  O   O17       1.0  0.05093  0.20580  0.53664  1.0000
  O   O18       1.0  0.44907  0.79420  0.03664  1.0000
  O   O19       1.0  0.94907  0.79420  0.46336  1.0000
  O   O20       1.0  0.55093  0.20580  0.96336  1.0000
  O   O21       1.0  0.20236  0.00589  0.54349  1.0000
  O   O22       1.0  0.29764  0.99411  0.04349  1.0000
  O   O23       1.0  0.79764  0.99411  0.45651  1.0000
  O   O24       1.0  0.70236  0.00589  0.95650  1.0000
  O   O25       1.0  0.49364  0.25418  0.58872  1.0000
  O   O26       1.0  0.00636  0.74583  0.08872  1.0000
  O   O27       1.0  0.50636  0.74583  0.41128  1.0000
  O   O28       1.0  0.99364  0.25417  0.91128  1.0000
  O   O29       1.0  0.68752  0.51656  0.50057  1.0000
  O   O30       1.0  0.81248  0.48344  0.00057  1.0000
  O   O31       1.0  0.31249  0.48344  0.49944  1.0000
  O   O32       1.0  0.18752  0.51656  0.99943  1.0000
