data_image0
_chemical_formula_structural       Tb4H32C36O32
_chemical_formula_sum              "Tb4 H32 C36 O32"
_cell_length_a       7.75795
_cell_length_b       8.18548
_cell_length_c       18.9747
_cell_angle_alpha    90
_cell_angle_beta     90.0001
_cell_angle_gamma    105.983

_space_group_name_H-M_alt    "P 1"
_space_group_IT_number       1

loop_
  _space_group_symop_operation_xyz
  'x, y, z'

loop_
  _atom_site_type_symbol
  _atom_site_label
  _atom_site_symmetry_multiplicity
  _atom_site_fract_x
  _atom_site_fract_y
  _atom_site_fract_z
  _atom_site_occupancy
  Tb  Tb1       1.0  0.75824  0.25151  0.51786  1.0000
  Tb  Tb2       1.0  0.74176  0.74849  0.01787  1.0000
  Tb  Tb3       1.0  0.24176  0.74849  0.48213  1.0000
  Tb  Tb4       1.0  0.25824  0.25151  0.98214  1.0000
  H   H1        1.0  0.60885  0.43628  0.36969  1.0000
  H   H2        1.0  0.89115  0.56372  0.86969  1.0000
  H   H3        1.0  0.39115  0.56373  0.63031  1.0000
  H   H4        1.0  0.10885  0.43628  0.13031  1.0000
  H   H5        1.0  0.65841  0.58421  0.25276  1.0000
  H   H6        1.0  0.84159  0.41579  0.75276  1.0000
  H   H7        1.0  0.34160  0.41579  0.74724  1.0000
  H   H8        1.0  0.15841  0.58421  0.24724  1.0000
  H   H9        1.0  0.31139  0.14292  0.15424  1.0000
  H   H10       1.0  0.18861  0.85708  0.65424  1.0000
  H   H11       1.0  0.68862  0.85708  0.84576  1.0000
  H   H12       1.0  0.81139  0.14292  0.34576  1.0000
  H   H13       1.0  0.25623  0.99650  0.27191  1.0000
  H   H14       1.0  0.24376  0.00351  0.77190  1.0000
  H   H15       1.0  0.74377  0.00351  0.72810  1.0000
  H   H16       1.0  0.75623  0.99650  0.22809  1.0000
  H   H17       1.0  0.51849  0.24726  0.63903  1.0000
  H   H18       1.0  0.98150  0.75274  0.13903  1.0000
  H   H19       1.0  0.48150  0.75274  0.36097  1.0000
  H   H20       1.0  0.01849  0.24726  0.86097  1.0000
  H   H21       1.0  0.38226  0.16012  0.57777  1.0000
  H   H22       1.0  0.11774  0.83988  0.07777  1.0000
  H   H23       1.0  0.61773  0.83988  0.42223  1.0000
  H   H24       1.0  0.88227  0.16012  0.92223  1.0000
  H   H25       1.0  0.77630  0.62096  0.48376  1.0000
  H   H26       1.0  0.72370  0.37903  0.98376  1.0000
  H   H27       1.0  0.22370  0.37904  0.51624  1.0000
  H   H28       1.0  0.27630  0.62096  0.01624  1.0000
  H   H29       1.0  0.60545  0.55104  0.53342  1.0000
  H   H30       1.0  0.89455  0.44896  0.03342  1.0000
  H   H31       1.0  0.39455  0.44896  0.46658  1.0000
  H   H32       1.0  0.10545  0.55104  0.96658  1.0000
  C   C1        1.0  0.42967  0.20720  0.32729  1.0000
  C   C2        1.0  0.07033  0.79280  0.82728  1.0000
  C   C3        1.0  0.57033  0.79280  0.67272  1.0000
  C   C4        1.0  0.92967  0.20720  0.17271  1.0000
  C   C5        1.0  0.54165  0.37370  0.32255  1.0000
  C   C6        1.0  0.95835  0.62630  0.82255  1.0000
  C   C7        1.0  0.45835  0.62630  0.67745  1.0000
  C   C8        1.0  0.04166  0.37370  0.17745  1.0000
  C   C9        1.0  0.56968  0.45578  0.25760  1.0000
  C   C10       1.0  0.93032  0.54422  0.75760  1.0000
  C   C11       1.0  0.43032  0.54422  0.74240  1.0000
  C   C12       1.0  0.06968  0.45578  0.24240  1.0000
  C   C13       1.0  0.48762  0.37223  0.19675  1.0000
  C   C14       1.0  0.01238  0.62777  0.69675  1.0000
  C   C15       1.0  0.51238  0.62777  0.80325  1.0000
  C   C16       1.0  0.98762  0.37223  0.30325  1.0000
  C   C17       1.0  0.37405  0.20656  0.20184  1.0000
  C   C18       1.0  0.12595  0.79344  0.70184  1.0000
  C   C19       1.0  0.62595  0.79344  0.79816  1.0000
  C   C20       1.0  0.87405  0.20656  0.29816  1.0000
  C   C21       1.0  0.34408  0.12515  0.26673  1.0000
  C   C22       1.0  0.15592  0.87485  0.76673  1.0000
  C   C23       1.0  0.65593  0.87485  0.73327  1.0000
  C   C24       1.0  0.84408  0.12515  0.23327  1.0000
  C   C25       1.0  0.40943  0.11094  0.39517  1.0000
  C   C26       1.0  0.09057  0.88907  0.89517  1.0000
  C   C27       1.0  0.59057  0.88907  0.60483  1.0000
  C   C28       1.0  0.90944  0.11094  0.10483  1.0000
  C   C29       1.0  0.52063  0.45877  0.12656  1.0000
  C   C30       1.0  0.97937  0.54122  0.62656  1.0000
  C   C31       1.0  0.47937  0.54122  0.87344  1.0000
  C   C32       1.0  0.02063  0.45878  0.37344  1.0000
  C   C33       1.0  0.07282  0.06056  0.52300  1.0000
  C   C34       1.0  0.42716  0.93944  0.02300  1.0000
  C   C35       1.0  0.92716  0.93944  0.47700  1.0000
  C   C36       1.0  0.57282  0.06056  0.97700  1.0000
  O   O1        1.0  0.51793  0.17175  0.44531  1.0000
  O   O2        1.0  0.98206  0.82825  0.94531  1.0000
  O   O3        1.0  0.48207  0.82825  0.55469  1.0000
  O   O4        1.0  0.01794  0.17175  0.05469  1.0000
  O   O5        1.0  0.28776  0.97117  0.39913  1.0000
  O   O6        1.0  0.21224  0.02883  0.89913  1.0000
  O   O7        1.0  0.71224  0.02883  0.60087  1.0000
  O   O8        1.0  0.78776  0.97117  0.10087  1.0000
  O   O9        1.0  0.64096  0.59988  0.12236  1.0000
  O   O10       1.0  0.85905  0.40012  0.62236  1.0000
  O   O11       1.0  0.35905  0.40012  0.87764  1.0000
  O   O12       1.0  0.14096  0.59989  0.37764  1.0000
  O   O13       1.0  0.42720  0.38756  0.07400  1.0000
  O   O14       1.0  0.07280  0.61244  0.57399  1.0000
  O   O15       1.0  0.57280  0.61245  0.92601  1.0000
  O   O16       1.0  0.92720  0.38756  0.42600  1.0000
  O   O17       1.0  0.05229  0.20589  0.53592  1.0000
  O   O18       1.0  0.44771  0.79410  0.03592  1.0000
  O   O19       1.0  0.94770  0.79411  0.46407  1.0000
  O   O20       1.0  0.55229  0.20589  0.96408  1.0000
  O   O21       1.0  0.20170  0.00560  0.54367  1.0000
  O   O22       1.0  0.29830  0.99439  0.04367  1.0000
  O   O23       1.0  0.79829  0.99439  0.45633  1.0000
  O   O24       1.0  0.70170  0.00560  0.95633  1.0000
  O   O25       1.0  0.49289  0.25278  0.58908  1.0000
  O   O26       1.0  0.00711  0.74722  0.08908  1.0000
  O   O27       1.0  0.50711  0.74722  0.41092  1.0000
  O   O28       1.0  0.99289  0.25278  0.91092  1.0000
  O   O29       1.0  0.68691  0.51697  0.50110  1.0000
  O   O30       1.0  0.81309  0.48303  0.00110  1.0000
  O   O31       1.0  0.31308  0.48303  0.49890  1.0000
  O   O32       1.0  0.18692  0.51697  0.99890  1.0000
