data_image0
_chemical_formula_structural       Ba2H20C28S2O16
_chemical_formula_sum              "Ba2 H20 C28 S2 O16"
_cell_length_a       7.73364
_cell_length_b       8.9197
_cell_length_c       11.2706
_cell_angle_alpha    87.2167
_cell_angle_beta     81.4362
_cell_angle_gamma    73.3145

_space_group_name_H-M_alt    "P 1"
_space_group_IT_number       1

loop_
  _space_group_symop_operation_xyz
  'x, y, z'

loop_
  _atom_site_type_symbol
  _atom_site_label
  _atom_site_symmetry_multiplicity
  _atom_site_fract_x
  _atom_site_fract_y
  _atom_site_fract_z
  _atom_site_occupancy
  Ba  Ba1       1.0  0.28874  0.39936  0.43915  1.0000
  Ba  Ba2       1.0  0.71127  0.60064  0.56085  1.0000
  H   H1        1.0  0.70950  0.04083  0.43077  1.0000
  H   H2        1.0  0.29050  0.95917  0.56923  1.0000
  H   H3        1.0  0.61868  0.18952  0.51743  1.0000
  H   H4        1.0  0.38132  0.81048  0.48256  1.0000
  H   H5        1.0  0.23212  0.71722  0.60609  1.0000
  H   H6        1.0  0.76788  0.28278  0.39391  1.0000
  H   H7        1.0  0.13862  0.61091  0.69343  1.0000
  H   H8        1.0  0.86139  0.38909  0.30657  1.0000
  H   H9        1.0  0.31923  0.43663  0.94978  1.0000
  H   H10       1.0  0.68077  0.56337  0.05022  1.0000
  H   H11       1.0  0.38772  0.89463  0.81130  1.0000
  H   H12       1.0  0.61228  0.10538  0.18869  1.0000
  H   H13       1.0  0.50112  0.08274  0.67678  1.0000
  H   H14       1.0  0.49889  0.91726  0.32322  1.0000
  H   H15       1.0  0.99097  0.06406  0.34113  1.0000
  H   H16       1.0  0.00903  0.93594  0.65887  1.0000
  H   H17       1.0  0.11410  0.62919  0.15202  1.0000
  H   H18       1.0  0.88591  0.37080  0.84798  1.0000
  H   H19       1.0  0.25979  0.74149  0.97083  1.0000
  H   H20       1.0  0.74020  0.25850  0.02917  1.0000
  C   C1        1.0  0.48894  0.38581  0.72356  1.0000
  C   C2        1.0  0.51105  0.61419  0.27644  1.0000
  C   C3        1.0  0.41757  0.27109  0.80448  1.0000
  C   C4        1.0  0.58242  0.72891  0.19552  1.0000
  C   C5        1.0  0.33236  0.31872  0.92085  1.0000
  C   C6        1.0  0.66764  0.68128  0.07915  1.0000
  C   C7        1.0  0.26769  0.21193  0.99383  1.0000
  C   C8        1.0  0.73231  0.78807  0.00617  1.0000
  C   C9        1.0  0.28412  0.05869  0.95831  1.0000
  C   C10       1.0  0.71588  0.94131  0.04169  1.0000
  C   C11       1.0  0.37028  0.01226  0.84278  1.0000
  C   C12       1.0  0.62973  0.98774  0.15722  1.0000
  C   C13       1.0  0.43523  0.11900  0.76715  1.0000
  C   C14       1.0  0.56478  0.88101  0.23285  1.0000
  C   C15       1.0  0.20467  0.96840  0.05265  1.0000
  C   C16       1.0  0.79533  0.03160  0.94735  1.0000
  C   C17       1.0  0.12634  0.05488  0.15807  1.0000
  C   C18       1.0  0.87365  0.94512  0.84192  1.0000
  C   C19       1.0  0.04662  0.99441  0.26023  1.0000
  C   C20       1.0  0.95337  0.00559  0.73977  1.0000
  C   C21       1.0  0.04201  0.83863  0.25654  1.0000
  C   C22       1.0  0.95798  0.16137  0.74346  1.0000
  C   C23       1.0  0.95096  0.76716  0.36245  1.0000
  C   C24       1.0  0.04903  0.23284  0.63756  1.0000
  C   C25       1.0  0.11963  0.74981  0.15231  1.0000
  C   C26       1.0  0.88037  0.25019  0.84770  1.0000
  C   C27       1.0  0.20081  0.81286  0.05062  1.0000
  C   C28       1.0  0.79919  0.18713  0.94938  1.0000
  S   S1        1.0  0.15067  0.24640  0.14131  1.0000
  S   S2        1.0  0.84933  0.75359  0.85869  1.0000
  O   O1        1.0  0.53570  0.35193  0.61083  1.0000
  O   O2        1.0  0.46430  0.64807  0.38917  1.0000
  O   O3        1.0  0.63495  0.15361  0.43346  1.0000
  O   O4        1.0  0.36505  0.84640  0.56654  1.0000
  O   O5        1.0  0.49965  0.50902  0.76783  1.0000
  O   O6        1.0  0.50034  0.49099  0.23217  1.0000
  O   O7        1.0  0.16158  0.63947  0.60874  1.0000
  O   O8        1.0  0.83842  0.36053  0.39126  1.0000
  O   O9        1.0  0.97644  0.36590  0.14115  1.0000
  O   O10       1.0  0.02356  0.63410  0.85885  1.0000
  O   O11       1.0  0.26804  0.26931  0.22442  1.0000
  O   O12       1.0  0.73196  0.73068  0.77558  1.0000
  O   O13       1.0  0.82898  0.85568  0.43755  1.0000
  O   O14       1.0  0.17102  0.14432  0.56245  1.0000
  O   O15       1.0  0.99766  0.61853  0.37126  1.0000
  O   O16       1.0  0.00234  0.38147  0.62875  1.0000
