data_image0
_chemical_formula_structural       V4H8C8N4O4F8
_chemical_formula_sum              "V4 H8 C8 N4 O4 F8"
_cell_length_a       4.95791
_cell_length_b       7.24392
_cell_length_c       10.9028
_cell_angle_alpha    90
_cell_angle_beta     90
_cell_angle_gamma    95.7769

_space_group_name_H-M_alt    "P 1"
_space_group_IT_number       1

loop_
  _space_group_symop_operation_xyz
  'x, y, z'

loop_
  _atom_site_type_symbol
  _atom_site_label
  _atom_site_symmetry_multiplicity
  _atom_site_fract_x
  _atom_site_fract_y
  _atom_site_fract_z
  _atom_site_occupancy
  V   V1        1.0  0.22005  0.90587  0.93028  1.0000
  V   V2        1.0  0.77995  0.59413  0.43029  1.0000
  V   V3        1.0  0.77996  0.09413  0.06971  1.0000
  V   V4        1.0  0.22004  0.40586  0.56972  1.0000
  H   H1        1.0  0.56519  0.64563  0.79959  1.0000
  H   H2        1.0  0.43481  0.85437  0.29960  1.0000
  H   H3        1.0  0.43481  0.35437  0.20040  1.0000
  H   H4        1.0  0.56519  0.14563  0.70040  1.0000
  H   H5        1.0  0.20594  0.63581  0.14713  1.0000
  H   H6        1.0  0.79406  0.86419  0.64714  1.0000
  H   H7        1.0  0.79406  0.36419  0.85286  1.0000
  H   H8        1.0  0.20593  0.13581  0.35287  1.0000
  C   C1        1.0  0.53518  0.58053  0.88893  1.0000
  C   C2        1.0  0.46481  0.91947  0.38893  1.0000
  C   C3        1.0  0.46482  0.41947  0.11106  1.0000
  C   C4        1.0  0.53518  0.08053  0.61107  1.0000
  C   C5        1.0  0.33929  0.57611  0.08186  1.0000
  C   C6        1.0  0.66071  0.92389  0.58187  1.0000
  C   C7        1.0  0.66072  0.42389  0.91813  1.0000
  C   C8        1.0  0.33929  0.07611  0.41813  1.0000
  N   N1        1.0  0.37484  0.65696  0.97061  1.0000
  N   N2        1.0  0.62516  0.84304  0.47062  1.0000
  N   N3        1.0  0.62516  0.34304  0.02939  1.0000
  N   N4        1.0  0.37484  0.15696  0.52939  1.0000
  O   O1        1.0  0.11144  0.84569  0.79672  1.0000
  O   O2        1.0  0.88856  0.65432  0.29673  1.0000
  O   O3        1.0  0.88856  0.15431  0.20327  1.0000
  O   O4        1.0  0.11143  0.34569  0.70328  1.0000
  F   F1        1.0  0.91333  0.84513  0.04178  1.0000
  F   F2        1.0  0.08667  0.65487  0.54178  1.0000
  F   F3        1.0  0.08668  0.15487  0.95821  1.0000
  F   F4        1.0  0.91333  0.34513  0.45822  1.0000
  F   F5        1.0  0.42396  0.97877  0.10872  1.0000
  F   F6        1.0  0.57604  0.52123  0.60872  1.0000
  F   F7        1.0  0.57605  0.02123  0.89128  1.0000
  F   F8        1.0  0.42396  0.47877  0.39128  1.0000
