data_image0
_chemical_formula_structural       Zn2H50C40S2N4Cl2O12
_chemical_formula_sum              "Zn2 H50 C40 S2 N4 Cl2 O12"
_cell_length_a       9.69421
_cell_length_b       11.3953
_cell_length_c       11.5328
_cell_angle_alpha    95.8977
_cell_angle_beta     90.0032
_cell_angle_gamma    115.19

_space_group_name_H-M_alt    "P 1"
_space_group_IT_number       1

loop_
  _space_group_symop_operation_xyz
  'x, y, z'

loop_
  _atom_site_type_symbol
  _atom_site_label
  _atom_site_symmetry_multiplicity
  _atom_site_fract_x
  _atom_site_fract_y
  _atom_site_fract_z
  _atom_site_occupancy
  Zn  Zn1       1.0  0.30455  0.44161  0.65026  1.0000
  Zn  Zn2       1.0  0.86307  0.55848  0.34964  1.0000
  H   H1        1.0  0.31465  0.00833  0.65799  1.0000
  H   H2        1.0  0.30642  0.99193  0.34192  1.0000
  H   H3        1.0  0.40915  0.24819  0.65585  1.0000
  H   H4        1.0  0.16114  0.75205  0.34390  1.0000
  H   H5        1.0  0.98823  0.33689  0.63757  1.0000
  H   H6        1.0  0.65141  0.66294  0.36215  1.0000
  H   H7        1.0  0.70812  0.20900  0.63668  1.0000
  H   H8        1.0  0.49895  0.79056  0.36320  1.0000
  H   H9        1.0  0.76400  0.85497  0.65005  1.0000
  H   H10       1.0  0.90882  0.14494  0.35014  1.0000
  H   H11       1.0  0.52256  0.77097  0.58559  1.0000
  H   H12       1.0  0.75142  0.22883  0.41439  1.0000
  H   H13       1.0  0.37400  0.79814  0.65899  1.0000
  H   H14       1.0  0.57556  0.20151  0.34105  1.0000
  H   H15       1.0  0.53661  0.80761  0.74124  1.0000
  H   H16       1.0  0.72868  0.19205  0.25876  1.0000
  H   H17       1.0  0.92232  0.77688  0.59878  1.0000
  H   H18       1.0  0.14559  0.22330  0.40134  1.0000
  H   H19       1.0  0.09466  0.71077  0.57047  1.0000
  H   H20       1.0  0.38410  0.28942  0.42959  1.0000
  H   H21       1.0  0.88406  0.83241  0.80607  1.0000
  H   H22       1.0  0.05167  0.16756  0.19407  1.0000
  H   H23       1.0  0.20119  0.84951  0.84380  1.0000
  H   H24       1.0  0.35166  0.15046  0.15635  1.0000
  H   H25       1.0  0.10648  0.93347  0.92288  1.0000
  H   H26       1.0  0.17295  0.06655  0.07724  1.0000
  H   H27       1.0  0.11784  0.77437  0.04817  1.0000
  H   H28       1.0  0.34359  0.22555  0.95194  1.0000
  H   H29       1.0  0.85119  0.62796  0.06391  1.0000
  H   H30       1.0  0.22343  0.37193  0.93608  1.0000
  H   H31       1.0  0.72144  0.51641  0.89061  1.0000
  H   H32       1.0  0.20521  0.48354  0.10933  1.0000
  H   H33       1.0  0.68486  0.65182  0.86914  1.0000
  H   H34       1.0  0.03310  0.34812  0.13074  1.0000
  H   H35       1.0  0.80147  0.61316  0.70798  1.0000
  H   H36       1.0  0.18834  0.38687  0.29199  1.0000
  H   H37       1.0  0.89156  0.46875  0.77588  1.0000
  H   H38       1.0  0.42301  0.53128  0.22421  1.0000
  H   H39       1.0  0.04755  0.59540  0.71788  1.0000
  H   H40       1.0  0.45226  0.40458  0.28213  1.0000
  H   H41       1.0  0.17726  0.63267  0.89779  1.0000
  H   H42       1.0  0.54484  0.36761  0.10223  1.0000
  H   H43       1.0  0.00992  0.53462  0.96641  1.0000
  H   H44       1.0  0.47523  0.46542  0.03358  1.0000
  H   H45       1.0  0.93903  0.87521  0.11782  1.0000
  H   H46       1.0  0.06390  0.12460  0.88234  1.0000
  H   H47       1.0  0.63640  0.77890  0.97184  1.0000
  H   H48       1.0  0.85760  0.22115  0.02799  1.0000
  H   H49       1.0  0.72514  0.92269  0.08313  1.0000
  H   H50       1.0  0.80250  0.07728  0.91678  1.0000
  C   C1        1.0  0.07834  0.97308  0.65836  1.0000
  C   C2        1.0  0.10531  0.02707  0.34176  1.0000
  C   C3        1.0  0.23339  0.05108  0.65883  1.0000
  C   C4        1.0  0.18240  0.94912  0.34112  1.0000
  C   C5        1.0  0.28697  0.18588  0.65639  1.0000
  C   C6        1.0  0.10121  0.81430  0.34343  1.0000
  C   C7        1.0  0.03878  0.17083  0.65016  1.0000
  C   C8        1.0  0.86800  0.82920  0.34980  1.0000
  C   C9        1.0  0.93945  0.23228  0.64363  1.0000
  C   C10       1.0  0.70718  0.76758  0.35626  1.0000
  C   C11       1.0  0.78419  0.16145  0.64292  1.0000
  C   C12       1.0  0.62260  0.83827  0.35707  1.0000
  C   C13       1.0  0.72044  0.02439  0.64800  1.0000
  C   C14       1.0  0.69583  0.97538  0.35210  1.0000
  C   C15       1.0  0.81430  0.96062  0.65215  1.0000
  C   C16       1.0  0.85351  0.03929  0.34805  1.0000
  C   C17       1.0  0.97514  0.03225  0.65406  1.0000
  C   C18       1.0  0.94288  0.96781  0.34605  1.0000
  C   C19       1.0  0.49670  0.82656  0.65901  1.0000
  C   C20       1.0  0.66987  0.17314  0.34102  1.0000
  C   C21       1.0  0.02161  0.82731  0.66083  1.0000
  C   C22       1.0  0.19440  0.17283  0.33930  1.0000
  C   C23       1.0  0.96630  0.79174  0.78372  1.0000
  C   C24       1.0  0.17461  0.20831  0.21638  1.0000
  C   C25       1.0  0.09215  0.83793  0.88072  1.0000
  C   C26       1.0  0.25424  0.16209  0.11940  1.0000
  C   C27       1.0  0.04460  0.73560  0.96779  1.0000
  C   C28       1.0  0.30913  0.26438  0.03229  1.0000
  C   C29       1.0  0.87618  0.69693  0.99789  1.0000
  C   C30       1.0  0.17943  0.30301  0.00212  1.0000
  C   C31       1.0  0.77555  0.62230  0.88744  1.0000
  C   C32       1.0  0.15335  0.37765  0.11250  1.0000
  C   C33       1.0  0.97079  0.57249  0.78995  1.0000
  C   C34       1.0  0.39842  0.42754  0.21010  1.0000
  C   C35       1.0  0.05749  0.61326  0.91000  1.0000
  C   C36       1.0  0.44435  0.38683  0.09003  1.0000
  C   C37       1.0  0.85029  0.81109  0.05219  1.0000
  C   C38       1.0  0.03932  0.18883  0.94785  1.0000
  C   C39       1.0  0.73166  0.83851  0.03390  1.0000
  C   C40       1.0  0.89325  0.16148  0.96601  1.0000
  S   S1        1.0  0.61856  0.47788  0.54231  1.0000
  S   S2        1.0  0.14078  0.52238  0.45758  1.0000
  N   N1        1.0  0.19357  0.24433  0.65204  1.0000
  N   N2        1.0  0.94933  0.75577  0.34779  1.0000
  N   N3        1.0  0.87377  0.64561  0.78380  1.0000
  N   N4        1.0  0.22822  0.35440  0.21621  1.0000
  Cl  Cl1       1.0  0.39497  0.55168  0.82391  1.0000
  Cl  Cl2       1.0  0.84328  0.44819  0.17611  1.0000
  O   O1        1.0  0.56620  0.96441  0.64752  1.0000
  O   O2        1.0  0.60154  0.03529  0.35258  1.0000
  O   O3        1.0  0.13861  0.78868  0.62920  1.0000
  O   O4        1.0  0.35009  0.21145  0.37092  1.0000
  O   O5        1.0  0.44600  0.43135  0.52641  1.0000
  O   O6        1.0  0.01478  0.56891  0.47358  1.0000
  O   O7        1.0  0.65305  0.39386  0.61364  1.0000
  O   O8        1.0  0.25933  0.60646  0.38628  1.0000
  O   O9        1.0  0.66486  0.46598  0.41835  1.0000
  O   O10       1.0  0.19907  0.53418  0.58151  1.0000
  O   O11       1.0  0.68875  0.61588  0.59397  1.0000
  O   O12       1.0  0.07285  0.38440  0.40587  1.0000
