data_image0
_chemical_formula_structural       Cd2H42C44S2N6O12
_chemical_formula_sum              "Cd2 H42 C44 S2 N6 O12"
_cell_length_a       4.95751
_cell_length_b       12.4594
_cell_length_c       18.3155
_cell_angle_alpha    93.0791
_cell_angle_beta     90.0039
_cell_angle_gamma    101.448

_space_group_name_H-M_alt    "P 1"
_space_group_IT_number       1

loop_
  _space_group_symop_operation_xyz
  'x, y, z'

loop_
  _atom_site_type_symbol
  _atom_site_label
  _atom_site_symmetry_multiplicity
  _atom_site_fract_x
  _atom_site_fract_y
  _atom_site_fract_z
  _atom_site_occupancy
  Cd  Cd1       1.0  0.87560  0.75384  0.65115  1.0000
  Cd  Cd2       1.0  0.12197  0.24605  0.34882  1.0000
  H   H1        1.0  0.00416  0.41486  0.73375  1.0000
  H   H2        1.0  0.58901  0.58522  0.26622  1.0000
  H   H3        1.0  0.56336  0.50590  0.67830  1.0000
  H   H4        1.0  0.05723  0.49395  0.32159  1.0000
  H   H5        1.0  0.35897  0.51803  0.55657  1.0000
  H   H6        1.0  0.84104  0.48189  0.44335  1.0000
  H   H7        1.0  0.03494  0.44724  0.58493  1.0000
  H   H8        1.0  0.58763  0.55270  0.41501  1.0000
  H   H9        1.0  0.25270  0.28209  0.60752  1.0000
  H   H10       1.0  0.97043  0.71777  0.39231  1.0000
  H   H11       1.0  0.56809  0.35558  0.57525  1.0000
  H   H12       1.0  0.21226  0.64427  0.42470  1.0000
  H   H13       1.0  0.04692  0.44470  0.91507  1.0000
  H   H14       1.0  0.60268  0.55560  0.08472  1.0000
  H   H15       1.0  0.12850  0.59710  0.01005  1.0000
  H   H16       1.0  0.53208  0.40301  0.98987  1.0000
  H   H17       1.0  0.88089  0.73933  0.90430  1.0000
  H   H18       1.0  0.14169  0.26067  0.09596  1.0000
  H   H19       1.0  0.80139  0.58663  0.80933  1.0000
  H   H20       1.0  0.21501  0.41365  0.19074  1.0000
  H   H21       1.0  0.39728  0.76192  0.06266  1.0000
  H   H22       1.0  0.63514  0.23791  0.93763  1.0000
  H   H23       1.0  0.62406  0.84880  0.00481  1.0000
  H   H24       1.0  0.77515  0.15111  0.99555  1.0000
  H   H25       1.0  0.74923  0.75557  0.05893  1.0000
  H   H26       1.0  0.99333  0.24401  0.94123  1.0000
  H   H27       1.0  0.27414  0.74766  0.79205  1.0000
  H   H28       1.0  0.52647  0.25231  0.20814  1.0000
  H   H29       1.0  0.50907  0.86784  0.89615  1.0000
  H   H30       1.0  0.64229  0.13224  0.10410  1.0000
  H   H31       1.0  0.42800  0.06191  0.91184  1.0000
  H   H32       1.0  0.36724  0.93826  0.08811  1.0000
  H   H33       1.0  0.12993  0.12600  0.82247  1.0000
  H   H34       1.0  0.00449  0.87407  0.17729  1.0000
  H   H35       1.0  0.89429  0.17212  0.74769  1.0000
  H   H36       1.0  0.72230  0.82784  0.25217  1.0000
  H   H37       1.0  0.58732  0.21771  0.65374  1.0000
  H   H38       1.0  0.37005  0.78230  0.34619  1.0000
  H   H39       1.0  0.37730  0.07421  0.55749  1.0000
  H   H40       1.0  0.30416  0.92573  0.44258  1.0000
  H   H41       1.0  0.49103  0.88581  0.56165  1.0000
  H   H42       1.0  0.60656  0.11401  0.43851  1.0000
  C   C1        1.0  0.24817  0.60416  0.68559  1.0000
  C   C2        1.0  0.64402  0.39573  0.31436  1.0000
  C   C3        1.0  0.33915  0.49445  0.67165  1.0000
  C   C4        1.0  0.84449  0.50544  0.32827  1.0000
  C   C5        1.0  0.25815  0.45438  0.59220  1.0000
  C   C6        1.0  0.80371  0.54554  0.40772  1.0000
  C   C7        1.0  0.34255  0.34615  0.57065  1.0000
  C   C8        1.0  0.99615  0.65376  0.42923  1.0000
  C   C9        1.0  0.26432  0.30330  0.49271  1.0000
  C   C10       1.0  0.96074  0.69676  0.50715  1.0000
  C   C11       1.0  0.42139  0.50555  0.85766  1.0000
  C   C12       1.0  0.91635  0.49479  0.14223  1.0000
  C   C13       1.0  0.22898  0.50958  0.91297  1.0000
  C   C14       1.0  0.71995  0.49072  0.08688  1.0000
  C   C15       1.0  0.27624  0.59569  0.96609  1.0000
  C   C16       1.0  0.68125  0.40451  0.03384  1.0000
  C   C17       1.0  0.51281  0.67857  0.96478  1.0000
  C   C18       1.0  0.83470  0.32150  0.03531  1.0000
  C   C19       1.0  0.69642  0.67514  0.90676  1.0000
  C   C20       1.0  0.02165  0.32498  0.09337  1.0000
  C   C21       1.0  0.65375  0.58946  0.85324  1.0000
  C   C22       1.0  0.06475  0.41082  0.14678  1.0000
  C   C23       1.0  0.57266  0.76603  0.02562  1.0000
  C   C24       1.0  0.80657  0.23380  0.97461  1.0000
  C   C25       1.0  0.24611  0.83175  0.80125  1.0000
  C   C26       1.0  0.41461  0.16821  0.19886  1.0000
  C   C27       1.0  0.37545  0.89926  0.85924  1.0000
  C   C28       1.0  0.47695  0.10076  0.14089  1.0000
  C   C29       1.0  0.33006  0.00607  0.86745  1.0000
  C   C30       1.0  0.32486  0.99401  0.13255  1.0000
  C   C31       1.0  0.16076  0.04194  0.81757  1.0000
  C   C32       1.0  0.11937  0.95809  0.18231  1.0000
  C   C33       1.0  0.03874  0.96954  0.76010  1.0000
  C   C34       1.0  0.06952  0.03038  0.23984  1.0000
  C   C35       1.0  0.85887  0.00349  0.70449  1.0000
  C   C36       1.0  0.85577  0.99639  0.29545  1.0000
  C   C37       1.0  0.80405  0.10963  0.70611  1.0000
  C   C38       1.0  0.69474  0.89031  0.29381  1.0000
  C   C39       1.0  0.63081  0.13545  0.65281  1.0000
  C   C40       1.0  0.49599  0.86451  0.34717  1.0000
  C   C41       1.0  0.51412  0.05559  0.59962  1.0000
  C   C42       1.0  0.45951  0.94431  0.40045  1.0000
  C   C43       1.0  0.57980  0.95179  0.60132  1.0000
  C   C44       1.0  0.62908  0.04803  0.39880  1.0000
  S   S1        1.0  0.37237  0.38930  0.79471  1.0000
  S   S2        1.0  0.98273  0.61090  0.20528  1.0000
  N   N1        1.0  0.20693  0.41271  0.72254  1.0000
  N   N2        1.0  0.79388  0.58720  0.27739  1.0000
  N   N3        1.0  0.08217  0.86593  0.75316  1.0000
  N   N4        1.0  0.21636  0.13396  0.24687  1.0000
  N   N5        1.0  0.74825  0.92698  0.65224  1.0000
  N   N6        1.0  0.82197  0.07283  0.34781  1.0000
  O   O1        1.0  0.19287  0.30158  0.83037  1.0000
  O   O2        1.0  0.89026  0.69861  0.16974  1.0000
  O   O3        1.0  0.64194  0.37385  0.77151  1.0000
  O   O4        1.0  0.26775  0.62649  0.22849  1.0000
  O   O5        1.0  0.00387  0.60076  0.70846  1.0000
  O   O6        1.0  0.40312  0.39912  0.29146  1.0000
  O   O7        1.0  0.40633  0.69285  0.66964  1.0000
  O   O8        1.0  0.71362  0.30704  0.33034  1.0000
  O   O9        1.0  0.27508  0.20450  0.47349  1.0000
  O   O10       1.0  0.06967  0.79561  0.52630  1.0000
  O   O11       1.0  0.19253  0.36874  0.44848  1.0000
  O   O12       1.0  0.82398  0.63131  0.55144  1.0000
