data_image0
_chemical_formula_structural       Cu2H16C8N4O4F4
_chemical_formula_sum              "Cu2 H16 C8 N4 O4 F4"
_cell_length_a       6.66525
_cell_length_b       8.27823
_cell_length_c       6.80605
_cell_angle_alpha    90.0019
_cell_angle_beta     114.275
_cell_angle_gamma    89.9992

_space_group_name_H-M_alt    "P 1"
_space_group_IT_number       1

loop_
  _space_group_symop_operation_xyz
  'x, y, z'

loop_
  _atom_site_type_symbol
  _atom_site_label
  _atom_site_symmetry_multiplicity
  _atom_site_fract_x
  _atom_site_fract_y
  _atom_site_fract_z
  _atom_site_occupancy
  Cu  Cu1       1.0  1.00000  1.00000  1.00000  1.0000
  Cu  Cu2       1.0  0.50000  0.50000  0.00000  1.0000
  H   H1        1.0  0.40196  0.08725  0.11464  1.0000
  H   H2        1.0  0.09803  0.58725  0.88537  1.0000
  H   H3        1.0  0.59804  0.91275  0.88536  1.0000
  H   H4        1.0  0.90196  0.41276  0.11463  1.0000
  H   H5        1.0  0.37711  0.89766  0.06211  1.0000
  H   H6        1.0  0.12289  0.39766  0.93789  1.0000
  H   H7        1.0  0.62289  0.10234  0.93789  1.0000
  H   H8        1.0  0.87710  0.60234  0.06211  1.0000
  H   H9        1.0  0.75581  0.81685  0.22566  1.0000
  H   H10       1.0  0.74417  0.31684  0.77431  1.0000
  H   H11       1.0  0.24417  0.18313  0.77431  1.0000
  H   H12       1.0  0.25584  0.68316  0.22570  1.0000
  H   H13       1.0  0.24081  0.17134  0.40219  1.0000
  H   H14       1.0  0.25920  0.67135  0.59783  1.0000
  H   H15       1.0  0.75918  0.82865  0.59780  1.0000
  H   H16       1.0  0.74083  0.32866  0.40219  1.0000
  C   C1        1.0  0.86722  0.89768  0.34878  1.0000
  C   C2        1.0  0.63277  0.39766  0.65121  1.0000
  C   C3        1.0  0.13278  0.10232  0.65122  1.0000
  C   C4        1.0  0.36725  0.60233  0.34879  1.0000
  C   C5        1.0  0.13393  0.09453  0.44667  1.0000
  C   C6        1.0  0.36607  0.59452  0.55335  1.0000
  C   C7        1.0  0.86607  0.90547  0.55334  1.0000
  C   C8        1.0  0.63394  0.40548  0.44666  1.0000
  N   N1        1.0  0.00129  0.99246  0.29725  1.0000
  N   N2        1.0  0.49871  0.49245  0.70275  1.0000
  N   N3        1.0  0.99873  0.00754  0.70272  1.0000
  N   N4        1.0  0.50129  0.50756  0.29727  1.0000
  O   O1        1.0  0.32991  0.98571  0.14001  1.0000
  O   O2        1.0  0.17009  0.48570  0.86000  1.0000
  O   O3        1.0  0.67009  0.01430  0.85999  1.0000
  O   O4        1.0  0.82991  0.51428  0.14001  1.0000
  F   F1        1.0  0.03307  0.28340  0.05264  1.0000
  F   F2        1.0  0.46693  0.78340  0.94735  1.0000
  F   F3        1.0  0.96691  0.71660  0.94735  1.0000
  F   F4        1.0  0.53307  0.21660  0.05265  1.0000
