data_image0
_chemical_formula_structural       Mn2Cu2H32C14N4O22
_chemical_formula_sum              "Mn2 Cu2 H32 C14 N4 O22"
_cell_length_a       7.4606
_cell_length_b       8.59408
_cell_length_c       12.934
_cell_angle_alpha    70.2067
_cell_angle_beta     85.7664
_cell_angle_gamma    69.0263

_space_group_name_H-M_alt    "P 1"
_space_group_IT_number       1

loop_
  _space_group_symop_operation_xyz
  'x, y, z'

loop_
  _atom_site_type_symbol
  _atom_site_label
  _atom_site_symmetry_multiplicity
  _atom_site_fract_x
  _atom_site_fract_y
  _atom_site_fract_z
  _atom_site_occupancy
  Mn  Mn1       1.0  0.35957  0.24780  0.62011  1.0000
  Mn  Mn2       1.0  0.64053  0.75227  0.37996  1.0000
  Cu  Cu1       1.0  0.87757  0.22220  0.12126  1.0000
  Cu  Cu2       1.0  0.12253  0.77781  0.87864  1.0000
  H   H1        1.0  0.58238  0.18761  0.25088  1.0000
  H   H2        1.0  0.41759  0.81253  0.74897  1.0000
  H   H3        1.0  0.49164  0.39231  0.18569  1.0000
  H   H4        1.0  0.50830  0.60784  0.81425  1.0000
  H   H5        1.0  0.98053  0.92493  0.27653  1.0000
  H   H6        1.0  0.01941  0.07527  0.72329  1.0000
  H   H7        1.0  0.16413  0.98297  0.22837  1.0000
  H   H8        1.0  0.83588  0.01726  0.77157  1.0000
  H   H9        1.0  0.82021  0.53296  0.10776  1.0000
  H   H10       1.0  0.17972  0.46688  0.89234  1.0000
  H   H11       1.0  0.05380  0.43838  0.10857  1.0000
  H   H12       1.0  0.94614  0.56152  0.89144  1.0000
  H   H13       1.0  0.13545  0.95771  0.41617  1.0000
  H   H14       1.0  0.86415  0.04219  0.58369  1.0000
  H   H15       1.0  0.89239  0.10376  0.38623  1.0000
  H   H16       1.0  0.10723  0.89634  0.61359  1.0000
  H   H17       1.0  0.23656  0.21026  0.28808  1.0000
  H   H18       1.0  0.76337  0.78954  0.71204  1.0000
  H   H19       1.0  0.13025  0.24140  0.40894  1.0000
  H   H20       1.0  0.86950  0.75847  0.59116  1.0000
  H   H21       1.0  0.80905  0.42156  0.29755  1.0000
  H   H22       1.0  0.19095  0.57852  0.70246  1.0000
  H   H23       1.0  0.98943  0.51808  0.26573  1.0000
  H   H24       1.0  0.01084  0.48176  0.73417  1.0000
  H   H25       1.0  0.66286  0.36100  0.59184  1.0000
  H   H26       1.0  0.33719  0.63905  0.40823  1.0000
  H   H27       1.0  0.61237  0.33023  0.71864  1.0000
  H   H28       1.0  0.38750  0.66977  0.28136  1.0000
  H   H29       1.0  0.47038  0.13562  0.84144  1.0000
  H   H30       1.0  0.52959  0.86426  0.15854  1.0000
  H   H31       1.0  0.27300  0.10559  0.84610  1.0000
  H   H32       1.0  0.72692  0.89430  0.15402  1.0000
  C   C1        1.0  0.74616  0.11542  0.97004  1.0000
  C   C2        1.0  0.25404  0.88459  0.03000  1.0000
  C   C3        1.0  0.72973  0.31101  0.91201  1.0000
  C   C4        1.0  0.27015  0.68908  0.08804  1.0000
  C   C5        1.0  0.03651  0.07449  0.35375  1.0000
  C   C6        1.0  0.96322  0.92558  0.64618  1.0000
  C   C7        1.0  0.10012  0.23214  0.32985  1.0000
  C   C8        1.0  0.89979  0.76775  0.67022  1.0000
  C   C9        1.0  0.95081  0.40742  0.26300  1.0000
  C   C10       1.0  0.04922  0.59249  0.73700  1.0000
  C   C11       1.0  0.53007  0.06848  0.45305  1.0000
  C   C12       1.0  0.46991  0.93173  0.54678  1.0000
  C   C13       1.0  0.95139  0.43273  0.53090  1.0000
  C   C14       1.0  0.04873  0.56716  0.46926  1.0000
  N   N1        1.0  0.02766  0.02990  0.25413  1.0000
  N   N2        1.0  0.97229  0.97028  0.74575  1.0000
  N   N3        1.0  0.93328  0.42046  0.14696  1.0000
  N   N4        1.0  0.06670  0.57939  0.85307  1.0000
  O   O1        1.0  0.82521  0.04433  0.06835  1.0000
  O   O2        1.0  0.17503  0.95588  0.93169  1.0000
  O   O3        1.0  0.68546  0.03947  0.92142  1.0000
  O   O4        1.0  0.31508  0.96022  0.07871  1.0000
  O   O5        1.0  0.79969  0.37808  0.96610  1.0000
  O   O6        1.0  0.20036  0.62192  0.03396  1.0000
  O   O7        1.0  0.64872  0.39479  0.81737  1.0000
  O   O8        1.0  0.35090  0.60543  0.18275  1.0000
  O   O9        1.0  0.57555  0.27843  0.17795  1.0000
  O   O10       1.0  0.42457  0.72181  0.82198  1.0000
  O   O11       1.0  0.50569  0.21473  0.46344  1.0000
  O   O12       1.0  0.49434  0.78545  0.53643  1.0000
  O   O13       1.0  0.60029  0.01960  0.37109  1.0000
  O   O14       1.0  0.39969  0.98063  0.62873  1.0000
  O   O15       1.0  0.05150  0.29519  0.60650  1.0000
  O   O16       1.0  0.94872  0.70470  0.39366  1.0000
  O   O17       1.0  0.77856  0.47219  0.50002  1.0000
  O   O18       1.0  0.22157  0.52769  0.50017  1.0000
  O   O19       1.0  0.60044  0.29549  0.65363  1.0000
  O   O20       1.0  0.39989  0.70421  0.34645  1.0000
  O   O21       1.0  0.34459  0.18036  0.79990  1.0000
  O   O22       1.0  0.65544  0.81940  0.20008  1.0000
