data_image0
_chemical_formula_structural       Zn2Mo2H36C36N12O8
_chemical_formula_sum              "Zn2 Mo2 H36 C36 N12 O8"
_cell_length_a       9.01802
_cell_length_b       11.7148
_cell_length_c       11.7147
_cell_angle_alpha    120
_cell_angle_beta     89.9999
_cell_angle_gamma    90

_space_group_name_H-M_alt    "P 1"
_space_group_IT_number       1

loop_
  _space_group_symop_operation_xyz
  'x, y, z'

loop_
  _atom_site_type_symbol
  _atom_site_label
  _atom_site_symmetry_multiplicity
  _atom_site_fract_x
  _atom_site_fract_y
  _atom_site_fract_z
  _atom_site_occupancy
  Zn  Zn1       1.0  0.99437  0.33333  0.66667  1.0000
  Zn  Zn2       1.0  0.00564  0.66667  0.33333  1.0000
  Mo  Mo1       1.0  0.58233  0.33333  0.66667  1.0000
  Mo  Mo2       1.0  0.41767  0.66667  0.33333  1.0000
  H   H1        1.0  0.85126  0.56759  0.64305  1.0000
  H   H2        1.0  0.85126  0.35695  0.92454  1.0000
  H   H3        1.0  0.85126  0.07547  0.43242  1.0000
  H   H4        1.0  0.14874  0.43241  0.35695  1.0000
  H   H5        1.0  0.14874  0.64305  0.07546  1.0000
  H   H6        1.0  0.14874  0.92453  0.56759  1.0000
  H   H7        1.0  0.01956  0.79020  0.69715  1.0000
  H   H8        1.0  0.01956  0.30285  0.09305  1.0000
  H   H9        1.0  0.01956  0.90696  0.20981  1.0000
  H   H10       1.0  0.98044  0.20980  0.30285  1.0000
  H   H11       1.0  0.98044  0.69715  0.90696  1.0000
  H   H12       1.0  0.98044  0.09304  0.79019  1.0000
  H   H13       1.0  0.29998  0.50995  0.71412  1.0000
  H   H14       1.0  0.29998  0.28589  0.79583  1.0000
  H   H15       1.0  0.29998  0.20417  0.49006  1.0000
  H   H16       1.0  0.70002  0.49005  0.28588  1.0000
  H   H17       1.0  0.70002  0.71411  0.20417  1.0000
  H   H18       1.0  0.70002  0.79583  0.50995  1.0000
  H   H19       1.0  0.34009  0.78103  0.66389  1.0000
  H   H20       1.0  0.34009  0.33611  0.11714  1.0000
  H   H21       1.0  0.34008  0.88286  0.21897  1.0000
  H   H22       1.0  0.65992  0.21897  0.33611  1.0000
  H   H23       1.0  0.65991  0.66389  0.88286  1.0000
  H   H24       1.0  0.65992  0.11714  0.78102  1.0000
  H   H25       1.0  0.41773  0.70069  0.74388  1.0000
  H   H26       1.0  0.41773  0.25612  0.95681  1.0000
  H   H27       1.0  0.41773  0.04319  0.29931  1.0000
  H   H28       1.0  0.58227  0.29931  0.25612  1.0000
  H   H29       1.0  0.58227  0.74388  0.04319  1.0000
  H   H30       1.0  0.58227  0.95680  0.70068  1.0000
  H   H31       1.0  0.31268  0.01262  0.79452  1.0000
  H   H32       1.0  0.31268  0.20548  0.21810  1.0000
  H   H33       1.0  0.31268  0.78190  0.98738  1.0000
  H   H34       1.0  0.68732  0.98738  0.20548  1.0000
  H   H35       1.0  0.68732  0.79452  0.78190  1.0000
  H   H36       1.0  0.68732  0.21810  0.01262  1.0000
  C   C1        1.0  0.96828  0.58838  0.66525  1.0000
  C   C2        1.0  0.96828  0.33475  0.92313  1.0000
  C   C3        1.0  0.96828  0.07688  0.41163  1.0000
  C   C4        1.0  0.03172  0.41162  0.33475  1.0000
  C   C5        1.0  0.03172  0.66525  0.07687  1.0000
  C   C6        1.0  0.03172  0.92312  0.58837  1.0000
  C   C7        1.0  0.04931  0.69810  0.69159  1.0000
  C   C8        1.0  0.04932  0.30841  0.00650  1.0000
  C   C9        1.0  0.04931  0.99350  0.30191  1.0000
  C   C10       1.0  0.95069  0.30190  0.30841  1.0000
  C   C11       1.0  0.95069  0.69160  0.99350  1.0000
  C   C12       1.0  0.95069  0.00650  0.69809  1.0000
  C   C13       1.0  0.19698  0.55185  0.70143  1.0000
  C   C14       1.0  0.19698  0.29857  0.85041  1.0000
  C   C15       1.0  0.19698  0.14959  0.44816  1.0000
  C   C16       1.0  0.80302  0.44816  0.29857  1.0000
  C   C17       1.0  0.80302  0.70143  0.14959  1.0000
  C   C18       1.0  0.80303  0.85041  0.55184  1.0000
  C   C19       1.0  0.32237  0.75957  0.74423  1.0000
  C   C20       1.0  0.32238  0.25577  0.01534  1.0000
  C   C21       1.0  0.32238  0.98466  0.24043  1.0000
  C   C22       1.0  0.67763  0.24043  0.25577  1.0000
  C   C23       1.0  0.67762  0.74423  0.98466  1.0000
  C   C24       1.0  0.67762  0.01534  0.75957  1.0000
  C   C25       1.0  0.30869  0.88412  0.87635  1.0000
  C   C26       1.0  0.30869  0.12365  0.00777  1.0000
  C   C27       1.0  0.30869  0.99223  0.11588  1.0000
  C   C28       1.0  0.69131  0.11588  0.12365  1.0000
  C   C29       1.0  0.69131  0.87635  0.99223  1.0000
  C   C30       1.0  0.69131  0.00777  0.88412  1.0000
  C   C31       1.0  0.30787  0.00709  0.88483  1.0000
  C   C32       1.0  0.30787  0.11517  0.12226  1.0000
  C   C33       1.0  0.30787  0.87774  0.99291  1.0000
  C   C34       1.0  0.69213  0.99290  0.11517  1.0000
  C   C35       1.0  0.69213  0.88483  0.87774  1.0000
  C   C36       1.0  0.69213  0.12226  0.00709  1.0000
  N   N1        1.0  0.06163  0.49832  0.67223  1.0000
  N   N2        1.0  0.06163  0.32777  0.82610  1.0000
  N   N3        1.0  0.06163  0.17390  0.50168  1.0000
  N   N4        1.0  0.93837  0.50168  0.32777  1.0000
  N   N5        1.0  0.93837  0.67223  0.17390  1.0000
  N   N6        1.0  0.93837  0.82610  0.49832  1.0000
  N   N7        1.0  0.19321  0.67278  0.71328  1.0000
  N   N8        1.0  0.19321  0.28672  0.95950  1.0000
  N   N9        1.0  0.19321  0.04051  0.32722  1.0000
  N   N10       1.0  0.80679  0.32722  0.28672  1.0000
  N   N11       1.0  0.80679  0.71328  0.04050  1.0000
  N   N12       1.0  0.80679  0.95950  0.67278  1.0000
  O   O1        1.0  0.78371  0.33333  0.66667  1.0000
  O   O2        1.0  0.21629  0.66667  0.33333  1.0000
  O   O3        1.0  0.51526  0.49650  0.73460  1.0000
  O   O4        1.0  0.51526  0.26539  0.76190  1.0000
  O   O5        1.0  0.51526  0.23810  0.50350  1.0000
  O   O6        1.0  0.48474  0.50350  0.26540  1.0000
  O   O7        1.0  0.48474  0.73460  0.23810  1.0000
  O   O8        1.0  0.48474  0.76190  0.49650  1.0000
