data_image0
_chemical_formula_structural       Ag4H36C24S4N4Cl4O20
_chemical_formula_sum              "Ag4 H36 C24 S4 N4 Cl4 O20"
_cell_length_a       6.95182
_cell_length_b       10.2369
_cell_length_c       15.6363
_cell_angle_alpha    90
_cell_angle_beta     89.9999
_cell_angle_gamma    109.857

_space_group_name_H-M_alt    "P 1"
_space_group_IT_number       1

loop_
  _space_group_symop_operation_xyz
  'x, y, z'

loop_
  _atom_site_type_symbol
  _atom_site_label
  _atom_site_symmetry_multiplicity
  _atom_site_fract_x
  _atom_site_fract_y
  _atom_site_fract_z
  _atom_site_occupancy
  Ag  Ag1       1.0  0.01831  0.62370  0.45947  1.0000
  Ag  Ag2       1.0  0.39443  0.37609  0.54043  1.0000
  Ag  Ag3       1.0  0.89443  0.37609  0.95956  1.0000
  Ag  Ag4       1.0  0.51831  0.62370  0.04053  1.0000
  H   H1        1.0  0.79467  0.89760  0.34035  1.0000
  H   H2        1.0  0.89672  0.10249  0.65960  1.0000
  H   H3        1.0  0.39672  0.10249  0.84040  1.0000
  H   H4        1.0  0.29467  0.89760  0.15966  1.0000
  H   H5        1.0  0.33410  0.54731  0.37709  1.0000
  H   H6        1.0  0.78678  0.45285  0.62302  1.0000
  H   H7        1.0  0.28678  0.45285  0.87698  1.0000
  H   H8        1.0  0.83410  0.54731  0.12291  1.0000
  H   H9        1.0  0.51416  0.67679  0.44137  1.0000
  H   H10       1.0  0.83703  0.32326  0.55874  1.0000
  H   H11       1.0  0.33703  0.32326  0.94126  1.0000
  H   H12       1.0  0.01416  0.67679  0.05863  1.0000
  H   H13       1.0  0.98747  0.01145  0.17839  1.0000
  H   H14       1.0  0.97593  0.98852  0.82148  1.0000
  H   H15       1.0  0.47593  0.98852  0.67852  1.0000
  H   H16       1.0  0.48747  0.01145  0.32161  1.0000
  H   H17       1.0  0.86330  0.92226  0.08471  1.0000
  H   H18       1.0  0.94110  0.07756  0.91521  1.0000
  H   H19       1.0  0.44110  0.07756  0.58478  1.0000
  H   H20       1.0  0.36330  0.92226  0.41529  1.0000
  H   H21       1.0  0.75035  0.02453  0.14506  1.0000
  H   H22       1.0  0.72576  0.97530  0.85488  1.0000
  H   H23       1.0  0.22576  0.97530  0.64512  1.0000
  H   H24       1.0  0.25034  0.02453  0.35494  1.0000
  H   H25       1.0  0.61744  0.27804  0.34952  1.0000
  H   H26       1.0  0.33957  0.72190  0.65041  1.0000
  H   H27       1.0  0.83957  0.72190  0.84959  1.0000
  H   H28       1.0  0.11743  0.27804  0.15048  1.0000
  H   H29       1.0  0.63961  0.41403  0.27377  1.0000
  H   H30       1.0  0.22571  0.58604  0.72622  1.0000
  H   H31       1.0  0.72571  0.58604  0.77378  1.0000
  H   H32       1.0  0.13961  0.41403  0.22623  1.0000
  H   H33       1.0  0.39478  0.31908  0.32030  1.0000
  H   H34       1.0  0.07593  0.68104  0.67966  1.0000
  H   H35       1.0  0.57593  0.68104  0.82034  1.0000
  H   H36       1.0  0.89478  0.31908  0.17969  1.0000
  C   C1        1.0  0.58521  0.68725  0.30931  1.0000
  C   C2        1.0  0.89790  0.31283  0.69076  1.0000
  C   C3        1.0  0.39789  0.31283  0.80924  1.0000
  C   C4        1.0  0.08521  0.68724  0.19069  1.0000
  C   C5        1.0  0.71613  0.81880  0.29403  1.0000
  C   C6        1.0  0.89708  0.18121  0.70598  1.0000
  C   C7        1.0  0.39707  0.18121  0.79402  1.0000
  C   C8        1.0  0.21613  0.81880  0.20597  1.0000
  C   C9        1.0  0.72643  0.83203  0.20323  1.0000
  C   C10       1.0  0.89431  0.16792  0.79677  1.0000
  C   C11       1.0  0.39431  0.16792  0.70323  1.0000
  C   C12       1.0  0.22642  0.83203  0.29677  1.0000
  C   C13       1.0  0.49692  0.60664  0.38665  1.0000
  C   C14       1.0  0.89010  0.39344  0.61343  1.0000
  C   C15       1.0  0.39010  0.39344  0.88657  1.0000
  C   C16       1.0  0.99692  0.60664  0.11335  1.0000
  C   C17       1.0  0.83914  0.95401  0.14968  1.0000
  C   C18       1.0  0.88506  0.04590  0.85025  1.0000
  C   C19       1.0  0.38506  0.04590  0.64975  1.0000
  C   C20       1.0  0.33914  0.95401  0.35032  1.0000
  C   C21       1.0  0.56015  0.36126  0.33101  1.0000
  C   C22       1.0  0.19900  0.63876  0.66896  1.0000
  C   C23       1.0  0.69900  0.63876  0.83104  1.0000
  C   C24       1.0  0.06015  0.36126  0.16899  1.0000
  S   S1        1.0  0.61577  0.48016  0.42030  1.0000
  S   S2        1.0  0.13554  0.51979  0.57972  1.0000
  S   S3        1.0  0.63554  0.51979  0.92028  1.0000
  S   S4        1.0  0.11577  0.48016  0.07970  1.0000
  N   N1        1.0  0.60997  0.71438  0.16745  1.0000
  N   N2        1.0  0.89570  0.28558  0.83261  1.0000
  N   N3        1.0  0.39570  0.28558  0.66739  1.0000
  N   N4        1.0  0.10997  0.71438  0.33255  1.0000
  Cl  Cl1       1.0  0.76542  0.79361  0.58450  1.0000
  Cl  Cl2       1.0  0.97144  0.20644  0.41539  1.0000
  Cl  Cl3       1.0  0.47144  0.20644  0.08461  1.0000
  Cl  Cl4       1.0  0.26543  0.79361  0.91550  1.0000
  O   O1        1.0  0.51822  0.62151  0.23350  1.0000
  O   O2        1.0  0.89686  0.37851  0.76659  1.0000
  O   O3        1.0  0.39686  0.37851  0.73341  1.0000
  O   O4        1.0  0.01822  0.62151  0.26650  1.0000
  O   O5        1.0  0.92301  0.82551  0.51747  1.0000
  O   O6        1.0  0.09706  0.17455  0.48245  1.0000
  O   O7        1.0  0.59706  0.17456  0.01755  1.0000
  O   O8        1.0  0.42301  0.82551  0.98253  1.0000
  O   O9        1.0  0.85055  0.86964  0.66227  1.0000
  O   O10       1.0  0.98082  0.13049  0.33761  1.0000
  O   O11       1.0  0.48082  0.13049  0.16238  1.0000
  O   O12       1.0  0.35055  0.86964  0.83773  1.0000
  O   O13       1.0  0.69514  0.64351  0.60270  1.0000
  O   O14       1.0  0.05112  0.35656  0.39724  1.0000
  O   O15       1.0  0.55112  0.35656  0.10276  1.0000
  O   O16       1.0  0.19514  0.64351  0.89730  1.0000
  O   O17       1.0  0.59267  0.83153  0.55426  1.0000
  O   O18       1.0  0.76068  0.16835  0.44557  1.0000
  O   O19       1.0  0.26068  0.16835  0.05443  1.0000
  O   O20       1.0  0.09267  0.83153  0.94574  1.0000
