data_image0
_chemical_formula_structural       Ag4H12C20N24
_chemical_formula_sum              "Ag4 H12 C20 N24"
_cell_length_a       3.53741
_cell_length_b       12.3452
_cell_length_c       14.6066
_cell_angle_alpha    89.9998
_cell_angle_beta     92.4457
_cell_angle_gamma    90.002

_space_group_name_H-M_alt    "P 1"
_space_group_IT_number       1

loop_
  _space_group_symop_operation_xyz
  'x, y, z'

loop_
  _atom_site_type_symbol
  _atom_site_label
  _atom_site_symmetry_multiplicity
  _atom_site_fract_x
  _atom_site_fract_y
  _atom_site_fract_z
  _atom_site_occupancy
  Ag  Ag1       1.0  0.29336  0.70465  0.21609  1.0000
  Ag  Ag2       1.0  0.70666  0.20465  0.28392  1.0000
  Ag  Ag3       1.0  0.70666  0.29534  0.78391  1.0000
  Ag  Ag4       1.0  0.29335  0.79535  0.71608  1.0000
  H   H1        1.0  0.73337  0.41586  0.96746  1.0000
  H   H2        1.0  0.26668  0.91587  0.53255  1.0000
  H   H3        1.0  0.26663  0.58414  0.03254  1.0000
  H   H4        1.0  0.73333  0.08414  0.46745  1.0000
  H   H5        1.0  0.27561  0.07476  0.08835  1.0000
  H   H6        1.0  0.72437  0.57479  0.41164  1.0000
  H   H7        1.0  0.72439  0.92523  0.91165  1.0000
  H   H8        1.0  0.27563  0.42522  0.58836  1.0000
  H   H9        1.0  0.28815  0.10885  0.91597  1.0000
  H   H10       1.0  0.71184  0.60885  0.58402  1.0000
  H   H11       1.0  0.71184  0.89115  0.08403  1.0000
  H   H12       1.0  0.28816  0.39115  0.41598  1.0000
  C   C1        1.0  0.78407  0.39901  0.15384  1.0000
  C   C2        1.0  0.21592  0.89902  0.34616  1.0000
  C   C3        1.0  0.21592  0.60099  0.84616  1.0000
  C   C4        1.0  0.78408  0.10098  0.65384  1.0000
  C   C5        1.0  0.63333  0.31937  0.08857  1.0000
  C   C6        1.0  0.36666  0.81939  0.41144  1.0000
  C   C7        1.0  0.36666  0.68063  0.91143  1.0000
  C   C8        1.0  0.63335  0.18061  0.58857  1.0000
  C   C9        1.0  0.62852  0.33957  0.99409  1.0000
  C   C10       1.0  0.37150  0.83958  0.50591  1.0000
  C   C11       1.0  0.37147  0.66043  0.00591  1.0000
  C   C12       1.0  0.62850  0.16042  0.49409  1.0000
  C   C13       1.0  0.38257  0.15037  0.06041  1.0000
  C   C14       1.0  0.61742  0.65039  0.43958  1.0000
  C   C15       1.0  0.61743  0.84963  0.93959  1.0000
  C   C16       1.0  0.38259  0.34962  0.56041  1.0000
  C   C17       1.0  0.38691  0.16928  0.96622  1.0000
  C   C18       1.0  0.61310  0.66929  0.53378  1.0000
  C   C19       1.0  0.61308  0.83072  0.03378  1.0000
  C   C20       1.0  0.38691  0.33072  0.46622  1.0000
  N   N1        1.0  0.01816  0.54184  0.21310  1.0000
  N   N2        1.0  0.98183  0.04184  0.28690  1.0000
  N   N3        1.0  0.98183  0.45816  0.78690  1.0000
  N   N4        1.0  0.01817  0.95816  0.71310  1.0000
  N   N5        1.0  0.50615  0.22463  0.12175  1.0000
  N   N6        1.0  0.49384  0.72465  0.37825  1.0000
  N   N7        1.0  0.49385  0.77536  0.87825  1.0000
  N   N8        1.0  0.50616  0.27535  0.62175  1.0000
  N   N9        1.0  0.98902  0.46974  0.28083  1.0000
  N   N10       1.0  0.01097  0.96974  0.21917  1.0000
  N   N11       1.0  0.01097  0.53026  0.71917  1.0000
  N   N12       1.0  0.98903  0.03026  0.78083  1.0000
  N   N13       1.0  0.50876  0.26460  0.93331  1.0000
  N   N14       1.0  0.49126  0.76461  0.56669  1.0000
  N   N15       1.0  0.49123  0.73540  0.06669  1.0000
  N   N16       1.0  0.50875  0.23539  0.43331  1.0000
  N   N17       1.0  0.89361  0.49978  0.13291  1.0000
  N   N18       1.0  0.10639  0.99979  0.36709  1.0000
  N   N19       1.0  0.10638  0.50021  0.86709  1.0000
  N   N20       1.0  0.89362  0.00021  0.63291  1.0000
  N   N21       1.0  0.84262  0.37917  0.24422  1.0000
  N   N22       1.0  0.15738  0.87918  0.25578  1.0000
  N   N23       1.0  0.15738  0.62083  0.75578  1.0000
  N   N24       1.0  0.84262  0.12082  0.74422  1.0000
