data_image0
_chemical_formula_structural       Cd8H16C20S4N24O20
_chemical_formula_sum              "Cd8 H16 C20 S4 N24 O20"
_cell_length_a       10.571
_cell_length_b       11.4246
_cell_length_c       11.4597
_cell_angle_alpha    72.191
_cell_angle_beta     62.5341
_cell_angle_gamma    62.4422

_space_group_name_H-M_alt    "P 1"
_space_group_IT_number       1

loop_
  _space_group_symop_operation_xyz
  'x, y, z'

loop_
  _atom_site_type_symbol
  _atom_site_label
  _atom_site_symmetry_multiplicity
  _atom_site_fract_x
  _atom_site_fract_y
  _atom_site_fract_z
  _atom_site_occupancy
  Cd  Cd1       1.0  0.72150  0.74998  0.74997  1.0000
  Cd  Cd2       1.0  0.27850  0.25002  0.25003  1.0000
  Cd  Cd3       1.0  0.10460  0.76565  0.50711  1.0000
  Cd  Cd4       1.0  0.87732  0.73438  0.99289  1.0000
  Cd  Cd5       1.0  0.89540  0.23435  0.49288  1.0000
  Cd  Cd6       1.0  0.12268  0.26563  0.00711  1.0000
  Cd  Cd7       1.0  0.50000  1.00000  1.00000  1.0000
  Cd  Cd8       1.0  0.00000  0.50000  0.50000  1.0000
  H   H1        1.0  0.60234  0.72946  0.02081  1.0000
  H   H2        1.0  0.85263  0.77052  0.47916  1.0000
  H   H3        1.0  0.39766  0.27054  0.97919  1.0000
  H   H4        1.0  0.14737  0.22948  0.52084  1.0000
  H   H5        1.0  0.25019  0.56951  0.84019  1.0000
  H   H6        1.0  0.15997  0.93040  0.65996  1.0000
  H   H7        1.0  0.74981  0.43049  0.15981  1.0000
  H   H8        1.0  0.84003  0.06960  0.34004  1.0000
  H   H9        1.0  0.26759  0.80463  0.11817  1.0000
  H   H10       1.0  0.69041  0.69532  0.38189  1.0000
  H   H11       1.0  0.73241  0.19537  0.88183  1.0000
  H   H12       1.0  0.30959  0.30468  0.61811  1.0000
  H   H13       1.0  0.01447  0.81331  0.14211  1.0000
  H   H14       1.0  0.46988  0.68680  0.35793  1.0000
  H   H15       1.0  0.98553  0.18669  0.85789  1.0000
  H   H16       1.0  0.53012  0.31320  0.64207  1.0000
  C   C1        1.0  0.53780  0.54525  0.79255  1.0000
  C   C2        1.0  0.37567  0.95466  0.70756  1.0000
  C   C3        1.0  0.46220  0.45475  0.20745  1.0000
  C   C4        1.0  0.62433  0.04534  0.29244  1.0000
  C   C5        1.0  0.39231  0.61887  0.89125  1.0000
  C   C6        1.0  0.40251  0.88099  0.60891  1.0000
  C   C7        1.0  0.60769  0.38113  0.10875  1.0000
  C   C8        1.0  0.59749  0.11901  0.39109  1.0000
  C   C9        1.0  0.25259  0.62271  0.90289  1.0000
  C   C10       1.0  0.27826  0.87715  0.59730  1.0000
  C   C11       1.0  0.74741  0.37729  0.09711  1.0000
  C   C12       1.0  0.72174  0.12285  0.40270  1.0000
  C   C13       1.0  0.26337  0.75238  0.05576  1.0000
  C   C14       1.0  0.57156  0.74754  0.44437  1.0000
  C   C15       1.0  0.73663  0.24762  0.94424  1.0000
  C   C16       1.0  0.42844  0.25246  0.55563  1.0000
  C   C17       1.0  0.12298  0.75689  0.06927  1.0000
  C   C18       1.0  0.44916  0.74309  0.43084  1.0000
  C   C19       1.0  0.87702  0.24311  0.93073  1.0000
  C   C20       1.0  0.55084  0.25692  0.56916  1.0000
  S   S1        1.0  0.85195  0.99067  0.74855  1.0000
  S   S2        1.0  0.09112  0.50929  0.75143  1.0000
  S   S3        1.0  0.14805  0.00933  0.25145  1.0000
  S   S4        1.0  0.90888  0.49072  0.24857  1.0000
  N   N1        1.0  0.66590  0.57251  0.74167  1.0000
  N   N2        1.0  0.48013  0.92748  0.75842  1.0000
  N   N3        1.0  0.33409  0.42749  0.25833  1.0000
  N   N4        1.0  0.51987  0.07252  0.24158  1.0000
  N   N5        1.0  0.76975  0.48532  0.65463  1.0000
  N   N6        1.0  0.40971  0.01472  0.84542  1.0000
  N   N7        1.0  0.23025  0.51468  0.34538  1.0000
  N   N8        1.0  0.59029  0.98528  0.15458  1.0000
  N   N9        1.0  0.29138  0.59203  0.34676  1.0000
  N   N10       1.0  0.73015  0.90796  0.15323  1.0000
  N   N11       1.0  0.70862  0.40797  0.65324  1.0000
  N   N12       1.0  0.26985  0.09204  0.84677  1.0000
  N   N13       1.0  0.30254  0.80752  0.50852  1.0000
  N   N14       1.0  0.11846  0.69244  0.99162  1.0000
  N   N15       1.0  0.69746  0.19248  0.49148  1.0000
  N   N16       1.0  0.88154  0.30756  0.00838  1.0000
  N   N17       1.0  0.56225  0.44330  0.73870  1.0000
  N   N18       1.0  0.24430  0.05663  0.76135  1.0000
  N   N19       1.0  0.43775  0.55670  0.26130  1.0000
  N   N20       1.0  0.75570  0.94338  0.23865  1.0000
  N   N21       1.0  0.39815  0.68462  0.96692  1.0000
  N   N22       1.0  0.54978  0.81528  0.53320  1.0000
  N   N23       1.0  0.60185  0.31538  0.03307  1.0000
  N   N24       1.0  0.45022  0.18472  0.46680  1.0000
  O   O1        1.0  0.87020  0.89806  0.66770  1.0000
  O   O2        1.0  0.93594  0.60192  0.83230  1.0000
  O   O3        1.0  0.12980  0.10194  0.33231  1.0000
  O   O4        1.0  0.06406  0.39808  0.16770  1.0000
  O   O5        1.0  0.65666  0.78715  0.95941  1.0000
  O   O6        1.0  0.90326  0.71284  0.54054  1.0000
  O   O7        1.0  0.34334  0.21285  0.04059  1.0000
  O   O8        1.0  0.09674  0.28716  0.45946  1.0000
  O   O9        1.0  0.18436  0.58683  0.65129  1.0000
  O   O10       1.0  0.92265  0.91311  0.84865  1.0000
  O   O11       1.0  0.81564  0.41317  0.34871  1.0000
  O   O12       1.0  0.07734  0.08690  0.15135  1.0000
  O   O13       1.0  0.06235  0.92128  0.33884  1.0000
  O   O14       1.0  0.82244  0.57878  0.16125  1.0000
  O   O15       1.0  0.93765  0.07872  0.66116  1.0000
  O   O16       1.0  0.17756  0.42122  0.83875  1.0000
  O   O17       1.0  0.68578  0.07193  0.81155  1.0000
  O   O18       1.0  0.06913  0.42804  0.68848  1.0000
  O   O19       1.0  0.31422  0.92807  0.18845  1.0000
  O   O20       1.0  0.93087  0.57196  0.31152  1.0000
