data_image0
_chemical_formula_structural       Zn4H32C36N12O8
_chemical_formula_sum              "Zn4 H32 C36 N12 O8"
_cell_length_a       8.84427
_cell_length_b       9.95679
_cell_length_c       11.2455
_cell_angle_alpha    89.9999
_cell_angle_beta     92.5142
_cell_angle_gamma    90

_space_group_name_H-M_alt    "P 1"
_space_group_IT_number       1

loop_
  _space_group_symop_operation_xyz
  'x, y, z'

loop_
  _atom_site_type_symbol
  _atom_site_label
  _atom_site_symmetry_multiplicity
  _atom_site_fract_x
  _atom_site_fract_y
  _atom_site_fract_z
  _atom_site_occupancy
  Zn  Zn1       1.0  0.79036  0.27331  0.87376  1.0000
  Zn  Zn2       1.0  0.70964  0.77331  0.12624  1.0000
  Zn  Zn3       1.0  0.20964  0.72669  0.12624  1.0000
  Zn  Zn4       1.0  0.29036  0.22669  0.87376  1.0000
  H   H1        1.0  0.94072  0.92320  0.33700  1.0000
  H   H2        1.0  0.55928  0.42320  0.66300  1.0000
  H   H3        1.0  0.05928  0.07680  0.66300  1.0000
  H   H4        1.0  0.44072  0.57680  0.33700  1.0000
  H   H5        1.0  0.10753  0.10590  0.41761  1.0000
  H   H6        1.0  0.39247  0.60590  0.58239  1.0000
  H   H7        1.0  0.89247  0.89410  0.58239  1.0000
  H   H8        1.0  0.60753  0.39410  0.41761  1.0000
  H   H9        1.0  0.14341  0.31574  0.30562  1.0000
  H   H10       1.0  0.35659  0.81574  0.69438  1.0000
  H   H11       1.0  0.85659  0.68427  0.69438  1.0000
  H   H12       1.0  0.64342  0.18426  0.30562  1.0000
  H   H13       1.0  0.00781  0.35533  0.10829  1.0000
  H   H14       1.0  0.49219  0.85533  0.89171  1.0000
  H   H15       1.0  0.99219  0.64467  0.89171  1.0000
  H   H16       1.0  0.50781  0.14467  0.10829  1.0000
  H   H17       1.0  0.87942  0.45294  0.67948  1.0000
  H   H18       1.0  0.62058  0.95294  0.32052  1.0000
  H   H19       1.0  0.12058  0.54706  0.32052  1.0000
  H   H20       1.0  0.37942  0.04706  0.67947  1.0000
  H   H21       1.0  0.90519  0.30745  0.59542  1.0000
  H   H22       1.0  0.59481  0.80745  0.40458  1.0000
  H   H23       1.0  0.09481  0.69255  0.40458  1.0000
  H   H24       1.0  0.40519  0.19255  0.59542  1.0000
  H   H25       1.0  0.14046  0.40844  0.51164  1.0000
  H   H26       1.0  0.35954  0.90844  0.48835  1.0000
  H   H27       1.0  0.85954  0.59156  0.48835  1.0000
  H   H28       1.0  0.64046  0.09156  0.51165  1.0000
  H   H29       1.0  0.11345  0.55519  0.59564  1.0000
  H   H30       1.0  0.38655  0.05519  0.40436  1.0000
  H   H31       1.0  0.88655  0.44481  0.40436  1.0000
  H   H32       1.0  0.61345  0.94481  0.59564  1.0000
  C   C1        1.0  0.90218  0.15780  0.11182  1.0000
  C   C2        1.0  0.59782  0.65780  0.88818  1.0000
  C   C3        1.0  0.09783  0.84220  0.88818  1.0000
  C   C4        1.0  0.40218  0.34220  0.11182  1.0000
  C   C5        1.0  0.88323  0.03651  0.17487  1.0000
  C   C6        1.0  0.61677  0.53651  0.82513  1.0000
  C   C7        1.0  0.11677  0.96349  0.82513  1.0000
  C   C8        1.0  0.38323  0.46349  0.17487  1.0000
  C   C9        1.0  0.95537  0.01573  0.28729  1.0000
  C   C10       1.0  0.54463  0.51573  0.71271  1.0000
  C   C11       1.0  0.04463  0.98427  0.71271  1.0000
  C   C12       1.0  0.45537  0.48427  0.28729  1.0000
  C   C13       1.0  0.04745  0.11862  0.33153  1.0000
  C   C14       1.0  0.45255  0.61862  0.66847  1.0000
  C   C15       1.0  0.95255  0.88138  0.66847  1.0000
  C   C16       1.0  0.54745  0.38138  0.33153  1.0000
  C   C17       1.0  0.06746  0.23939  0.26736  1.0000
  C   C18       1.0  0.43254  0.73939  0.73264  1.0000
  C   C19       1.0  0.93254  0.76061  0.73264  1.0000
  C   C20       1.0  0.56746  0.26061  0.26736  1.0000
  C   C21       1.0  0.99458  0.26205  0.15743  1.0000
  C   C22       1.0  0.50541  0.76205  0.84257  1.0000
  C   C23       1.0  0.00542  0.73795  0.84256  1.0000
  C   C24       1.0  0.49459  0.23795  0.15743  1.0000
  C   C25       1.0  0.06561  0.33134  0.73818  1.0000
  C   C26       1.0  0.43439  0.83134  0.26182  1.0000
  C   C27       1.0  0.93438  0.66866  0.26182  1.0000
  C   C28       1.0  0.56561  0.16866  0.73818  1.0000
  C   C29       1.0  0.96713  0.39148  0.63931  1.0000
  C   C30       1.0  0.53287  0.89148  0.36069  1.0000
  C   C31       1.0  0.03287  0.60852  0.36069  1.0000
  C   C32       1.0  0.46713  0.10852  0.63931  1.0000
  C   C33       1.0  0.05291  0.47232  0.54933  1.0000
  C   C34       1.0  0.44709  0.97232  0.45067  1.0000
  C   C35       1.0  0.94709  0.52768  0.45067  1.0000
  C   C36       1.0  0.55291  0.02768  0.54933  1.0000
  N   N1        1.0  0.81607  0.14562  0.00783  1.0000
  N   N2        1.0  0.68393  0.64561  0.99217  1.0000
  N   N3        1.0  0.18393  0.85439  0.99217  1.0000
  N   N4        1.0  0.31607  0.35439  0.00783  1.0000
  N   N5        1.0  0.74865  0.02605  0.00502  1.0000
  N   N6        1.0  0.75135  0.52605  0.99498  1.0000
  N   N7        1.0  0.25135  0.97395  0.99498  1.0000
  N   N8        1.0  0.24865  0.47395  0.00502  1.0000
  N   N9        1.0  0.78706  0.95877  0.10440  1.0000
  N   N10       1.0  0.71294  0.45877  0.89560  1.0000
  N   N11       1.0  0.21294  0.04123  0.89560  1.0000
  N   N12       1.0  0.28706  0.54123  0.10440  1.0000
  O   O1        1.0  0.00936  0.29612  0.83607  1.0000
  O   O2        1.0  0.49064  0.79612  0.16393  1.0000
  O   O3        1.0  0.99064  0.70388  0.16393  1.0000
  O   O4        1.0  0.50936  0.20388  0.83607  1.0000
  O   O5        1.0  0.20614  0.31251  0.72203  1.0000
  O   O6        1.0  0.29386  0.81251  0.27797  1.0000
  O   O7        1.0  0.79386  0.68749  0.27797  1.0000
  O   O8        1.0  0.70614  0.18749  0.72203  1.0000
