data_image0
_chemical_formula_structural       Zn5H22C36N6O14
_chemical_formula_sum              "Zn5 H22 C36 N6 O14"
_cell_length_a       9.32155
_cell_length_b       11.1404
_cell_length_c       11.4607
_cell_angle_alpha    70.6835
_cell_angle_beta     67.1474
_cell_angle_gamma    67.4574

_space_group_name_H-M_alt    "P 1"
_space_group_IT_number       1

loop_
  _space_group_symop_operation_xyz
  'x, y, z'

loop_
  _atom_site_type_symbol
  _atom_site_label
  _atom_site_symmetry_multiplicity
  _atom_site_fract_x
  _atom_site_fract_y
  _atom_site_fract_z
  _atom_site_occupancy
  Zn  Zn1       1.0  1.00000  0.00000  0.50000  1.0000
  Zn  Zn2       1.0  0.85403  0.75860  0.52366  1.0000
  Zn  Zn3       1.0  0.14597  0.24140  0.47634  1.0000
  Zn  Zn4       1.0  0.63843  0.98183  0.72103  1.0000
  Zn  Zn5       1.0  0.36157  0.01817  0.27897  1.0000
  H   H1        1.0  0.73548  0.00389  0.48322  1.0000
  H   H2        1.0  0.26452  0.99611  0.51678  1.0000
  H   H3        1.0  0.00601  0.54072  0.31559  1.0000
  H   H4        1.0  0.99399  0.45928  0.68441  1.0000
  H   H5        1.0  0.99702  0.45568  0.14386  1.0000
  H   H6        1.0  0.00298  0.54432  0.85614  1.0000
  H   H7        1.0  0.77739  0.56710  0.04036  1.0000
  H   H8        1.0  0.22261  0.43290  0.95964  1.0000
  H   H9        1.0  0.55882  0.77232  0.10041  1.0000
  H   H10       1.0  0.44118  0.22768  0.89958  1.0000
  H   H11       1.0  0.40179  0.68739  0.61049  1.0000
  H   H12       1.0  0.59821  0.31261  0.38952  1.0000
  H   H13       1.0  0.32761  0.48085  0.39100  1.0000
  H   H14       1.0  0.67239  0.51915  0.60900  1.0000
  H   H15       1.0  0.70685  0.02891  0.04518  1.0000
  H   H16       1.0  0.29315  0.97109  0.95482  1.0000
  H   H17       1.0  0.19308  0.97010  0.78222  1.0000
  H   H18       1.0  0.80692  0.02990  0.21779  1.0000
  H   H19       1.0  0.74734  0.42855  0.81997  1.0000
  H   H20       1.0  0.25266  0.57145  0.18003  1.0000
  H   H21       1.0  0.37062  0.74026  0.00234  1.0000
  H   H22       1.0  0.62938  0.25974  0.99766  1.0000
  C   C1        1.0  0.65995  0.76899  0.24455  1.0000
  C   C2        1.0  0.34004  0.23101  0.75545  1.0000
  C   C3        1.0  0.78518  0.70463  0.30438  1.0000
  C   C4        1.0  0.21482  0.29537  0.69562  1.0000
  C   C5        1.0  0.91066  0.59136  0.26869  1.0000
  C   C6        1.0  0.08934  0.40863  0.73132  1.0000
  C   C7        1.0  0.90397  0.54502  0.17313  1.0000
  C   C8        1.0  0.09602  0.45499  0.82686  1.0000
  C   C9        1.0  0.77804  0.60916  0.11349  1.0000
  C   C10       1.0  0.22195  0.39084  0.88651  1.0000
  C   C11       1.0  0.65483  0.72231  0.14689  1.0000
  C   C12       1.0  0.34517  0.27769  0.85311  1.0000
  C   C13       1.0  0.18612  0.69513  0.50376  1.0000
  C   C14       1.0  0.81388  0.30487  0.49624  1.0000
  C   C15       1.0  0.34873  0.59468  0.50050  1.0000
  C   C16       1.0  0.65127  0.40532  0.49950  1.0000
  C   C17       1.0  0.44601  0.60503  0.56218  1.0000
  C   C18       1.0  0.55399  0.39498  0.43782  1.0000
  C   C19       1.0  0.40368  0.48899  0.43832  1.0000
  C   C20       1.0  0.59632  0.51101  0.56168  1.0000
  C   C21       1.0  0.88417  0.00168  0.79891  1.0000
  C   C22       1.0  0.11583  0.99832  0.20109  1.0000
  C   C23       1.0  0.94375  0.00042  0.90314  1.0000
  C   C24       1.0  0.05626  0.99957  0.09687  1.0000
  C   C25       1.0  0.83498  0.01649  0.02610  1.0000
  C   C26       1.0  0.16502  0.98351  0.97390  1.0000
  C   C27       1.0  0.10928  0.98344  0.87772  1.0000
  C   C28       1.0  0.89072  0.01656  0.12229  1.0000
  C   C29       1.0  0.63681  0.69787  0.79604  1.0000
  C   C30       1.0  0.36319  0.30213  0.20396  1.0000
  C   C31       1.0  0.56619  0.59499  0.90050  1.0000
  C   C32       1.0  0.43381  0.40501  0.09950  1.0000
  C   C33       1.0  0.63887  0.45943  0.89867  1.0000
  C   C34       1.0  0.36113  0.54057  0.10133  1.0000
  C   C35       1.0  0.42688  0.63478  0.00231  1.0000
  C   C36       1.0  0.57312  0.36522  0.99769  1.0000
  N   N1        1.0  0.55903  0.87384  0.30297  1.0000
  N   N2        1.0  0.44097  0.12616  0.69703  1.0000
  N   N3        1.0  0.61537  0.87485  0.39317  1.0000
  N   N4        1.0  0.38463  0.12515  0.60683  1.0000
  N   N5        1.0  0.75083  0.77407  0.39572  1.0000
  N   N6        1.0  0.24917  0.22593  0.60428  1.0000
  O   O1        1.0  0.15669  0.80362  0.53356  1.0000
  O   O2        1.0  0.84331  0.19638  0.46644  1.0000
  O   O3        1.0  0.08504  0.66251  0.47746  1.0000
  O   O4        1.0  0.91496  0.33749  0.52254  1.0000
  O   O5        1.0  0.98405  0.99908  0.68678  1.0000
  O   O6        1.0  0.01595  0.00092  0.31322  1.0000
  O   O7        1.0  0.73398  0.00541  0.83224  1.0000
  O   O8        1.0  0.26602  0.99460  0.16775  1.0000
  O   O9        1.0  0.57510  0.81643  0.81388  1.0000
  O   O10       1.0  0.42490  0.18357  0.18613  1.0000
  O   O11       1.0  0.75335  0.65896  0.69844  1.0000
  O   O12       1.0  0.24665  0.34104  0.30156  1.0000
  O   O13       1.0  0.78734  0.94407  0.54927  1.0000
  O   O14       1.0  0.21266  0.05593  0.45073  1.0000
