data_image0
_chemical_formula_structural       Zn4H36C40N12O8
_chemical_formula_sum              "Zn4 H36 C40 N12 O8"
_cell_length_a       4.8152
_cell_length_b       9.78121
_cell_length_c       22.5115
_cell_angle_alpha    90
_cell_angle_beta     90.0001
_cell_angle_gamma    99.7804

_space_group_name_H-M_alt    "P 1"
_space_group_IT_number       1

loop_
  _space_group_symop_operation_xyz
  'x, y, z'

loop_
  _atom_site_type_symbol
  _atom_site_label
  _atom_site_symmetry_multiplicity
  _atom_site_fract_x
  _atom_site_fract_y
  _atom_site_fract_z
  _atom_site_occupancy
  Zn  Zn1       1.0  0.92652  0.66601  0.31508  1.0000
  Zn  Zn2       1.0  0.07348  0.83399  0.81508  1.0000
  Zn  Zn3       1.0  0.07348  0.33399  0.68492  1.0000
  Zn  Zn4       1.0  0.92652  0.16601  0.18492  1.0000
  H   H1        1.0  0.41509  0.37042  0.09677  1.0000
  H   H2        1.0  0.58491  0.12958  0.59677  1.0000
  H   H3        1.0  0.58491  0.62958  0.90323  1.0000
  H   H4        1.0  0.41509  0.87042  0.40323  1.0000
  H   H5        1.0  0.75739  0.58632  0.07536  1.0000
  H   H6        1.0  0.24261  0.91368  0.57536  1.0000
  H   H7        1.0  0.24261  0.41368  0.92464  1.0000
  H   H8        1.0  0.75739  0.08632  0.42464  1.0000
  H   H9        1.0  0.76264  0.79868  0.13540  1.0000
  H   H10       1.0  0.23736  0.70132  0.63540  1.0000
  H   H11       1.0  0.23736  0.20132  0.86460  1.0000
  H   H12       1.0  0.76264  0.29868  0.36460  1.0000
  H   H13       1.0  0.42023  0.80749  0.21682  1.0000
  H   H14       1.0  0.57977  0.69251  0.71682  1.0000
  H   H15       1.0  0.57977  0.19251  0.78318  1.0000
  H   H16       1.0  0.42023  0.30749  0.28318  1.0000
  H   H17       1.0  0.69777  0.49480  0.42168  1.0000
  H   H18       1.0  0.30223  0.00520  0.92168  1.0000
  H   H19       1.0  0.30223  0.50520  0.57832  1.0000
  H   H20       1.0  0.69778  0.99480  0.07832  1.0000
  H   H21       1.0  0.73146  0.73053  0.46149  1.0000
  H   H22       1.0  0.26854  0.76947  0.96149  1.0000
  H   H23       1.0  0.26854  0.26947  0.53851  1.0000
  H   H24       1.0  0.73146  0.23053  0.03851  1.0000
  H   H25       1.0  0.38675  0.69013  0.49170  1.0000
  H   H26       1.0  0.61325  0.80987  0.99170  1.0000
  H   H27       1.0  0.61325  0.30987  0.50830  1.0000
  H   H28       1.0  0.38675  0.19013  0.00830  1.0000
  H   H29       1.0  0.09783  0.43827  0.47239  1.0000
  H   H30       1.0  0.90217  0.06173  0.97239  1.0000
  H   H31       1.0  0.90217  0.56173  0.52761  1.0000
  H   H32       1.0  0.09783  0.93827  0.02761  1.0000
  H   H33       1.0  0.25766  0.32121  0.42972  1.0000
  H   H34       1.0  0.74234  0.17879  0.92972  1.0000
  H   H35       1.0  0.74234  0.67879  0.57028  1.0000
  H   H36       1.0  0.25766  0.82121  0.07028  1.0000
  C   C1        1.0  0.22166  0.59213  0.20223  1.0000
  C   C2        1.0  0.77834  0.90787  0.70223  1.0000
  C   C3        1.0  0.77835  0.40787  0.79777  1.0000
  C   C4        1.0  0.22166  0.09213  0.29777  1.0000
  C   C5        1.0  0.22417  0.46901  0.16944  1.0000
  C   C6        1.0  0.77583  0.03099  0.66944  1.0000
  C   C7        1.0  0.77583  0.53099  0.83056  1.0000
  C   C8        1.0  0.22417  0.96901  0.33056  1.0000
  C   C9        1.0  0.41360  0.46477  0.12228  1.0000
  C   C10       1.0  0.58640  0.03523  0.62228  1.0000
  C   C11       1.0  0.58640  0.53523  0.87772  1.0000
  C   C12       1.0  0.41360  0.96477  0.37772  1.0000
  C   C13       1.0  0.60235  0.58563  0.11074  1.0000
  C   C14       1.0  0.39766  0.91437  0.61074  1.0000
  C   C15       1.0  0.39765  0.41437  0.88926  1.0000
  C   C16       1.0  0.60234  0.08563  0.38926  1.0000
  C   C17       1.0  0.60387  0.70776  0.14470  1.0000
  C   C18       1.0  0.39613  0.79224  0.64470  1.0000
  C   C19       1.0  0.39614  0.29224  0.85530  1.0000
  C   C20       1.0  0.60387  0.20776  0.35530  1.0000
  C   C21       1.0  0.41304  0.71397  0.19034  1.0000
  C   C22       1.0  0.58696  0.78603  0.69034  1.0000
  C   C23       1.0  0.58696  0.28603  0.80966  1.0000
  C   C24       1.0  0.41304  0.21397  0.30966  1.0000
  C   C25       1.0  0.37452  0.58668  0.38142  1.0000
  C   C26       1.0  0.62548  0.91332  0.88142  1.0000
  C   C27       1.0  0.62548  0.41332  0.61858  1.0000
  C   C28       1.0  0.37452  0.08668  0.11858  1.0000
  C   C29       1.0  0.50108  0.52840  0.43534  1.0000
  C   C30       1.0  0.49892  0.97161  0.93534  1.0000
  C   C31       1.0  0.49892  0.47160  0.56466  1.0000
  C   C32       1.0  0.50108  0.02840  0.06466  1.0000
  C   C33       1.0  0.57753  0.64652  0.48109  1.0000
  C   C34       1.0  0.42246  0.85348  0.98109  1.0000
  C   C35       1.0  0.42247  0.35348  0.51891  1.0000
  C   C36       1.0  0.57753  0.14652  0.01891  1.0000
  C   C37       1.0  0.30019  0.40574  0.46241  1.0000
  C   C38       1.0  0.69981  0.09426  0.96241  1.0000
  C   C39       1.0  0.69981  0.59426  0.53759  1.0000
  C   C40       1.0  0.30019  0.90574  0.03759  1.0000
  N   N1        1.0  0.01592  0.55984  0.24465  1.0000
  N   N2        1.0  0.98408  0.94016  0.74465  1.0000
  N   N3        1.0  0.98408  0.44016  0.75535  1.0000
  N   N4        1.0  0.01592  0.05984  0.25535  1.0000
  N   N5        1.0  0.90105  0.42693  0.23952  1.0000
  N   N6        1.0  0.09895  0.07307  0.73952  1.0000
  N   N7        1.0  0.09895  0.57307  0.76048  1.0000
  N   N8        1.0  0.90105  0.92693  0.26048  1.0000
  N   N9        1.0  0.02195  0.36995  0.19462  1.0000
  N   N10       1.0  0.97805  0.13005  0.69462  1.0000
  N   N11       1.0  0.97805  0.63005  0.80538  1.0000
  N   N12       1.0  0.02195  0.86995  0.30538  1.0000
  O   O1        1.0  0.11448  0.59877  0.38532  1.0000
  O   O2        1.0  0.88552  0.90123  0.88532  1.0000
  O   O3        1.0  0.88552  0.40123  0.61468  1.0000
  O   O4        1.0  0.11448  0.09877  0.11468  1.0000
  O   O5        1.0  0.51910  0.62688  0.33535  1.0000
  O   O6        1.0  0.48091  0.87312  0.83535  1.0000
  O   O7        1.0  0.48090  0.37312  0.66465  1.0000
  O   O8        1.0  0.51909  0.12688  0.16465  1.0000
