data_image0
_chemical_formula_structural       Cd2H40C44N20O16
_chemical_formula_sum              "Cd2 H40 C44 N20 O16"
_cell_length_a       9.67358
_cell_length_b       10.1674
_cell_length_c       12.9101
_cell_angle_alpha    90.0001
_cell_angle_beta     95.6129
_cell_angle_gamma    89.9999

_space_group_name_H-M_alt    "P 1"
_space_group_IT_number       1

loop_
  _space_group_symop_operation_xyz
  'x, y, z'

loop_
  _atom_site_type_symbol
  _atom_site_label
  _atom_site_symmetry_multiplicity
  _atom_site_fract_x
  _atom_site_fract_y
  _atom_site_fract_z
  _atom_site_occupancy
  Cd  Cd1       1.0  0.50000  1.00000  1.00000  1.0000
  Cd  Cd2       1.0  0.00000  0.50000  0.50000  1.0000
  H   H1        1.0  0.48828  0.26269  0.88843  1.0000
  H   H2        1.0  0.01172  0.76269  0.61157  1.0000
  H   H3        1.0  0.51172  0.73731  0.11157  1.0000
  H   H4        1.0  0.98828  0.23731  0.38843  1.0000
  H   H5        1.0  0.79509  0.53422  0.02817  1.0000
  H   H6        1.0  0.70491  0.03422  0.47183  1.0000
  H   H7        1.0  0.20491  0.46578  0.97183  1.0000
  H   H8        1.0  0.29509  0.96578  0.52817  1.0000
  H   H9        1.0  0.82238  0.38733  0.18323  1.0000
  H   H10       1.0  0.67762  0.88733  0.31677  1.0000
  H   H11       1.0  0.17762  0.61267  0.81677  1.0000
  H   H12       1.0  0.32238  0.11267  0.68323  1.0000
  H   H13       1.0  0.68458  0.17817  0.18188  1.0000
  H   H14       1.0  0.81542  0.67817  0.31812  1.0000
  H   H15       1.0  0.31542  0.82183  0.81812  1.0000
  H   H16       1.0  0.18458  0.32183  0.68188  1.0000
  H   H17       1.0  0.70419  0.55468  0.85220  1.0000
  H   H18       1.0  0.79581  0.05468  0.64780  1.0000
  H   H19       1.0  0.29581  0.44531  0.14780  1.0000
  H   H20       1.0  0.20419  0.94532  0.35220  1.0000
  H   H21       1.0  0.63453  0.62218  0.70610  1.0000
  H   H22       1.0  0.86548  0.12218  0.79390  1.0000
  H   H23       1.0  0.36547  0.37782  0.29390  1.0000
  H   H24       1.0  0.13452  0.87782  0.20610  1.0000
  H   H25       1.0  0.26405  0.51688  0.66422  1.0000
  H   H26       1.0  0.23595  0.01689  0.83578  1.0000
  H   H27       1.0  0.73595  0.48312  0.33578  1.0000
  H   H28       1.0  0.76405  0.98311  0.16422  1.0000
  H   H29       1.0  0.20548  0.66968  0.36477  1.0000
  H   H30       1.0  0.29452  0.16968  0.13523  1.0000
  H   H31       1.0  0.79452  0.33032  0.63523  1.0000
  H   H32       1.0  0.70548  0.83032  0.86477  1.0000
  H   H33       1.0  0.44968  0.75516  0.37778  1.0000
  H   H34       1.0  0.05032  0.25516  0.12222  1.0000
  H   H35       1.0  0.55032  0.24484  0.62222  1.0000
  H   H36       1.0  0.94968  0.74484  0.87778  1.0000
  H   H37       1.0  0.60545  0.71672  0.54087  1.0000
  H   H38       1.0  0.89455  0.21672  0.95913  1.0000
  H   H39       1.0  0.39455  0.28328  0.45913  1.0000
  H   H40       1.0  0.10545  0.78328  0.04087  1.0000
  C   C1        1.0  0.56324  0.29296  0.95197  1.0000
  C   C2        1.0  0.93676  0.79296  0.54803  1.0000
  C   C3        1.0  0.43676  0.70704  0.04803  1.0000
  C   C4        1.0  0.06324  0.20704  0.45197  1.0000
  C   C5        1.0  0.63708  0.41113  0.94611  1.0000
  C   C6        1.0  0.86292  0.91112  0.55389  1.0000
  C   C7        1.0  0.36292  0.58887  0.05389  1.0000
  C   C8        1.0  0.13708  0.08887  0.44611  1.0000
  C   C9        1.0  0.73409  0.44426  0.03007  1.0000
  C   C10       1.0  0.76591  0.94426  0.46993  1.0000
  C   C11       1.0  0.26591  0.55574  0.96993  1.0000
  C   C12       1.0  0.23409  0.05574  0.53007  1.0000
  C   C13       1.0  0.75092  0.36138  0.11600  1.0000
  C   C14       1.0  0.74908  0.86139  0.38400  1.0000
  C   C15       1.0  0.24908  0.63862  0.88400  1.0000
  C   C16       1.0  0.25092  0.13861  0.61600  1.0000
  C   C17       1.0  0.67414  0.24567  0.11616  1.0000
  C   C18       1.0  0.82586  0.74567  0.38384  1.0000
  C   C19       1.0  0.32586  0.75433  0.88384  1.0000
  C   C20       1.0  0.17414  0.25433  0.61616  1.0000
  C   C21       1.0  0.51558  0.49178  0.78003  1.0000
  C   C22       1.0  0.98443  0.99178  0.71997  1.0000
  C   C23       1.0  0.48442  0.50821  0.21997  1.0000
  C   C24       1.0  0.01558  0.00822  0.28003  1.0000
  C   C25       1.0  0.44805  0.61007  0.61512  1.0000
  C   C26       1.0  0.05195  0.11007  0.88488  1.0000
  C   C27       1.0  0.55195  0.38993  0.38488  1.0000
  C   C28       1.0  0.94805  0.88993  0.11512  1.0000
  C   C29       1.0  0.30880  0.56849  0.60208  1.0000
  C   C30       1.0  0.19120  0.06850  0.89792  1.0000
  C   C31       1.0  0.69120  0.43151  0.39792  1.0000
  C   C32       1.0  0.80880  0.93151  0.10208  1.0000
  C   C33       1.0  0.27642  0.65512  0.43483  1.0000
  C   C34       1.0  0.22358  0.15512  0.06517  1.0000
  C   C35       1.0  0.72358  0.34489  0.56517  1.0000
  C   C36       1.0  0.77642  0.84489  0.93483  1.0000
  C   C37       1.0  0.41214  0.70255  0.44267  1.0000
  C   C38       1.0  0.08786  0.20255  0.05733  1.0000
  C   C39       1.0  0.58786  0.29745  0.55733  1.0000
  C   C40       1.0  0.91214  0.79745  0.94267  1.0000
  C   C41       1.0  0.49885  0.68044  0.53325  1.0000
  C   C42       1.0  0.00115  0.18044  0.96674  1.0000
  C   C43       1.0  0.50115  0.31956  0.46674  1.0000
  C   C44       1.0  0.99885  0.81956  0.03326  1.0000
  N   N1        1.0  0.58387  0.21226  0.03424  1.0000
  N   N2        1.0  0.91613  0.71226  0.46576  1.0000
  N   N3        1.0  0.41613  0.78774  0.96576  1.0000
  N   N4        1.0  0.08387  0.28774  0.53424  1.0000
  N   N5        1.0  0.62123  0.49461  0.86016  1.0000
  N   N6        1.0  0.87877  0.99460  0.63984  1.0000
  N   N7        1.0  0.37877  0.50540  0.13984  1.0000
  N   N8        1.0  0.12123  0.00540  0.36016  1.0000
  N   N9        1.0  0.53531  0.58628  0.70505  1.0000
  N   N10       1.0  0.96469  0.08628  0.79495  1.0000
  N   N11       1.0  0.46469  0.41372  0.29495  1.0000
  N   N12       1.0  0.03531  0.91372  0.20505  1.0000
  N   N13       1.0  0.22655  0.59004  0.51388  1.0000
  N   N14       1.0  0.27345  0.09004  0.98612  1.0000
  N   N15       1.0  0.77345  0.40996  0.48612  1.0000
  N   N16       1.0  0.72655  0.90996  0.01388  1.0000
  N   N17       1.0  0.42147  0.95694  0.24914  1.0000
  N   N18       1.0  0.07853  0.45693  0.25086  1.0000
  N   N19       1.0  0.57853  0.04306  0.75086  1.0000
  N   N20       1.0  0.92147  0.54306  0.74914  1.0000
  O   O1        1.0  0.41518  0.41627  0.77631  1.0000
  O   O2        1.0  0.08482  0.91627  0.72369  1.0000
  O   O3        1.0  0.58483  0.58373  0.22369  1.0000
  O   O4        1.0  0.91518  0.08373  0.27631  1.0000
  O   O5        1.0  0.51573  0.98862  0.19059  1.0000
  O   O6        1.0  0.98427  0.48862  0.30941  1.0000
  O   O7        1.0  0.48427  0.01138  0.80941  1.0000
  O   O8        1.0  0.01573  0.51138  0.69059  1.0000
  O   O9        1.0  0.32857  0.87409  0.21636  1.0000
  O   O10       1.0  0.17143  0.37409  0.28364  1.0000
  O   O11       1.0  0.67143  0.12591  0.78364  1.0000
  O   O12       1.0  0.82858  0.62591  0.71636  1.0000
  O   O13       1.0  0.42389  0.00572  0.33851  1.0000
  O   O14       1.0  0.07611  0.50572  0.16149  1.0000
  O   O15       1.0  0.57611  0.99428  0.66149  1.0000
  O   O16       1.0  0.92389  0.49428  0.83851  1.0000
