data_image0
_chemical_formula_structural       Li6H12C12O12
_chemical_formula_sum              "Li6 H12 C12 O12"
_cell_length_a       7.79756
_cell_length_b       7.79751
_cell_length_c       7.79749
_cell_angle_alpha    100.95
_cell_angle_beta     100.949
_cell_angle_gamma    100.95

_space_group_name_H-M_alt    "P 1"
_space_group_IT_number       1

loop_
  _space_group_symop_operation_xyz
  'x, y, z'

loop_
  _atom_site_type_symbol
  _atom_site_label
  _atom_site_symmetry_multiplicity
  _atom_site_fract_x
  _atom_site_fract_y
  _atom_site_fract_z
  _atom_site_occupancy
  Li  Li1       1.0  0.01461  0.10354  0.67197  1.0000
  Li  Li2       1.0  0.67197  0.01460  0.10354  1.0000
  Li  Li3       1.0  0.10354  0.67198  0.01461  1.0000
  Li  Li4       1.0  0.98539  0.89646  0.32803  1.0000
  Li  Li5       1.0  0.32803  0.98539  0.89646  1.0000
  Li  Li6       1.0  0.89646  0.32802  0.98539  1.0000
  H   H1        1.0  0.65735  0.91917  0.45756  1.0000
  H   H2        1.0  0.45757  0.65736  0.91917  1.0000
  H   H3        1.0  0.91917  0.45756  0.65735  1.0000
  H   H4        1.0  0.34265  0.08083  0.54244  1.0000
  H   H5        1.0  0.54243  0.34265  0.08083  1.0000
  H   H6        1.0  0.08083  0.54244  0.34264  1.0000
  H   H7        1.0  0.47092  0.80835  0.53019  1.0000
  H   H8        1.0  0.53020  0.47091  0.80836  1.0000
  H   H9        1.0  0.80836  0.53020  0.47092  1.0000
  H   H10       1.0  0.52908  0.19165  0.46981  1.0000
  H   H11       1.0  0.46980  0.52909  0.19165  1.0000
  H   H12       1.0  0.19164  0.46980  0.52908  1.0000
  C   C1        1.0  0.65142  0.02919  0.73138  1.0000
  C   C2        1.0  0.73138  0.65142  0.02919  1.0000
  C   C3        1.0  0.02919  0.73138  0.65142  1.0000
  C   C4        1.0  0.34857  0.97081  0.26862  1.0000
  C   C5        1.0  0.26862  0.34858  0.97081  1.0000
  C   C6        1.0  0.97081  0.26862  0.34858  1.0000
  C   C7        1.0  0.55801  0.93937  0.53735  1.0000
  C   C8        1.0  0.53735  0.55801  0.93937  1.0000
  C   C9        1.0  0.93938  0.53735  0.55801  1.0000
  C   C10       1.0  0.44198  0.06063  0.46265  1.0000
  C   C11       1.0  0.46265  0.44199  0.06063  1.0000
  C   C12       1.0  0.06062  0.46265  0.44198  1.0000
  O   O1        1.0  0.80600  0.13566  0.76581  1.0000
  O   O2        1.0  0.76582  0.80599  0.13566  1.0000
  O   O3        1.0  0.13566  0.76581  0.80599  1.0000
  O   O4        1.0  0.19400  0.86434  0.23419  1.0000
  O   O5        1.0  0.23419  0.19402  0.86434  1.0000
  O   O6        1.0  0.86434  0.23419  0.19400  1.0000
  O   O7        1.0  0.56685  0.00024  0.85120  1.0000
  O   O8        1.0  0.85120  0.56683  0.00024  1.0000
  O   O9        1.0  0.00025  0.85120  0.56685  1.0000
  O   O10       1.0  0.43315  0.99976  0.14880  1.0000
  O   O11       1.0  0.14880  0.43317  0.99976  1.0000
  O   O12       1.0  0.99976  0.14879  0.43315  1.0000
