data_image0
_chemical_formula_structural       Li4Y4H40C64O36
_chemical_formula_sum              "Li4 Y4 H40 C64 O36"
_cell_length_a       10.5309
_cell_length_b       12.2569
_cell_length_c       14.3378
_cell_angle_alpha    89.9989
_cell_angle_beta     89.998
_cell_angle_gamma    109.439

_space_group_name_H-M_alt    "P 1"
_space_group_IT_number       1

loop_
  _space_group_symop_operation_xyz
  'x, y, z'

loop_
  _atom_site_type_symbol
  _atom_site_label
  _atom_site_symmetry_multiplicity
  _atom_site_fract_x
  _atom_site_fract_y
  _atom_site_fract_z
  _atom_site_occupancy
  Li  Li1       1.0  0.88668  0.81987  0.10903  1.0000
  Li  Li2       1.0  0.61330  0.68013  0.60902  1.0000
  Li  Li3       1.0  0.11329  0.18012  0.89098  1.0000
  Li  Li4       1.0  0.38669  0.31986  0.39096  1.0000
  Y   Y1        1.0  0.74820  0.99880  0.98656  1.0000
  Y   Y2        1.0  0.75182  0.50122  0.48655  1.0000
  Y   Y3        1.0  0.25181  0.00120  0.01344  1.0000
  Y   Y4        1.0  0.24819  0.49879  0.51345  1.0000
  H   H1        1.0  0.28775  0.24382  0.67644  1.0000
  H   H2        1.0  0.21229  0.25616  0.17644  1.0000
  H   H3        1.0  0.71226  0.75615  0.32354  1.0000
  H   H4        1.0  0.78772  0.74385  0.82355  1.0000
  H   H5        1.0  0.29975  0.08232  0.77880  1.0000
  H   H6        1.0  0.20029  0.41768  0.27880  1.0000
  H   H7        1.0  0.70028  0.91768  0.22118  1.0000
  H   H8        1.0  0.79970  0.58233  0.72120  1.0000
  H   H9        1.0  0.71502  0.41120  0.70564  1.0000
  H   H10       1.0  0.78500  0.08884  0.20561  1.0000
  H   H11       1.0  0.28497  0.58884  0.29438  1.0000
  H   H12       1.0  0.21502  0.91116  0.79438  1.0000
  H   H13       1.0  0.72726  0.24854  0.80663  1.0000
  H   H14       1.0  0.77276  0.25150  0.30658  1.0000
  H   H15       1.0  0.27275  0.75150  0.19340  1.0000
  H   H16       1.0  0.22723  0.74850  0.69340  1.0000
  H   H17       1.0  0.14921  0.38770  0.95786  1.0000
  H   H18       1.0  0.35081  0.11231  0.45787  1.0000
  H   H19       1.0  0.85083  0.61228  0.04218  1.0000
  H   H20       1.0  0.64917  0.88770  0.54217  1.0000
  H   H21       1.0  0.75893  0.39741  0.03764  1.0000
  H   H22       1.0  0.74107  0.10257  0.53762  1.0000
  H   H23       1.0  0.24111  0.60257  0.96243  1.0000
  H   H24       1.0  0.25888  0.89743  0.46245  1.0000
  H   H25       1.0  0.63074  0.61452  0.13242  1.0000
  H   H26       1.0  0.86925  0.88544  0.63244  1.0000
  H   H27       1.0  0.36925  0.38546  0.86755  1.0000
  H   H28       1.0  0.13076  0.11456  0.36757  1.0000
  H   H29       1.0  0.47973  0.59837  0.85152  1.0000
  H   H30       1.0  0.02024  0.90165  0.35152  1.0000
  H   H31       1.0  0.52026  0.40162  0.14845  1.0000
  H   H32       1.0  0.97973  0.09836  0.64847  1.0000
  H   H33       1.0  0.00727  0.73236  0.20873  1.0000
  H   H34       1.0  0.49273  0.76766  0.70873  1.0000
  H   H35       1.0  0.99273  0.26767  0.79127  1.0000
  H   H36       1.0  0.50726  0.23232  0.29125  1.0000
  H   H37       1.0  0.91115  0.72454  0.29296  1.0000
  H   H38       1.0  0.58885  0.77546  0.79296  1.0000
  H   H39       1.0  0.08885  0.27546  0.70705  1.0000
  H   H40       1.0  0.41114  0.22455  0.20704  1.0000
  C   C1        1.0  0.49960  0.33756  0.68747  1.0000
  C   C2        1.0  0.00041  0.16246  0.18746  1.0000
  C   C3        1.0  0.50039  0.66244  0.31252  1.0000
  C   C4        1.0  0.99959  0.83755  0.81253  1.0000
  C   C5        1.0  0.52269  0.06765  0.86580  1.0000
  C   C6        1.0  0.97735  0.43235  0.36578  1.0000
  C   C7        1.0  0.47733  0.93236  0.13421  1.0000
  C   C8        1.0  0.02267  0.56765  0.63420  1.0000
  C   C9        1.0  0.38292  0.24361  0.70562  1.0000
  C   C10       1.0  0.11710  0.25638  0.20561  1.0000
  C   C11       1.0  0.61707  0.75637  0.29437  1.0000
  C   C12       1.0  0.88290  0.74362  0.79438  1.0000
  C   C13       1.0  0.94740  0.37807  0.99697  1.0000
  C   C14       1.0  0.55260  0.12192  0.49697  1.0000
  C   C15       1.0  0.05262  0.62190  0.00306  1.0000
  C   C16       1.0  0.44737  0.87809  0.50307  1.0000
  C   C17       1.0  0.39025  0.15397  0.76166  1.0000
  C   C18       1.0  0.10978  0.34603  0.26164  1.0000
  C   C19       1.0  0.60976  0.84603  0.23834  1.0000
  C   C20       1.0  0.89022  0.65397  0.73835  1.0000
  C   C21       1.0  0.56285  0.61966  0.99093  1.0000
  C   C22       1.0  0.93714  0.88032  0.49094  1.0000
  C   C23       1.0  0.43715  0.38029  0.00904  1.0000
  C   C24       1.0  0.06285  0.11969  0.50905  1.0000
  C   C25       1.0  0.62453  0.33930  0.72213  1.0000
  C   C26       1.0  0.87547  0.16074  0.22210  1.0000
  C   C27       1.0  0.37546  0.66072  0.27788  1.0000
  C   C28       1.0  0.12451  0.83926  0.77788  1.0000
  C   C29       1.0  0.48860  0.43627  0.63266  1.0000
  C   C30       1.0  0.01142  0.06373  0.13265  1.0000
  C   C31       1.0  0.51141  0.56372  0.36733  1.0000
  C   C32       1.0  0.98860  0.93628  0.86734  1.0000
  C   C33       1.0  0.63197  0.24884  0.77736  1.0000
  C   C34       1.0  0.86805  0.25120  0.27732  1.0000
  C   C35       1.0  0.36803  0.75117  0.22266  1.0000
  C   C36       1.0  0.13194  0.74880  0.72266  1.0000
  C   C37       1.0  0.51458  0.15730  0.79851  1.0000
  C   C38       1.0  0.98544  0.34272  0.29849  1.0000
  C   C39       1.0  0.48542  0.84271  0.20149  1.0000
  C   C40       1.0  0.01455  0.65728  0.70149  1.0000
  C   C41       1.0  0.88928  0.24836  0.99394  1.0000
  C   C42       1.0  0.61070  0.25165  0.49394  1.0000
  C   C43       1.0  0.11070  0.75164  0.00606  1.0000
  C   C44       1.0  0.38926  0.74836  0.50608  1.0000
  C   C45       1.0  0.08333  0.43676  0.97585  1.0000
  C   C46       1.0  0.41666  0.06324  0.47586  1.0000
  C   C47       1.0  0.91669  0.56324  0.02420  1.0000
  C   C48       1.0  0.58330  0.93677  0.52418  1.0000
  C   C49       1.0  0.86454  0.44283  0.02137  1.0000
  C   C50       1.0  0.63546  0.05718  0.52136  1.0000
  C   C51       1.0  0.13550  0.55717  0.97868  1.0000
  C   C52       1.0  0.36450  0.94283  0.47869  1.0000
  C   C53       1.0  0.62939  0.74747  0.98279  1.0000
  C   C54       1.0  0.87062  0.75253  0.48280  1.0000
  C   C55       1.0  0.37064  0.25250  0.01719  1.0000
  C   C56       1.0  0.12939  0.24748  0.51720  1.0000
  C   C57       1.0  0.57403  0.56378  0.07446  1.0000
  C   C58       1.0  0.92598  0.93622  0.57447  1.0000
  C   C59       1.0  0.42598  0.43621  0.92551  1.0000
  C   C60       1.0  0.07402  0.06380  0.42552  1.0000
  C   C61       1.0  0.48817  0.55514  0.91650  1.0000
  C   C62       1.0  0.01183  0.94488  0.41650  1.0000
  C   C63       1.0  0.51185  0.44486  0.08347  1.0000
  C   C64       1.0  0.98817  0.05514  0.58349  1.0000
  O   O1        1.0  0.63516  0.05132  0.87351  1.0000
  O   O2        1.0  0.86487  0.44869  0.37351  1.0000
  O   O3        1.0  0.36485  0.94870  0.12650  1.0000
  O   O4        1.0  0.13515  0.55132  0.62650  1.0000
  O   O5        1.0  0.41801  0.01455  0.91270  1.0000
  O   O6        1.0  0.08201  0.48543  0.41269  1.0000
  O   O7        1.0  0.58199  0.98545  0.08729  1.0000
  O   O8        1.0  0.91801  0.51456  0.58729  1.0000
  O   O9        1.0  0.71897  0.79986  0.04322  1.0000
  O   O10       1.0  0.78103  0.70014  0.54323  1.0000
  O   O11       1.0  0.28103  0.20012  0.95678  1.0000
  O   O12       1.0  0.21896  0.29986  0.45677  1.0000
  O   O13       1.0  0.59727  0.80516  0.91855  1.0000
  O   O14       1.0  0.90276  0.69485  0.41856  1.0000
  O   O15       1.0  0.40282  0.19485  0.08143  1.0000
  O   O16       1.0  0.09725  0.30516  0.58144  1.0000
  O   O17       1.0  0.95513  0.18849  0.95520  1.0000
  O   O18       1.0  0.54482  0.31148  0.45518  1.0000
  O   O19       1.0  0.04479  0.81149  0.04479  1.0000
  O   O20       1.0  0.45514  0.68851  0.54480  1.0000
  O   O21       1.0  0.37331  0.44478  0.62102  1.0000
  O   O22       1.0  0.12671  0.05522  0.12102  1.0000
  O   O23       1.0  0.62670  0.55522  0.37896  1.0000
  O   O24       1.0  0.87332  0.94479  0.87898  1.0000
  O   O25       1.0  0.77409  0.19737  0.02886  1.0000
  O   O26       1.0  0.72589  0.30265  0.52888  1.0000
  O   O27       1.0  0.22591  0.80264  0.97113  1.0000
  O   O28       1.0  0.27408  0.69736  0.47115  1.0000
  O   O29       1.0  0.59726  0.51110  0.60125  1.0000
  O   O30       1.0  0.90275  0.98890  0.10125  1.0000
  O   O31       1.0  0.40275  0.48890  0.39875  1.0000
  O   O32       1.0  0.09727  0.01111  0.89873  1.0000
  O   O33       1.0  0.92524  0.74708  0.22630  1.0000
  O   O34       1.0  0.57474  0.75291  0.72629  1.0000
  O   O35       1.0  0.07473  0.25291  0.77371  1.0000
  O   O36       1.0  0.42524  0.24708  0.27370  1.0000
