data_image0
_chemical_formula_structural       Hg4H48C40N20Cl4O20
_chemical_formula_sum              "Hg4 H48 C40 N20 Cl4 O20"
_cell_length_a       8.5105
_cell_length_b       13.1132
_cell_length_c       13.917
_cell_angle_alpha    109.372
_cell_angle_beta     90
_cell_angle_gamma    90.0001

_space_group_name_H-M_alt    "P 1"
_space_group_IT_number       1

loop_
  _space_group_symop_operation_xyz
  'x, y, z'

loop_
  _atom_site_type_symbol
  _atom_site_label
  _atom_site_symmetry_multiplicity
  _atom_site_fract_x
  _atom_site_fract_y
  _atom_site_fract_z
  _atom_site_occupancy
  Hg  Hg1       1.0  0.73201  0.71451  0.64326  1.0000
  Hg  Hg2       1.0  0.23202  0.78549  0.85674  1.0000
  Hg  Hg3       1.0  0.26799  0.28549  0.35674  1.0000
  Hg  Hg4       1.0  0.76799  0.21451  0.14326  1.0000
  H   H1        1.0  0.25932  0.13476  0.60154  1.0000
  H   H2        1.0  0.75932  0.36524  0.89847  1.0000
  H   H3        1.0  0.74068  0.86524  0.39846  1.0000
  H   H4        1.0  0.24068  0.63476  0.10153  1.0000
  H   H5        1.0  0.09687  0.04883  0.60192  1.0000
  H   H6        1.0  0.59687  0.45117  0.89808  1.0000
  H   H7        1.0  0.90313  0.95117  0.39808  1.0000
  H   H8        1.0  0.40313  0.54882  0.10192  1.0000
  H   H9        1.0  0.15494  0.06671  0.48574  1.0000
  H   H10       1.0  0.65495  0.43329  0.01426  1.0000
  H   H11       1.0  0.84506  0.93330  0.51426  1.0000
  H   H12       1.0  0.34506  0.56670  0.98574  1.0000
  H   H13       1.0  0.47913  0.69016  0.29392  1.0000
  H   H14       1.0  0.97913  0.80985  0.20608  1.0000
  H   H15       1.0  0.52087  0.30984  0.70608  1.0000
  H   H16       1.0  0.02087  0.19015  0.79392  1.0000
  H   H17       1.0  0.27401  0.72164  0.29166  1.0000
  H   H18       1.0  0.77400  0.77836  0.20834  1.0000
  H   H19       1.0  0.72599  0.27836  0.70834  1.0000
  H   H20       1.0  0.22599  0.22164  0.79166  1.0000
  H   H21       1.0  0.33909  0.63000  0.35463  1.0000
  H   H22       1.0  0.83909  0.87000  0.14537  1.0000
  H   H23       1.0  0.66091  0.37000  0.64538  1.0000
  H   H24       1.0  0.16091  0.13000  0.85462  1.0000
  H   H25       1.0  0.69224  0.97418  0.89966  1.0000
  H   H26       1.0  0.19223  0.52582  0.60034  1.0000
  H   H27       1.0  0.30776  0.02582  0.10034  1.0000
  H   H28       1.0  0.80777  0.47418  0.39966  1.0000
  H   H29       1.0  0.84011  0.02436  0.83961  1.0000
  H   H30       1.0  0.34011  0.47564  0.66039  1.0000
  H   H31       1.0  0.15989  0.97564  0.16039  1.0000
  H   H32       1.0  0.65989  0.52436  0.33961  1.0000
  H   H33       1.0  0.81597  0.88201  0.80767  1.0000
  H   H34       1.0  0.31596  0.61799  0.69233  1.0000
  H   H35       1.0  0.18403  0.11800  0.19233  1.0000
  H   H36       1.0  0.68404  0.38200  0.30767  1.0000
  H   H37       1.0  0.69417  0.17567  0.85914  1.0000
  H   H38       1.0  0.19417  0.32433  0.64086  1.0000
  H   H39       1.0  0.30583  0.82433  0.14085  1.0000
  H   H40       1.0  0.80583  0.67567  0.35914  1.0000
  H   H41       1.0  0.53390  0.13591  0.91731  1.0000
  H   H42       1.0  0.03390  0.36408  0.58269  1.0000
  H   H43       1.0  0.46611  0.86409  0.08269  1.0000
  H   H44       1.0  0.96610  0.63591  0.41731  1.0000
  H   H45       1.0  0.49923  0.22066  0.84268  1.0000
  H   H46       1.0  0.99923  0.27935  0.65732  1.0000
  H   H47       1.0  0.50078  0.77935  0.15732  1.0000
  H   H48       1.0  0.00077  0.72065  0.34268  1.0000
  C   C1        1.0  0.19753  0.06111  0.55778  1.0000
  C   C2        1.0  0.69753  0.43889  0.94222  1.0000
  C   C3        1.0  0.80247  0.93889  0.44222  1.0000
  C   C4        1.0  0.30247  0.56111  0.05778  1.0000
  C   C5        1.0  0.42078  0.96886  0.60668  1.0000
  C   C6        1.0  0.92077  0.53114  0.89332  1.0000
  C   C7        1.0  0.57923  0.03114  0.39332  1.0000
  C   C8        1.0  0.07923  0.46886  0.10668  1.0000
  C   C9        1.0  0.28385  0.88350  0.44688  1.0000
  C   C10       1.0  0.78385  0.61650  0.05312  1.0000
  C   C11       1.0  0.71615  0.11650  0.55312  1.0000
  C   C12       1.0  0.21615  0.38350  0.94688  1.0000
  C   C13       1.0  0.36805  0.70298  0.33627  1.0000
  C   C14       1.0  0.86805  0.79702  0.16373  1.0000
  C   C15       1.0  0.63195  0.29702  0.66373  1.0000
  C   C16       1.0  0.13195  0.20298  0.83627  1.0000
  C   C17       1.0  0.49732  0.78442  0.49816  1.0000
  C   C18       1.0  0.99732  0.71558  0.00183  1.0000
  C   C19       1.0  0.50268  0.21558  0.50184  1.0000
  C   C20       1.0  0.00267  0.28442  0.99817  1.0000
  C   C21       1.0  0.51479  0.87720  0.59090  1.0000
  C   C22       1.0  0.01479  0.62280  0.90909  1.0000
  C   C23       1.0  0.48521  0.12280  0.40910  1.0000
  C   C24       1.0  0.98521  0.37720  0.09090  1.0000
  C   C25       1.0  0.64038  0.96062  0.74618  1.0000
  C   C26       1.0  0.14038  0.53938  0.75382  1.0000
  C   C27       1.0  0.35962  0.03938  0.25382  1.0000
  C   C28       1.0  0.85962  0.46062  0.24618  1.0000
  C   C29       1.0  0.75342  0.95895  0.82654  1.0000
  C   C30       1.0  0.25342  0.54105  0.67346  1.0000
  C   C31       1.0  0.24658  0.04105  0.17346  1.0000
  C   C32       1.0  0.74659  0.45894  0.32654  1.0000
  C   C33       1.0  0.54740  0.05521  0.75711  1.0000
  C   C34       1.0  0.04741  0.44479  0.74289  1.0000
  C   C35       1.0  0.45259  0.94479  0.24289  1.0000
  C   C36       1.0  0.95260  0.55521  0.25711  1.0000
  C   C37       1.0  0.56951  0.15300  0.84814  1.0000
  C   C38       1.0  0.06951  0.34700  0.65187  1.0000
  C   C39       1.0  0.43049  0.84700  0.15186  1.0000
  C   C40       1.0  0.93049  0.65300  0.34813  1.0000
  N   N1        1.0  0.30662  0.96975  0.53650  1.0000
  N   N2        1.0  0.80662  0.53025  0.96350  1.0000
  N   N3        1.0  0.69338  0.03026  0.46350  1.0000
  N   N4        1.0  0.19338  0.46974  0.03650  1.0000
  N   N5        1.0  0.38474  0.79470  0.43069  1.0000
  N   N6        1.0  0.88474  0.70530  0.06930  1.0000
  N   N7        1.0  0.61526  0.20530  0.56931  1.0000
  N   N8        1.0  0.11526  0.29470  0.93070  1.0000
  N   N9        1.0  0.62097  0.87480  0.66240  1.0000
  N   N10       1.0  0.12096  0.62521  0.83760  1.0000
  N   N11       1.0  0.37903  0.12520  0.33760  1.0000
  N   N12       1.0  0.87904  0.37480  0.16240  1.0000
  N   N13       1.0  0.43932  0.05764  0.68885  1.0000
  N   N14       1.0  0.93932  0.44236  0.81116  1.0000
  N   N15       1.0  0.56068  0.94237  0.31115  1.0000
  N   N16       1.0  0.06068  0.55763  0.18884  1.0000
  N   N17       1.0  0.09012  0.78989  0.64349  1.0000
  N   N18       1.0  0.59013  0.71011  0.85651  1.0000
  N   N19       1.0  0.90988  0.21011  0.35651  1.0000
  N   N20       1.0  0.40987  0.28989  0.14349  1.0000
  Cl  Cl1       1.0  0.80638  0.53184  0.59901  1.0000
  Cl  Cl2       1.0  0.30638  0.96816  0.90099  1.0000
  Cl  Cl3       1.0  0.19362  0.46816  0.40099  1.0000
  Cl  Cl4       1.0  0.69362  0.03184  0.09901  1.0000
  O   O1        1.0  0.18432  0.88614  0.38355  1.0000
  O   O2        1.0  0.68432  0.61386  0.11645  1.0000
  O   O3        1.0  0.81568  0.11386  0.61646  1.0000
  O   O4        1.0  0.31569  0.38614  0.88355  1.0000
  O   O5        1.0  0.57951  0.70135  0.47721  1.0000
  O   O6        1.0  0.07950  0.79865  0.02279  1.0000
  O   O7        1.0  0.42048  0.29864  0.52280  1.0000
  O   O8        1.0  0.92049  0.20135  0.97720  1.0000
  O   O9        1.0  0.01197  0.77066  0.71550  1.0000
  O   O10       1.0  0.51197  0.72934  0.78450  1.0000
  O   O11       1.0  0.98803  0.22934  0.28450  1.0000
  O   O12       1.0  0.48802  0.27066  0.21550  1.0000
  O   O13       1.0  0.23768  0.79175  0.64838  1.0000
  O   O14       1.0  0.73769  0.70825  0.85162  1.0000
  O   O15       1.0  0.76232  0.20825  0.35162  1.0000
  O   O16       1.0  0.26231  0.29175  0.14837  1.0000
  O   O17       1.0  0.01666  0.80568  0.57125  1.0000
  O   O18       1.0  0.51666  0.69432  0.92875  1.0000
  O   O19       1.0  0.98334  0.19432  0.42875  1.0000
  O   O20       1.0  0.48334  0.30568  0.07125  1.0000
