data_image0
_chemical_formula_structural       Cu12H40C36I12N16
_chemical_formula_sum              "Cu12 H40 C36 I12 N16"
_cell_length_a       9.25822
_cell_length_b       11.5092
_cell_length_c       14.7986
_cell_angle_alpha    89.9999
_cell_angle_beta     95.1533
_cell_angle_gamma    90

_space_group_name_H-M_alt    "P 1"
_space_group_IT_number       1

loop_
  _space_group_symop_operation_xyz
  'x, y, z'

loop_
  _atom_site_type_symbol
  _atom_site_label
  _atom_site_symmetry_multiplicity
  _atom_site_fract_x
  _atom_site_fract_y
  _atom_site_fract_z
  _atom_site_occupancy
  Cu  Cu1       1.0  0.21683  0.27992  0.24588  1.0000
  Cu  Cu2       1.0  0.28317  0.77992  0.25412  1.0000
  Cu  Cu3       1.0  0.78316  0.72008  0.75412  1.0000
  Cu  Cu4       1.0  0.71683  0.22008  0.74588  1.0000
  Cu  Cu5       1.0  0.21227  0.56622  0.23483  1.0000
  Cu  Cu6       1.0  0.28773  0.06622  0.26517  1.0000
  Cu  Cu7       1.0  0.78773  0.43378  0.76517  1.0000
  Cu  Cu8       1.0  0.71227  0.93378  0.73483  1.0000
  Cu  Cu9       1.0  0.45807  0.41905  0.25638  1.0000
  Cu  Cu10      1.0  0.04194  0.91905  0.24362  1.0000
  Cu  Cu11      1.0  0.54193  0.58095  0.74362  1.0000
  Cu  Cu12      1.0  0.95807  0.08095  0.75638  1.0000
  H   H1        1.0  0.74546  0.36448  0.48883  1.0000
  H   H2        1.0  0.75454  0.86448  0.01117  1.0000
  H   H3        1.0  0.25454  0.63552  0.51117  1.0000
  H   H4        1.0  0.24546  0.13552  0.98883  1.0000
  H   H5        1.0  0.67730  0.56558  0.52823  1.0000
  H   H6        1.0  0.82270  0.06559  0.97177  1.0000
  H   H7        1.0  0.32270  0.43441  0.47177  1.0000
  H   H8        1.0  0.17729  0.93442  0.02823  1.0000
  H   H9        1.0  0.78830  0.73566  0.46262  1.0000
  H   H10       1.0  0.71169  0.23566  0.03738  1.0000
  H   H11       1.0  0.21169  0.26434  0.53738  1.0000
  H   H12       1.0  0.28830  0.76434  0.96262  1.0000
  H   H13       1.0  0.97663  0.71413  0.35105  1.0000
  H   H14       1.0  0.52337  0.21413  0.14895  1.0000
  H   H15       1.0  0.02337  0.28587  0.64895  1.0000
  H   H16       1.0  0.47662  0.78587  0.85105  1.0000
  H   H17       1.0  0.85285  0.18006  0.33364  1.0000
  H   H18       1.0  0.64715  0.68006  0.16636  1.0000
  H   H19       1.0  0.14715  0.81994  0.66635  1.0000
  H   H20       1.0  0.35285  0.31994  0.83365  1.0000
  H   H21       1.0  0.91687  0.20199  0.45065  1.0000
  H   H22       1.0  0.58313  0.70199  0.04935  1.0000
  H   H23       1.0  0.08313  0.79801  0.54935  1.0000
  H   H24       1.0  0.41687  0.29801  0.95065  1.0000
  H   H25       1.0  0.04147  0.16310  0.36947  1.0000
  H   H26       1.0  0.45853  0.66310  0.13053  1.0000
  H   H27       1.0  0.95853  0.83691  0.63053  1.0000
  H   H28       1.0  0.54147  0.33691  0.86947  1.0000
  H   H29       1.0  0.93635  0.34789  0.12435  1.0000
  H   H30       1.0  0.56366  0.84789  0.37565  1.0000
  H   H31       1.0  0.06365  0.65211  0.87565  1.0000
  H   H32       1.0  0.43634  0.15211  0.62435  1.0000
  H   H33       1.0  0.93157  0.50319  0.12450  1.0000
  H   H34       1.0  0.56843  0.00319  0.37550  1.0000
  H   H35       1.0  0.06842  0.49682  0.87550  1.0000
  H   H36       1.0  0.43157  0.99681  0.62450  1.0000
  H   H37       1.0  0.82816  0.42445  0.03718  1.0000
  H   H38       1.0  0.67184  0.92446  0.46282  1.0000
  H   H39       1.0  0.17184  0.57554  0.96282  1.0000
  H   H40       1.0  0.32816  0.07554  0.53718  1.0000
  C   C1        1.0  0.90068  0.42825  0.39706  1.0000
  C   C2        1.0  0.59933  0.92825  0.10294  1.0000
  C   C3        1.0  0.09932  0.57175  0.60294  1.0000
  C   C4        1.0  0.40067  0.07175  0.89706  1.0000
  C   C5        1.0  0.79480  0.43913  0.45835  1.0000
  C   C6        1.0  0.70520  0.93913  0.04165  1.0000
  C   C7        1.0  0.20520  0.56087  0.54165  1.0000
  C   C8        1.0  0.29480  0.06087  0.95835  1.0000
  C   C9        1.0  0.75762  0.55181  0.47972  1.0000
  C   C10       1.0  0.74238  0.05180  0.02028  1.0000
  C   C11       1.0  0.24238  0.44820  0.52028  1.0000
  C   C12       1.0  0.25762  0.94820  0.97972  1.0000
  C   C13       1.0  0.82197  0.64985  0.44155  1.0000
  C   C14       1.0  0.67803  0.14985  0.05845  1.0000
  C   C15       1.0  0.17803  0.35015  0.55845  1.0000
  C   C16       1.0  0.32197  0.85015  0.94155  1.0000
  C   C17       1.0  0.92577  0.63929  0.38019  1.0000
  C   C18       1.0  0.57423  0.13929  0.11980  1.0000
  C   C19       1.0  0.07423  0.36070  0.61980  1.0000
  C   C20       1.0  0.42577  0.86071  0.88019  1.0000
  C   C21       1.0  0.96505  0.52560  0.35838  1.0000
  C   C22       1.0  0.53495  0.02560  0.14161  1.0000
  C   C23       1.0  0.03495  0.47441  0.64161  1.0000
  C   C24       1.0  0.46505  0.97441  0.85839  1.0000
  C   C25       1.0  0.94305  0.21227  0.38022  1.0000
  C   C26       1.0  0.55695  0.71227  0.11978  1.0000
  C   C27       1.0  0.05695  0.78772  0.61978  1.0000
  C   C28       1.0  0.44305  0.28773  0.88022  1.0000
  C   C29       1.0  0.74500  0.42171  0.16385  1.0000
  C   C30       1.0  0.75500  0.92172  0.33615  1.0000
  C   C31       1.0  0.25500  0.57829  0.83615  1.0000
  C   C32       1.0  0.24499  0.07829  0.66385  1.0000
  C   C33       1.0  0.86661  0.42424  0.10974  1.0000
  C   C34       1.0  0.63340  0.92424  0.39026  1.0000
  C   C35       1.0  0.13339  0.57576  0.89026  1.0000
  C   C36       1.0  0.36661  0.07576  0.60974  1.0000
  I   I1        1.0  0.27821  0.41495  0.10533  1.0000
  I   I2        1.0  0.22180  0.91495  0.39467  1.0000
  I   I3        1.0  0.72179  0.58505  0.89467  1.0000
  I   I4        1.0  0.77821  0.08505  0.60533  1.0000
  I   I5        1.0  0.43683  0.61513  0.34668  1.0000
  I   I6        1.0  0.06317  0.11514  0.15332  1.0000
  I   I7        1.0  0.56317  0.38487  0.65333  1.0000
  I   I8        1.0  0.93683  0.88487  0.84668  1.0000
  I   I9        1.0  0.43757  0.23416  0.36255  1.0000
  I   I10       1.0  0.06244  0.73416  0.13745  1.0000
  I   I11       1.0  0.56243  0.76584  0.63745  1.0000
  I   I12       1.0  0.93757  0.26584  0.86255  1.0000
  N   N1        1.0  0.96850  0.33431  0.36358  1.0000
  N   N2        1.0  0.53151  0.83431  0.13642  1.0000
  N   N3        1.0  0.03150  0.66569  0.63642  1.0000
  N   N4        1.0  0.46850  0.16569  0.86359  1.0000
  N   N5        1.0  0.06793  0.37021  0.30803  1.0000
  N   N6        1.0  0.43207  0.87021  0.19197  1.0000
  N   N7        1.0  0.93207  0.62979  0.69197  1.0000
  N   N8        1.0  0.56793  0.12978  0.80803  1.0000
  N   N9        1.0  0.06649  0.48480  0.30410  1.0000
  N   N10       1.0  0.43351  0.98480  0.19590  1.0000
  N   N11       1.0  0.93351  0.51520  0.69590  1.0000
  N   N12       1.0  0.56649  0.01520  0.80410  1.0000
  N   N13       1.0  0.64512  0.41934  0.20646  1.0000
  N   N14       1.0  0.85490  0.91935  0.29354  1.0000
  N   N15       1.0  0.35488  0.58065  0.79354  1.0000
  N   N16       1.0  0.14511  0.08066  0.70646  1.0000
