data_image0
_chemical_formula_structural       Ga4H32C16Cl8O8
_chemical_formula_sum              "Ga4 H32 C16 Cl8 O8"
_cell_length_a       8.17881
_cell_length_b       8.22772
_cell_length_c       11.1986
_cell_angle_alpha    90
_cell_angle_beta     89.9999
_cell_angle_gamma    89.9999

_space_group_name_H-M_alt    "P 1"
_space_group_IT_number       1

loop_
  _space_group_symop_operation_xyz
  'x, y, z'

loop_
  _atom_site_type_symbol
  _atom_site_label
  _atom_site_symmetry_multiplicity
  _atom_site_fract_x
  _atom_site_fract_y
  _atom_site_fract_z
  _atom_site_occupancy
  Ga  Ga1       1.0  0.10260  0.25000  0.25000  1.0000
  Ga  Ga2       1.0  0.39740  0.25000  0.25000  1.0000
  Ga  Ga3       1.0  0.89740  0.75000  0.75000  1.0000
  Ga  Ga4       1.0  0.60260  0.75000  0.75000  1.0000
  H   H1        1.0  0.15378  0.61488  0.33759  1.0000
  H   H2        1.0  0.34622  0.88511  0.33759  1.0000
  H   H3        1.0  0.15378  0.88512  0.16241  1.0000
  H   H4        1.0  0.34622  0.61488  0.16241  1.0000
  H   H5        1.0  0.84622  0.38512  0.66241  1.0000
  H   H6        1.0  0.65378  0.11489  0.66241  1.0000
  H   H7        1.0  0.84622  0.11489  0.83758  1.0000
  H   H8        1.0  0.65378  0.38512  0.83759  1.0000
  H   H9        1.0  0.20687  0.61826  0.49364  1.0000
  H   H10       1.0  0.29313  0.88174  0.49364  1.0000
  H   H11       1.0  0.20687  0.88174  0.00636  1.0000
  H   H12       1.0  0.29313  0.61826  0.00636  1.0000
  H   H13       1.0  0.79313  0.38174  0.50636  1.0000
  H   H14       1.0  0.70687  0.11826  0.50636  1.0000
  H   H15       1.0  0.79314  0.11826  0.99364  1.0000
  H   H16       1.0  0.70687  0.38174  0.99364  1.0000
  H   H17       1.0  0.14077  0.38434  0.61263  1.0000
  H   H18       1.0  0.35923  0.11565  0.61262  1.0000
  H   H19       1.0  0.14077  0.11565  0.88738  1.0000
  H   H20       1.0  0.35923  0.38435  0.88738  1.0000
  H   H21       1.0  0.85923  0.61565  0.38737  1.0000
  H   H22       1.0  0.64077  0.88435  0.38737  1.0000
  H   H23       1.0  0.85923  0.88435  0.11262  1.0000
  H   H24       1.0  0.64077  0.61565  0.11262  1.0000
  H   H25       1.0  0.04313  0.21533  0.53907  1.0000
  H   H26       1.0  0.45687  0.28467  0.53907  1.0000
  H   H27       1.0  0.04313  0.28467  0.96093  1.0000
  H   H28       1.0  0.45687  0.21533  0.96093  1.0000
  H   H29       1.0  0.95687  0.78467  0.46093  1.0000
  H   H30       1.0  0.54313  0.71533  0.46093  1.0000
  H   H31       1.0  0.95687  0.71533  0.03907  1.0000
  H   H32       1.0  0.54313  0.78467  0.03907  1.0000
  C   C1        1.0  0.11493  0.57952  0.42768  1.0000
  C   C2        1.0  0.38507  0.92048  0.42769  1.0000
  C   C3        1.0  0.11493  0.92048  0.07232  1.0000
  C   C4        1.0  0.38507  0.57952  0.07232  1.0000
  C   C5        1.0  0.88507  0.42048  0.57232  1.0000
  C   C6        1.0  0.61493  0.07952  0.57231  1.0000
  C   C7        1.0  0.88507  0.07952  0.92769  1.0000
  C   C8        1.0  0.61493  0.42048  0.92768  1.0000
  C   C9        1.0  0.05087  0.34805  0.54440  1.0000
  C   C10       1.0  0.44913  0.15195  0.54440  1.0000
  C   C11       1.0  0.05087  0.15195  0.95560  1.0000
  C   C12       1.0  0.44913  0.34805  0.95560  1.0000
  C   C13       1.0  0.94913  0.65195  0.45560  1.0000
  C   C14       1.0  0.55087  0.84805  0.45560  1.0000
  C   C15       1.0  0.94913  0.84805  0.04440  1.0000
  C   C16       1.0  0.55087  0.65195  0.04440  1.0000
  Cl  Cl1       1.0  0.95184  0.05985  0.33559  1.0000
  Cl  Cl2       1.0  0.54815  0.44015  0.33559  1.0000
  Cl  Cl3       1.0  0.95184  0.44015  0.16441  1.0000
  Cl  Cl4       1.0  0.54816  0.05985  0.16441  1.0000
  Cl  Cl5       1.0  0.04815  0.94015  0.66441  1.0000
  Cl  Cl6       1.0  0.45185  0.55985  0.66441  1.0000
  Cl  Cl7       1.0  0.04816  0.55985  0.83559  1.0000
  Cl  Cl8       1.0  0.45185  0.94015  0.83559  1.0000
  O   O1        1.0  0.10791  0.40388  0.42915  1.0000
  O   O2        1.0  0.39209  0.09612  0.42915  1.0000
  O   O3        1.0  0.10791  0.09612  0.07085  1.0000
  O   O4        1.0  0.39209  0.40388  0.07085  1.0000
  O   O5        1.0  0.89209  0.59612  0.57085  1.0000
  O   O6        1.0  0.60791  0.90388  0.57085  1.0000
  O   O7        1.0  0.89210  0.90388  0.92915  1.0000
  O   O8        1.0  0.60791  0.59612  0.92915  1.0000
