data_image0
_chemical_formula_structural       H32Ru2C44N2Cl4O12
_chemical_formula_sum              "H32 Ru2 C44 N2 Cl4 O12"
_cell_length_a       9.79574
_cell_length_b       10.7871
_cell_length_c       10.9949
_cell_angle_alpha    100.782
_cell_angle_beta     93.3226
_cell_angle_gamma    106.201

_space_group_name_H-M_alt    "P 1"
_space_group_IT_number       1

loop_
  _space_group_symop_operation_xyz
  'x, y, z'

loop_
  _atom_site_type_symbol
  _atom_site_label
  _atom_site_symmetry_multiplicity
  _atom_site_fract_x
  _atom_site_fract_y
  _atom_site_fract_z
  _atom_site_occupancy
  H   H1        1.0  0.68583  0.77464  0.34386  1.0000
  H   H2        1.0  0.31453  0.22557  0.65628  1.0000
  H   H3        1.0  0.76252  0.65850  0.15636  1.0000
  H   H4        1.0  0.23761  0.34163  0.84363  1.0000
  H   H5        1.0  0.01958  0.72795  0.11612  1.0000
  H   H6        1.0  0.98053  0.27210  0.88378  1.0000
  H   H7        1.0  0.19786  0.90265  0.26969  1.0000
  H   H8        1.0  0.80236  0.09730  0.73011  1.0000
  H   H9        1.0  0.55589  0.36270  0.37311  1.0000
  H   H10       1.0  0.44409  0.63747  0.62689  1.0000
  H   H11       1.0  0.69434  0.49509  0.33733  1.0000
  H   H12       1.0  0.30566  0.50501  0.66266  1.0000
  H   H13       1.0  0.54683  0.40095  0.22117  1.0000
  H   H14       1.0  0.45322  0.59907  0.77878  1.0000
  H   H15       1.0  0.33466  0.29006  0.29443  1.0000
  H   H16       1.0  0.66535  0.70996  0.70552  1.0000
  H   H17       1.0  0.94827  0.40065  0.34065  1.0000
  H   H18       1.0  0.05166  0.59922  0.65934  1.0000
  H   H19       1.0  0.09366  0.63699  0.40744  1.0000
  H   H20       1.0  0.90624  0.36293  0.59233  1.0000
  H   H21       1.0  0.23372  0.03045  0.89497  1.0000
  H   H22       1.0  0.76636  0.96956  0.10506  1.0000
  H   H23       1.0  0.11192  0.98021  0.00454  1.0000
  H   H24       1.0  0.88813  0.01982  0.99547  1.0000
  H   H25       1.0  0.19204  0.15281  0.00969  1.0000
  H   H26       1.0  0.80791  0.84721  0.99022  1.0000
  H   H27       1.0  0.41236  0.21118  0.92188  1.0000
  H   H28       1.0  0.58768  0.78883  0.07810  1.0000
  H   H29       1.0  0.84960  0.34277  0.09328  1.0000
  H   H30       1.0  0.15045  0.65715  0.90670  1.0000
  H   H31       1.0  0.77948  0.19701  0.24535  1.0000
  H   H32       1.0  0.22056  0.80313  0.75476  1.0000
  Ru  Ru1       1.0  0.61146  0.97984  0.50069  1.0000
  Ru  Ru2       1.0  0.38781  0.02040  0.49903  1.0000
  C   C1        1.0  0.89752  0.90577  0.41582  1.0000
  C   C2        1.0  0.10301  0.09400  0.58444  1.0000
  C   C3        1.0  0.79746  0.80289  0.32694  1.0000
  C   C4        1.0  0.20288  0.19713  0.67316  1.0000
  C   C5        1.0  0.84090  0.73817  0.22270  1.0000
  C   C6        1.0  0.15934  0.26185  0.77735  1.0000
  C   C7        1.0  0.98609  0.77575  0.20083  1.0000
  C   C8        1.0  0.01413  0.22420  0.79917  1.0000
  C   C9        1.0  0.08664  0.87222  0.28696  1.0000
  C   C10       1.0  0.91365  0.12772  0.71302  1.0000
  C   C11       1.0  0.04754  0.93611  0.39899  1.0000
  C   C12       1.0  0.95293  0.06357  0.60118  1.0000
  C   C13       1.0  0.37189  0.74215  0.42758  1.0000
  C   C14       1.0  0.62786  0.25784  0.57215  1.0000
  C   C15       1.0  0.29591  0.59958  0.39028  1.0000
  C   C16       1.0  0.70393  0.40038  0.60924  1.0000
  C   C17       1.0  0.36600  0.50091  0.35795  1.0000
  C   C18       1.0  0.63392  0.49911  0.64177  1.0000
  C   C19       1.0  0.57978  0.44238  0.32122  1.0000
  C   C20       1.0  0.42021  0.55774  0.67872  1.0000
  C   C21       1.0  0.28442  0.36805  0.31827  1.0000
  C   C22       1.0  0.71554  0.63194  0.68163  1.0000
  C   C23       1.0  0.13585  0.33464  0.31164  1.0000
  C   C24       1.0  0.86410  0.66529  0.68829  1.0000
  C   C25       1.0  0.06438  0.42914  0.34499  1.0000
  C   C26       1.0  0.93552  0.57075  0.65492  1.0000
  C   C27       1.0  0.14587  0.56037  0.38330  1.0000
  C   C28       1.0  0.85400  0.43957  0.61639  1.0000
  C   C29       1.0  0.52556  0.05669  0.27740  1.0000
  C   C30       1.0  0.47420  0.94365  0.72274  1.0000
  C   C31       1.0  0.55826  0.12473  0.17300  1.0000
  C   C32       1.0  0.44168  0.87564  0.82727  1.0000
  C   C33       1.0  0.45252  0.12743  0.08072  1.0000
  C   C34       1.0  0.54747  0.87278  0.91943  1.0000
  C   C35       1.0  0.20834  0.05448  0.99101  1.0000
  C   C36       1.0  0.79167  0.94558  0.00899  1.0000
  C   C37       1.0  0.49106  0.20813  0.99433  1.0000
  C   C38       1.0  0.50895  0.79192  0.00569  1.0000
  C   C39       1.0  0.63317  0.28471  0.00102  1.0000
  C   C40       1.0  0.36687  0.71530  0.99900  1.0000
  C   C41       1.0  0.73962  0.28158  0.08934  1.0000
  C   C42       1.0  0.26041  0.71842  0.91066  1.0000
  C   C43       1.0  0.69992  0.20069  0.17391  1.0000
  C   C44       1.0  0.30010  0.79945  0.82622  1.0000
  N   N1        1.0  0.85027  0.97269  0.51464  1.0000
  N   N2        1.0  0.15037  0.02682  0.48573  1.0000
  Cl  Cl1       1.0  0.03896  0.17040  0.26010  1.0000
  Cl  Cl2       1.0  0.96107  0.82945  0.74010  1.0000
  Cl  Cl3       1.0  0.67782  0.38746  0.89691  1.0000
  Cl  Cl4       1.0  0.32227  0.61250  0.10309  1.0000
  O   O1        1.0  0.50946  0.78296  0.44409  1.0000
  O   O2        1.0  0.49026  0.21703  0.55640  1.0000
  O   O3        1.0  0.29457  0.82113  0.44362  1.0000
  O   O4        1.0  0.70503  0.17864  0.55678  1.0000
  O   O5        1.0  0.51033  0.53989  0.36544  1.0000
  O   O6        1.0  0.48959  0.46020  0.63435  1.0000
  O   O7        1.0  0.62173  0.01234  0.32293  1.0000
  O   O8        1.0  0.37754  0.98724  0.67704  1.0000
  O   O9        1.0  0.40786  0.05463  0.32384  1.0000
  O   O10       1.0  0.59161  0.94521  0.67603  1.0000
  O   O11       1.0  0.31828  0.04853  0.07970  1.0000
  O   O12       1.0  0.68173  0.95167  0.92041  1.0000
