data_image0
_chemical_formula_structural       H32Ru2C46N2Cl4O16
_chemical_formula_sum              "H32 Ru2 C46 N2 Cl4 O16"
_cell_length_a       9.62908
_cell_length_b       10.5417
_cell_length_c       11.9298
_cell_angle_alpha    94.1097
_cell_angle_beta     96.3524
_cell_angle_gamma    101.24

_space_group_name_H-M_alt    "P 1"
_space_group_IT_number       1

loop_
  _space_group_symop_operation_xyz
  'x, y, z'

loop_
  _atom_site_type_symbol
  _atom_site_label
  _atom_site_symmetry_multiplicity
  _atom_site_fract_x
  _atom_site_fract_y
  _atom_site_fract_z
  _atom_site_occupancy
  H   H1        1.0  0.55609  0.41644  0.23275  1.0000
  H   H2        1.0  0.44393  0.58357  0.76722  1.0000
  H   H3        1.0  0.70379  0.48594  0.33926  1.0000
  H   H4        1.0  0.29625  0.51407  0.66071  1.0000
  H   H5        1.0  0.56645  0.35707  0.37050  1.0000
  H   H6        1.0  0.43359  0.64295  0.62948  1.0000
  H   H7        1.0  0.34473  0.31082  0.30008  1.0000
  H   H8        1.0  0.65532  0.68919  0.69991  1.0000
  H   H9        1.0  0.96036  0.44869  0.34370  1.0000
  H   H10       1.0  0.03968  0.55130  0.65632  1.0000
  H   H11       1.0  0.10618  0.66959  0.40957  1.0000
  H   H12       1.0  0.89386  0.33041  0.59043  1.0000
  H   H13       1.0  0.70177  0.77969  0.36807  1.0000
  H   H14       1.0  0.29827  0.22029  0.63196  1.0000
  H   H15       1.0  0.77926  0.69580  0.19293  1.0000
  H   H16       1.0  0.22079  0.30419  0.80709  1.0000
  H   H17       1.0  0.02676  0.78368  0.14594  1.0000
  H   H18       1.0  0.97326  0.21634  0.85406  1.0000
  H   H19       1.0  0.19495  0.94632  0.28074  1.0000
  H   H20       1.0  0.80507  0.05370  0.71926  1.0000
  H   H21       1.0  0.18736  0.01982  0.95221  1.0000
  H   H22       1.0  0.81267  0.98018  0.04779  1.0000
  H   H23       1.0  0.08701  0.03652  0.06919  1.0000
  H   H24       1.0  0.91300  0.96352  0.93079  1.0000
  H   H25       1.0  0.18001  0.17802  0.01514  1.0000
  H   H26       1.0  0.82005  0.82199  0.98483  1.0000
  H   H27       1.0  0.38019  0.16787  0.92306  1.0000
  H   H28       1.0  0.61983  0.83213  0.07695  1.0000
  H   H29       1.0  0.82897  0.25174  0.04810  1.0000
  H   H30       1.0  0.17104  0.74828  0.95192  1.0000
  H   H31       1.0  0.77172  0.16063  0.22885  1.0000
  H   H32       1.0  0.22830  0.83935  0.77116  1.0000
  Ru  Ru1       1.0  0.61256  0.97256  0.50566  1.0000
  Ru  Ru2       1.0  0.38748  0.02744  0.49434  1.0000
  C   C1        1.0  0.38225  0.75260  0.43204  1.0000
  C   C2        1.0  0.61778  0.24741  0.56796  1.0000
  C   C3        1.0  0.30771  0.61773  0.39297  1.0000
  C   C4        1.0  0.69233  0.38228  0.60703  1.0000
  C   C5        1.0  0.37711  0.51593  0.36038  1.0000
  C   C6        1.0  0.62293  0.48408  0.63961  1.0000
  C   C7        1.0  0.58943  0.44343  0.32400  1.0000
  C   C8        1.0  0.41060  0.55658  0.67598  1.0000
  C   C9        1.0  0.29519  0.39171  0.32289  1.0000
  C   C10       1.0  0.70485  0.60830  0.67710  1.0000
  C   C11       1.0  0.14717  0.37011  0.31765  1.0000
  C   C12       1.0  0.85288  0.62990  0.68236  1.0000
  C   C13       1.0  0.07618  0.46804  0.34881  1.0000
  C   C14       1.0  0.92387  0.53196  0.65121  1.0000
  C   C15       1.0  0.15785  0.59035  0.38589  1.0000
  C   C16       1.0  0.84218  0.40965  0.61411  1.0000
  C   C17       1.0  0.90270  0.91263  0.42602  1.0000
  C   C18       1.0  0.09736  0.08737  0.57400  1.0000
  C   C19       1.0  0.80902  0.81659  0.34836  1.0000
  C   C20       1.0  0.19103  0.18340  0.65166  1.0000
  C   C21       1.0  0.85335  0.77011  0.25041  1.0000
  C   C22       1.0  0.14671  0.22989  0.74960  1.0000
  C   C23       1.0  0.99266  0.81893  0.22454  1.0000
  C   C24       1.0  0.00738  0.18109  0.77546  1.0000
  C   C25       1.0  0.08787  0.90848  0.29998  1.0000
  C   C26       1.0  0.91216  0.09153  0.70003  1.0000
  C   C27       1.0  0.04827  0.95423  0.40445  1.0000
  C   C28       1.0  0.95178  0.04577  0.59556  1.0000
  C   C29       1.0  0.52333  0.06631  0.29165  1.0000
  C   C30       1.0  0.47668  0.93369  0.70835  1.0000
  C   C31       1.0  0.54584  0.11599  0.18084  1.0000
  C   C32       1.0  0.45418  0.88400  0.81916  1.0000
  C   C33       1.0  0.43314  0.11977  0.09474  1.0000
  C   C34       1.0  0.56686  0.88022  0.90526  1.0000
  C   C35       1.0  0.18257  0.07725  0.03187  1.0000
  C   C36       1.0  0.81746  0.92276  0.96812  1.0000
  C   C37       1.0  0.46435  0.16795  0.99183  1.0000
  C   C38       1.0  0.53567  0.83205  0.00817  1.0000
  C   C39       1.0  0.60626  0.21370  0.97650  1.0000
  C   C40       1.0  0.39376  0.78629  0.02350  1.0000
  C   C41       1.0  0.71892  0.21397  0.06098  1.0000
  C   C42       1.0  0.28110  0.78603  0.93902  1.0000
  C   C43       1.0  0.68655  0.16338  0.16160  1.0000
  C   C44       1.0  0.31348  0.83662  0.83841  1.0000
  C   C45       1.0  0.21970  0.43949  0.01759  1.0000
  C   C46       1.0  0.77977  0.56045  0.98240  1.0000
  N   N1        1.0  0.85344  0.96250  0.51915  1.0000
  N   N2        1.0  0.14661  0.03749  0.48087  1.0000
  Cl  Cl1       1.0  0.04964  0.21631  0.27049  1.0000
  Cl  Cl2       1.0  0.95041  0.78369  0.72953  1.0000
  Cl  Cl3       1.0  0.64353  0.26961  0.84798  1.0000
  Cl  Cl4       1.0  0.35649  0.73039  0.15202  1.0000
  O   O1        1.0  0.51907  0.78265  0.45364  1.0000
  O   O2        1.0  0.48097  0.21736  0.54636  1.0000
  O   O3        1.0  0.30282  0.83615  0.44356  1.0000
  O   O4        1.0  0.69721  0.16386  0.55643  1.0000
  O   O5        1.0  0.52105  0.54343  0.36532  1.0000
  O   O6        1.0  0.47899  0.45658  0.63466  1.0000
  O   O7        1.0  0.62415  0.01985  0.34254  1.0000
  O   O8        1.0  0.37587  0.98013  0.65746  1.0000
  O   O9        1.0  0.40832  0.07605  0.33367  1.0000
  O   O10       1.0  0.59171  0.92396  0.66634  1.0000
  O   O11       1.0  0.29854  0.07168  0.11554  1.0000
  O   O12       1.0  0.70148  0.92833  0.88446  1.0000
  O   O13       1.0  0.33304  0.45353  0.98656  1.0000
  O   O14       1.0  0.66647  0.54622  0.01351  1.0000
  O   O15       1.0  0.10552  0.42271  0.04710  1.0000
  O   O16       1.0  0.89394  0.57740  0.95282  1.0000
