data_image0
_chemical_formula_structural       H32Rh2C44N2Cl4O12
_chemical_formula_sum              "H32 Rh2 C44 N2 Cl4 O12"
_cell_length_a       9.39866
_cell_length_b       12.3048
_cell_length_c       12.2773
_cell_angle_alpha    91.0397
_cell_angle_beta     71.9623
_cell_angle_gamma    81.9269

_space_group_name_H-M_alt    "P 1"
_space_group_IT_number       1

loop_
  _space_group_symop_operation_xyz
  'x, y, z'

loop_
  _atom_site_type_symbol
  _atom_site_label
  _atom_site_symmetry_multiplicity
  _atom_site_fract_x
  _atom_site_fract_y
  _atom_site_fract_z
  _atom_site_occupancy
  H   H1        1.0  0.05551  0.40167  0.55148  1.0000
  H   H2        1.0  0.94449  0.59830  0.44851  1.0000
  H   H3        1.0  0.11829  0.26781  0.47647  1.0000
  H   H4        1.0  0.88176  0.73215  0.52350  1.0000
  H   H5        1.0  0.99990  0.37076  0.42861  1.0000
  H   H6        1.0  0.00012  0.62920  0.57135  1.0000
  H   H7        1.0  0.26967  0.31641  0.57599  1.0000
  H   H8        1.0  0.73027  0.68362  0.42403  1.0000
  H   H9        1.0  0.74030  0.35179  0.46739  1.0000
  H   H10       1.0  0.25968  0.64826  0.53263  1.0000
  H   H11       1.0  0.71464  0.42553  0.28527  1.0000
  H   H12       1.0  0.28534  0.57449  0.71476  1.0000
  H   H13       1.0  0.96577  0.06649  0.91267  1.0000
  H   H14       1.0  0.03423  0.93353  0.08733  1.0000
  H   H15       1.0  0.92412  0.00294  0.79536  1.0000
  H   H16       1.0  0.07589  0.99707  0.20464  1.0000
  H   H17       1.0  0.85293  0.95770  0.93793  1.0000
  H   H18       1.0  0.14710  0.04229  0.06207  1.0000
  H   H19       1.0  0.70869  0.91791  0.83574  1.0000
  H   H20       1.0  0.29130  0.08207  0.16428  1.0000
  H   H21       1.0  0.25595  0.03262  0.83354  1.0000
  H   H22       1.0  0.74408  0.96736  0.16646  1.0000
  H   H23       1.0  0.27403  0.21915  0.90745  1.0000
  H   H24       1.0  0.72598  0.78085  0.09253  1.0000
  H   H25       1.0  0.16981  0.39407  0.19626  1.0000
  H   H26       1.0  0.83017  0.60594  0.80373  1.0000
  H   H27       1.0  0.06026  0.22304  0.24865  1.0000
  H   H28       1.0  0.93975  0.77697  0.75132  1.0000
  H   H29       1.0  0.87959  0.16448  0.15342  1.0000
  H   H30       1.0  0.12042  0.83550  0.84656  1.0000
  H   H31       1.0  0.80263  0.28084  0.01319  1.0000
  H   H32       1.0  0.19734  0.71912  0.98682  1.0000
  Rh  Rh1       1.0  0.36287  0.51563  0.02748  1.0000
  Rh  Rh2       1.0  0.63714  0.48438  0.97252  1.0000
  C   C1        1.0  0.47938  0.45325  0.21201  1.0000
  C   C2        1.0  0.52065  0.54673  0.78799  1.0000
  C   C3        1.0  0.47866  0.41528  0.32642  1.0000
  C   C4        1.0  0.52135  0.58471  0.67358  1.0000
  C   C5        1.0  0.35059  0.38459  0.40982  1.0000
  C   C6        1.0  0.64941  0.61541  0.59018  1.0000
  C   C7        1.0  0.09133  0.35648  0.46681  1.0000
  C   C8        1.0  0.90871  0.64350  0.53315  1.0000
  C   C9        1.0  0.36564  0.34117  0.51120  1.0000
  C   C10       1.0  0.63435  0.65884  0.48881  1.0000
  C   C11       1.0  0.50558  0.32950  0.53011  1.0000
  C   C12       1.0  0.49440  0.67054  0.46992  1.0000
  C   C13       1.0  0.63244  0.36050  0.45048  1.0000
  C   C14       1.0  0.36754  0.63954  0.54956  1.0000
  C   C15       1.0  0.61691  0.40242  0.34992  1.0000
  C   C16       1.0  0.38309  0.59758  0.65011  1.0000
  C   C17       1.0  0.50480  0.29200  0.94546  1.0000
  C   C18       1.0  0.49519  0.70802  0.05454  1.0000
  C   C19       1.0  0.50185  0.17665  0.90951  1.0000
  C   C20       1.0  0.49814  0.82335  0.09049  1.0000
  C   C21       1.0  0.62686  0.09085  0.88894  1.0000
  C   C22       1.0  0.37314  0.90915  0.11107  1.0000
  C   C23       1.0  0.88038  0.02926  0.88750  1.0000
  C   C24       1.0  0.11961  0.97076  0.11251  1.0000
  C   C25       1.0  0.61612  0.98564  0.84923  1.0000
  C   C26       1.0  0.38389  0.01437  0.15077  1.0000
  C   C27       1.0  0.48311  0.96627  0.82978  1.0000
  C   C28       1.0  0.51691  0.03373  0.17022  1.0000
  C   C29       1.0  0.35825  0.04897  0.85044  1.0000
  C   C30       1.0  0.64177  0.95103  0.14956  1.0000
  C   C31       1.0  0.36922  0.15262  0.89100  1.0000
  C   C32       1.0  0.63077  0.84738  0.10901  1.0000
  C   C33       1.0  0.04930  0.43592  0.07489  1.0000
  C   C34       1.0  0.95070  0.56406  0.92509  1.0000
  C   C35       1.0  0.08984  0.36844  0.15694  1.0000
  C   C36       1.0  0.91015  0.63157  0.84307  1.0000
  C   C37       1.0  0.02902  0.27342  0.18483  1.0000
  C   C38       1.0  0.97096  0.72658  0.81516  1.0000
  C   C39       1.0  0.92732  0.24000  0.13081  1.0000
  C   C40       1.0  0.07269  0.75999  0.86918  1.0000
  C   C41       1.0  0.88285  0.30451  0.05332  1.0000
  C   C42       1.0  0.11714  0.69548  0.94668  1.0000
  C   C43       1.0  0.93830  0.40578  0.02590  1.0000
  C   C44       1.0  0.06168  0.59420  0.97408  1.0000
  N   N1        1.0  0.11502  0.52735  0.04456  1.0000
  N   N2        1.0  0.88498  0.47264  0.95541  1.0000
  Cl  Cl1       1.0  0.52108  0.27541  0.65559  1.0000
  Cl  Cl2       1.0  0.47889  0.72462  0.34445  1.0000
  Cl  Cl3       1.0  0.47310  0.83620  0.77974  1.0000
  Cl  Cl4       1.0  0.52692  0.16381  0.22025  1.0000
  O   O1        1.0  0.35405  0.48117  0.19163  1.0000
  O   O2        1.0  0.64598  0.51883  0.80836  1.0000
  O   O3        1.0  0.61113  0.45326  0.13926  1.0000
  O   O4        1.0  0.38889  0.54672  0.86074  1.0000
  O   O5        1.0  0.21655  0.39642  0.38746  1.0000
  O   O6        1.0  0.78346  0.60356  0.61254  1.0000
  O   O7        1.0  0.37540  0.35303  0.98517  1.0000
  O   O8        1.0  0.62459  0.64698  0.01485  1.0000
  O   O9        1.0  0.63287  0.32389  0.93151  1.0000
  O   O10       1.0  0.36712  0.67614  0.06846  1.0000
  O   O11       1.0  0.75237  0.11391  0.91135  1.0000
  O   O12       1.0  0.24763  0.88609  0.08866  1.0000
