data_image0
_chemical_formula_structural       Cu2H16C20N8Cl2O8
_chemical_formula_sum              "Cu2 H16 C20 N8 Cl2 O8"
_cell_length_a       4.76306
_cell_length_b       5.07888
_cell_length_c       26.4373
_cell_angle_alpha    89.9758
_cell_angle_beta     90.0031
_cell_angle_gamma    89.2186

_space_group_name_H-M_alt    "P 1"
_space_group_IT_number       1

loop_
  _space_group_symop_operation_xyz
  'x, y, z'

loop_
  _atom_site_type_symbol
  _atom_site_label
  _atom_site_symmetry_multiplicity
  _atom_site_fract_x
  _atom_site_fract_y
  _atom_site_fract_z
  _atom_site_occupancy
  Cu  Cu1       1.0  0.43769  0.18142  0.50079  1.0000
  Cu  Cu2       1.0  0.06284  0.81853  0.00083  1.0000
  H   H1        1.0  0.21074  0.33005  0.40112  1.0000
  H   H2        1.0  0.77565  0.31538  0.59597  1.0000
  H   H3        1.0  0.72490  0.68450  0.09596  1.0000
  H   H4        1.0  0.28978  0.66994  0.90114  1.0000
  H   H5        1.0  0.86292  0.61330  0.36291  1.0000
  H   H6        1.0  0.15096  0.60283  0.64141  1.0000
  H   H7        1.0  0.34834  0.39776  0.14139  1.0000
  H   H8        1.0  0.63689  0.38635  0.86290  1.0000
  H   H9        1.0  0.81399  0.79044  0.45197  1.0000
  H   H10       1.0  0.19418  0.75353  0.55108  1.0000
  H   H11       1.0  0.30627  0.24657  0.05112  1.0000
  H   H12       1.0  0.68691  0.20962  0.95201  1.0000
  H   H13       1.0  0.19235  0.17234  0.22639  1.0000
  H   H14       1.0  0.79980  0.18941  0.77171  1.0000
  H   H15       1.0  0.69957  0.81030  0.27167  1.0000
  H   H16       1.0  0.30688  0.82771  0.72638  1.0000
  C   C1        1.0  0.36256  0.17459  0.39230  1.0000
  C   C2        1.0  0.63154  0.15947  0.60622  1.0000
  C   C3        1.0  0.86878  0.84051  0.10621  1.0000
  C   C4        1.0  0.13780  0.82538  0.89231  1.0000
  C   C5        1.0  0.40039  0.08236  0.34300  1.0000
  C   C6        1.0  0.60041  0.07732  0.65628  1.0000
  C   C7        1.0  0.89944  0.92279  0.15625  1.0000
  C   C8        1.0  0.09959  0.91751  0.84301  1.0000
  C   C9        1.0  0.72191  0.77823  0.37168  1.0000
  C   C10       1.0  0.28745  0.76502  0.63104  1.0000
  C   C11       1.0  0.21225  0.23531  0.13104  1.0000
  C   C12       1.0  0.77814  0.22162  0.87169  1.0000
  C   C13       1.0  0.69302  0.87489  0.42076  1.0000
  C   C14       1.0  0.31171  0.84849  0.58130  1.0000
  C   C15       1.0  0.18849  0.15168  0.08131  1.0000
  C   C16       1.0  0.80756  0.12511  0.92079  1.0000
  C   C17       1.0  0.22831  0.20341  0.30093  1.0000
  C   C18       1.0  0.76885  0.20552  0.69746  1.0000
  C   C19       1.0  0.73072  0.79459  0.19742  1.0000
  C   C20       1.0  0.27133  0.79650  0.80092  1.0000
  N   N1        1.0  0.51007  0.07271  0.43123  1.0000
  N   N2        1.0  0.48261  0.04915  0.56839  1.0000
  N   N3        1.0  0.01795  0.95087  0.06839  1.0000
  N   N4        1.0  0.99060  0.92732  0.93126  1.0000
  N   N5        1.0  0.57831  0.88188  0.33272  1.0000
  N   N6        1.0  0.42832  0.87998  0.66882  1.0000
  N   N7        1.0  0.07117  0.12031  0.16879  1.0000
  N   N8        1.0  0.92144  0.11787  0.83272  1.0000
  Cl  Cl1       1.0  0.01088  0.40648  0.49764  1.0000
  Cl  Cl2       1.0  0.48989  0.59345  0.99771  1.0000
  O   O1        1.0  0.01472  0.33346  0.31056  1.0000
  O   O2        1.0  0.98099  0.33099  0.68757  1.0000
  O   O3        1.0  0.51846  0.66938  0.18749  1.0000
  O   O4        1.0  0.48485  0.66623  0.81054  1.0000
  O   O5        1.0  0.33107  0.14752  0.25613  1.0000
  O   O6        1.0  0.66386  0.16016  0.74263  1.0000
  O   O7        1.0  0.83559  0.83955  0.24260  1.0000
  O   O8        1.0  0.16832  0.85242  0.75614  1.0000
