data_image0
_chemical_formula_structural       Ca2H20C20N12O10
_chemical_formula_sum              "Ca2 H20 C20 N12 O10"
_cell_length_a       6.32745
_cell_length_b       9.95372
_cell_length_c       11.7076
_cell_angle_alpha    110.37
_cell_angle_beta     105.668
_cell_angle_gamma    90.0198

_space_group_name_H-M_alt    "P 1"
_space_group_IT_number       1

loop_
  _space_group_symop_operation_xyz
  'x, y, z'

loop_
  _atom_site_type_symbol
  _atom_site_label
  _atom_site_symmetry_multiplicity
  _atom_site_fract_x
  _atom_site_fract_y
  _atom_site_fract_z
  _atom_site_occupancy
  Ca  Ca1       1.0  0.71330  0.25002  0.99998  1.0000
  Ca  Ca2       1.0  0.28670  0.74998  0.00002  1.0000
  H   H1        1.0  0.16645  0.30724  0.96925  1.0000
  H   H2        1.0  0.19722  0.19255  0.03087  1.0000
  H   H3        1.0  0.83356  0.69275  0.03075  1.0000
  H   H4        1.0  0.80279  0.80745  0.96914  1.0000
  H   H5        1.0  0.93027  0.28484  0.56805  1.0000
  H   H6        1.0  0.36168  0.21521  0.43178  1.0000
  H   H7        1.0  0.06972  0.71514  0.43194  1.0000
  H   H8        1.0  0.63831  0.78480  0.56821  1.0000
  H   H9        1.0  0.96236  0.20575  0.75450  1.0000
  H   H10       1.0  0.20755  0.29404  0.24522  1.0000
  H   H11       1.0  0.03764  0.79426  0.24551  1.0000
  H   H12       1.0  0.79242  0.70596  0.75477  1.0000
  H   H13       1.0  0.26407  0.55620  0.68979  1.0000
  H   H14       1.0  0.57383  0.94360  0.31035  1.0000
  H   H15       1.0  0.73594  0.44380  0.31021  1.0000
  H   H16       1.0  0.42617  0.05639  0.68966  1.0000
  H   H17       1.0  0.35317  0.55095  0.55384  1.0000
  H   H18       1.0  0.79917  0.94915  0.44626  1.0000
  H   H19       1.0  0.64682  0.44906  0.44617  1.0000
  H   H20       1.0  0.20085  0.05085  0.55375  1.0000
  C   C1        1.0  0.37578  0.42282  0.84699  1.0000
  C   C2        1.0  0.52845  0.07705  0.15289  1.0000
  C   C3        1.0  0.62423  0.57718  0.15300  1.0000
  C   C4        1.0  0.47154  0.92294  0.84711  1.0000
  C   C5        1.0  0.53372  0.39042  0.76780  1.0000
  C   C6        1.0  0.76559  0.10934  0.23206  1.0000
  C   C7        1.0  0.46630  0.60958  0.23221  1.0000
  C   C8        1.0  0.23439  0.89066  0.76794  1.0000
  C   C9        1.0  0.51781  0.43916  0.66418  1.0000
  C   C10       1.0  0.85319  0.06079  0.33578  1.0000
  C   C11       1.0  0.48219  0.56085  0.33582  1.0000
  C   C12       1.0  0.14681  0.93920  0.66422  1.0000
  C   C13       1.0  0.81632  0.31649  0.62575  1.0000
  C   C14       1.0  0.19003  0.18356  0.37412  1.0000
  C   C15       1.0  0.18367  0.68351  0.37424  1.0000
  C   C16       1.0  0.80997  0.81644  0.62588  1.0000
  C   C17       1.0  0.83476  0.27155  0.72801  1.0000
  C   C18       1.0  0.10629  0.22842  0.27183  1.0000
  C   C19       1.0  0.16525  0.72845  0.27199  1.0000
  C   C20       1.0  0.89369  0.77158  0.72816  1.0000
  N   N1        1.0  0.66187  0.39824  0.59327  1.0000
  N   N2        1.0  0.06803  0.10188  0.40670  1.0000
  N   N3        1.0  0.33813  0.60176  0.40672  1.0000
  N   N4        1.0  0.93198  0.89812  0.59330  1.0000
  N   N5        1.0  0.36315  0.52197  0.63164  1.0000
  N   N6        1.0  0.73100  0.97820  0.36854  1.0000
  N   N7        1.0  0.63686  0.47805  0.36836  1.0000
  N   N8        1.0  0.26901  0.02180  0.63146  1.0000
  N   N9        1.0  0.69239  0.30893  0.79719  1.0000
  N   N10       1.0  0.89478  0.19094  0.20268  1.0000
  N   N11       1.0  0.30763  0.69108  0.20281  1.0000
  N   N12       1.0  0.10520  0.80905  0.79732  1.0000
  O   O1        1.0  0.24630  0.51904  0.83849  1.0000
  O   O2        1.0  0.40726  0.98091  0.16145  1.0000
  O   O3        1.0  0.75372  0.48096  0.16150  1.0000
  O   O4        1.0  0.59272  0.01909  0.83856  1.0000
  O   O5        1.0  0.38222  0.35034  0.91848  1.0000
  O   O6        1.0  0.46357  0.14955  0.08144  1.0000
  O   O7        1.0  0.61780  0.64967  0.08153  1.0000
  O   O8        1.0  0.53643  0.85044  0.91856  1.0000
  O   O9        1.0  0.08201  0.24991  0.00009  1.0000
  O   O10       1.0  0.91800  0.75008  0.99990  1.0000
