data_image0
_chemical_formula_structural       Cd2H40C52N12O10
_chemical_formula_sum              "Cd2 H40 C52 N12 O10"
_cell_length_a       9.08074
_cell_length_b       10.088
_cell_length_c       14.711
_cell_angle_alpha    104.7
_cell_angle_beta     99.8834
_cell_angle_gamma    108.353

_space_group_name_H-M_alt    "P 1"
_space_group_IT_number       1

loop_
  _space_group_symop_operation_xyz
  'x, y, z'

loop_
  _atom_site_type_symbol
  _atom_site_label
  _atom_site_symmetry_multiplicity
  _atom_site_fract_x
  _atom_site_fract_y
  _atom_site_fract_z
  _atom_site_occupancy
  Cd  Cd1       1.0  0.01881  0.18735  0.27750  1.0000
  Cd  Cd2       1.0  0.98121  0.81265  0.72251  1.0000
  H   H1        1.0  0.38429  0.72628  0.54116  1.0000
  H   H2        1.0  0.61571  0.27372  0.45884  1.0000
  H   H3        1.0  0.06183  0.14730  0.90758  1.0000
  H   H4        1.0  0.93817  0.85270  0.09243  1.0000
  H   H5        1.0  0.61560  0.15424  0.04871  1.0000
  H   H6        1.0  0.38440  0.84577  0.95129  1.0000
  H   H7        1.0  0.37024  0.20510  0.27320  1.0000
  H   H8        1.0  0.62977  0.79492  0.72681  1.0000
  H   H9        1.0  0.38127  0.13791  0.92257  1.0000
  H   H10       1.0  0.61872  0.86209  0.07742  1.0000
  H   H11       1.0  0.90078  0.19827  0.03277  1.0000
  H   H12       1.0  0.09924  0.80173  0.96724  1.0000
  H   H13       1.0  0.94364  0.66559  0.16709  1.0000
  H   H14       1.0  0.05636  0.33441  0.83291  1.0000
  H   H15       1.0  0.29395  0.92692  0.44440  1.0000
  H   H16       1.0  0.70605  0.07309  0.55559  1.0000
  H   H17       1.0  0.96992  0.43283  0.18182  1.0000
  H   H18       1.0  0.03007  0.56717  0.81819  1.0000
  H   H19       1.0  0.33469  0.45372  0.48648  1.0000
  H   H20       1.0  0.66531  0.54628  0.51352  1.0000
  H   H21       1.0  0.81710  0.20268  0.38921  1.0000
  H   H22       1.0  0.18289  0.79731  0.61079  1.0000
  H   H23       1.0  0.99136  0.23886  0.47079  1.0000
  H   H24       1.0  0.00864  0.76114  0.52921  1.0000
  H   H25       1.0  0.78314  0.48182  0.35913  1.0000
  H   H26       1.0  0.21685  0.51816  0.64085  1.0000
  H   H27       1.0  0.88771  0.92778  0.48855  1.0000
  H   H28       1.0  0.11228  0.07220  0.51144  1.0000
  H   H29       1.0  0.68785  0.93254  0.35542  1.0000
  H   H30       1.0  0.31215  0.06746  0.64457  1.0000
  H   H31       1.0  0.56413  0.46126  0.22496  1.0000
  H   H32       1.0  0.43589  0.53874  0.77502  1.0000
  H   H33       1.0  0.47475  0.90841  0.26759  1.0000
  H   H34       1.0  0.52524  0.09158  0.73241  1.0000
  H   H35       1.0  0.43911  0.47342  0.09893  1.0000
  H   H36       1.0  0.56088  0.52657  0.90106  1.0000
  H   H37       1.0  0.22772  0.47520  0.97007  1.0000
  H   H38       1.0  0.77226  0.52479  0.02992  1.0000
  H   H39       1.0  0.26641  0.89251  0.13044  1.0000
  H   H40       1.0  0.73359  0.10748  0.86956  1.0000
  C   C1        1.0  0.65183  0.19023  0.23842  1.0000
  C   C2        1.0  0.34818  0.80978  0.76158  1.0000
  C   C3        1.0  0.50632  0.18115  0.16684  1.0000
  C   C4        1.0  0.49368  0.81887  0.83316  1.0000
  C   C5        1.0  0.50812  0.16233  0.06847  1.0000
  C   C6        1.0  0.49188  0.83766  0.93152  1.0000
  C   C7        1.0  0.37241  0.19305  0.19780  1.0000
  C   C8        1.0  0.62760  0.80698  0.80221  1.0000
  C   C9        1.0  0.37905  0.15467  0.99829  1.0000
  C   C10       1.0  0.62094  0.84531  0.00170  1.0000
  C   C11       1.0  0.24276  0.18755  0.12840  1.0000
  C   C12       1.0  0.75726  0.81248  0.87161  1.0000
  C   C13       1.0  0.24655  0.16871  0.02995  1.0000
  C   C14       1.0  0.75345  0.83129  0.97006  1.0000
  C   C15       1.0  0.01710  0.18790  0.04981  1.0000
  C   C16       1.0  0.98291  0.81211  0.95020  1.0000
  C   C17       1.0  0.09454  0.94259  0.29035  1.0000
  C   C18       1.0  0.90547  0.05741  0.70965  1.0000
  C   C19       1.0  0.11822  0.80766  0.30370  1.0000
  C   C20       1.0  0.88178  0.19234  0.69630  1.0000
  C   C21       1.0  0.02750  0.66872  0.23077  1.0000
  C   C22       1.0  0.97249  0.33127  0.76924  1.0000
  C   C23       1.0  0.22613  0.81946  0.38840  1.0000
  C   C24       1.0  0.77388  0.18055  0.61160  1.0000
  C   C25       1.0  0.04143  0.53883  0.23852  1.0000
  C   C26       1.0  0.95857  0.46116  0.76149  1.0000
  C   C27       1.0  0.23830  0.68863  0.39722  1.0000
  C   C28       1.0  0.76171  0.31138  0.60279  1.0000
  C   C29       1.0  0.14809  0.54940  0.32341  1.0000
  C   C30       1.0  0.85192  0.45061  0.67659  1.0000
  C   C31       1.0  0.28685  0.50861  0.44129  1.0000
  C   C32       1.0  0.71315  0.49139  0.55871  1.0000
  C   C33       1.0  0.75693  0.57925  0.35618  1.0000
  C   C34       1.0  0.24306  0.42074  0.64382  1.0000
  C   C35       1.0  0.81591  0.82714  0.42737  1.0000
  C   C36       1.0  0.18407  0.17285  0.57262  1.0000
  C   C37       1.0  0.69883  0.82761  0.35328  1.0000
  C   C38       1.0  0.30117  0.17238  0.64671  1.0000
  C   C39       1.0  0.63439  0.56867  0.28025  1.0000
  C   C40       1.0  0.36561  0.43132  0.71974  1.0000
  C   C41       1.0  0.60337  0.69549  0.27706  1.0000
  C   C42       1.0  0.39663  0.30450  0.72293  1.0000
  C   C43       1.0  0.47687  0.69086  0.19697  1.0000
  C   C44       1.0  0.52312  0.30913  0.80302  1.0000
  C   C45       1.0  0.42530  0.80940  0.20329  1.0000
  C   C46       1.0  0.57469  0.19059  0.79671  1.0000
  C   C47       1.0  0.40366  0.56867  0.11057  1.0000
  C   C48       1.0  0.59634  0.43133  0.88942  1.0000
  C   C49       1.0  0.28481  0.56974  0.03743  1.0000
  C   C50       1.0  0.71518  0.43025  0.96256  1.0000
  C   C51       1.0  0.30590  0.79980  0.12579  1.0000
  C   C52       1.0  0.69410  0.20020  0.87420  1.0000
  N   N1        1.0  0.18170  0.43957  0.35365  1.0000
  N   N2        1.0  0.81831  0.56044  0.64635  1.0000
  N   N3        1.0  0.32599  0.65750  0.47064  1.0000
  N   N4        1.0  0.67400  0.34251  0.52936  1.0000
  N   N5        1.0  0.09688  0.19865  0.13767  1.0000
  N   N6        1.0  0.90313  0.80137  0.86235  1.0000
  N   N7        1.0  0.10201  0.17024  0.98279  1.0000
  N   N8        1.0  0.89800  0.82977  0.01722  1.0000
  N   N9        1.0  0.84656  0.70590  0.42952  1.0000
  N   N10       1.0  0.15343  0.29409  0.57047  1.0000
  N   N11       1.0  0.23472  0.68275  0.04365  1.0000
  N   N12       1.0  0.76527  0.31724  0.95635  1.0000
  O   O1        1.0  0.76934  0.17964  0.20439  1.0000
  O   O2        1.0  0.23066  0.82035  0.79562  1.0000
  O   O3        1.0  0.64979  0.20895  0.32747  1.0000
  O   O4        1.0  0.35022  0.79106  0.67253  1.0000
  O   O5        1.0  0.18401  0.06942  0.35131  1.0000
  O   O6        1.0  0.81599  0.93058  0.64869  1.0000
  O   O7        1.0  0.98048  0.92521  0.21752  1.0000
  O   O8        1.0  0.01952  0.07480  0.78248  1.0000
  O   O9        1.0  0.91069  0.17238  0.40616  1.0000
  O   O10       1.0  0.08929  0.82760  0.59384  1.0000
