data_image0
_chemical_formula_structural       Cd2H20C16N10Cl2O8
_chemical_formula_sum              "Cd2 H20 C16 N10 Cl2 O8"
_cell_length_a       7.52447
_cell_length_b       8.77494
_cell_length_c       10.7474
_cell_angle_alpha    70.2779
_cell_angle_beta     84.3601
_cell_angle_gamma    65.0598

_space_group_name_H-M_alt    "P 1"
_space_group_IT_number       1

loop_
  _space_group_symop_operation_xyz
  'x, y, z'

loop_
  _atom_site_type_symbol
  _atom_site_label
  _atom_site_symmetry_multiplicity
  _atom_site_fract_x
  _atom_site_fract_y
  _atom_site_fract_z
  _atom_site_occupancy
  Cd  Cd1       1.0  0.17314  0.26554  0.09493  1.0000
  Cd  Cd2       1.0  0.82686  0.73446  0.90507  1.0000
  H   H1        1.0  0.23366  0.34452  0.83028  1.0000
  H   H2        1.0  0.76633  0.65549  0.16972  1.0000
  H   H3        1.0  0.29022  0.13594  0.88610  1.0000
  H   H4        1.0  0.70978  0.86406  0.11389  1.0000
  H   H5        1.0  0.20823  0.94412  0.06425  1.0000
  H   H6        1.0  0.79177  0.05588  0.93575  1.0000
  H   H7        1.0  0.01187  0.99913  0.13884  1.0000
  H   H8        1.0  0.98813  0.00087  0.86116  1.0000
  H   H9        1.0  0.19672  0.67259  0.30123  1.0000
  H   H10       1.0  0.80327  0.32740  0.69878  1.0000
  H   H11       1.0  0.46244  0.48161  0.19166  1.0000
  H   H12       1.0  0.53756  0.51838  0.80835  1.0000
  H   H13       1.0  0.66164  0.06238  0.54754  1.0000
  H   H14       1.0  0.33837  0.93760  0.45247  1.0000
  H   H15       1.0  0.40912  0.23787  0.67215  1.0000
  H   H16       1.0  0.59089  0.76212  0.32786  1.0000
  H   H17       1.0  0.83545  0.05096  0.36689  1.0000
  H   H18       1.0  0.16456  0.94903  0.63311  1.0000
  H   H19       1.0  0.78450  0.25109  0.22894  1.0000
  H   H20       1.0  0.21550  0.74891  0.77106  1.0000
  C   C1        1.0  0.12880  0.58253  0.56196  1.0000
  C   C2        1.0  0.87119  0.41747  0.43804  1.0000
  C   C3        1.0  0.27862  0.47069  0.49625  1.0000
  C   C4        1.0  0.72138  0.52930  0.50374  1.0000
  C   C5        1.0  0.29532  0.53827  0.35911  1.0000
  C   C6        1.0  0.70469  0.46172  0.64089  1.0000
  C   C7        1.0  0.44164  0.43499  0.29716  1.0000
  C   C8        1.0  0.55835  0.56502  0.70283  1.0000
  C   C9        1.0  0.55408  0.19799  0.49891  1.0000
  C   C10       1.0  0.44593  0.80201  0.50110  1.0000
  C   C11       1.0  0.41181  0.29728  0.56569  1.0000
  C   C12       1.0  0.58820  0.70272  0.43432  1.0000
  C   C13       1.0  0.72099  0.16373  0.29592  1.0000
  C   C14       1.0  0.27902  0.83627  0.70408  1.0000
  C   C15       1.0  0.64385  0.09279  0.21090  1.0000
  C   C16       1.0  0.35615  0.90723  0.78910  1.0000
  N   N1        1.0  0.10342  0.53899  0.69344  1.0000
  N   N2        1.0  0.89657  0.46101  0.30655  1.0000
  N   N3        1.0  0.95266  0.68235  0.70739  1.0000
  N   N4        1.0  0.04734  0.31764  0.29261  1.0000
  N   N5        1.0  0.88884  0.80798  0.59000  1.0000
  N   N6        1.0  0.11116  0.19201  0.41000  1.0000
  N   N7        1.0  0.99689  0.74907  0.49692  1.0000
  N   N8        1.0  0.00310  0.25093  0.50308  1.0000
  N   N9        1.0  0.56840  0.26802  0.36696  1.0000
  N   N10       1.0  0.43160  0.73198  0.63304  1.0000
  Cl  Cl1       1.0  0.19048  0.57943  0.01154  1.0000
  Cl  Cl2       1.0  0.80952  0.42057  0.98846  1.0000
  O   O1        1.0  0.46865  0.11119  0.21974  1.0000
  O   O2        1.0  0.53135  0.88882  0.78026  1.0000
  O   O3        1.0  0.77187  0.01525  0.13980  1.0000
  O   O4        1.0  0.22813  0.98477  0.86020  1.0000
  O   O5        1.0  0.31465  0.23217  0.90129  1.0000
  O   O6        1.0  0.68535  0.76784  0.09871  1.0000
  O   O7        1.0  0.15105  0.98487  0.13944  1.0000
  O   O8        1.0  0.84896  0.01513  0.86056  1.0000
