data_image0
_chemical_formula_structural       Mn4H36C28N4O28
_chemical_formula_sum              "Mn4 H36 C28 N4 O28"
_cell_length_a       6.78464
_cell_length_b       8.5075
_cell_length_c       16.4399
_cell_angle_alpha    89.9983
_cell_angle_beta     89.9987
_cell_angle_gamma    90.0016

_space_group_name_H-M_alt    "P 1"
_space_group_IT_number       1

loop_
  _space_group_symop_operation_xyz
  'x, y, z'

loop_
  _atom_site_type_symbol
  _atom_site_label
  _atom_site_symmetry_multiplicity
  _atom_site_fract_x
  _atom_site_fract_y
  _atom_site_fract_z
  _atom_site_occupancy
  Mn  Mn1       1.0  0.93207  0.94478  0.40052  1.0000
  Mn  Mn2       1.0  0.06796  0.44481  0.59948  1.0000
  Mn  Mn3       1.0  0.06794  0.94478  0.90051  1.0000
  Mn  Mn4       1.0  0.93200  0.44482  0.09950  1.0000
  H   H1        1.0  0.66059  0.88091  0.53940  1.0000
  H   H2        1.0  0.33943  0.38089  0.46060  1.0000
  H   H3        1.0  0.33941  0.88094  0.03940  1.0000
  H   H4        1.0  0.66055  0.38093  0.96058  1.0000
  H   H5        1.0  0.88429  0.88755  0.57136  1.0000
  H   H6        1.0  0.11574  0.38753  0.42863  1.0000
  H   H7        1.0  0.11572  0.88758  0.07137  1.0000
  H   H8        1.0  0.88423  0.38758  0.92862  1.0000
  H   H9        1.0  0.52961  0.72886  0.41265  1.0000
  H   H10       1.0  0.47044  0.22897  0.58737  1.0000
  H   H11       1.0  0.47047  0.72898  0.91263  1.0000
  H   H12       1.0  0.52954  0.22892  0.08738  1.0000
  H   H13       1.0  0.14527  0.70178  0.46515  1.0000
  H   H14       1.0  0.85476  0.20179  0.53485  1.0000
  H   H15       1.0  0.85474  0.70180  0.96515  1.0000
  H   H16       1.0  0.14523  0.20180  0.03485  1.0000
  H   H17       1.0  0.04043  0.63044  0.38597  1.0000
  H   H18       1.0  0.95960  0.13044  0.61403  1.0000
  H   H19       1.0  0.95957  0.63046  0.88597  1.0000
  H   H20       1.0  0.04040  0.13043  0.11403  1.0000
  H   H21       1.0  0.31659  0.57976  0.31462  1.0000
  H   H22       1.0  0.68343  0.07981  0.68537  1.0000
  H   H23       1.0  0.68344  0.57981  0.81462  1.0000
  H   H24       1.0  0.31656  0.07981  0.18540  1.0000
  H   H25       1.0  0.28076  0.98049  0.48893  1.0000
  H   H26       1.0  0.71925  0.48049  0.51107  1.0000
  H   H27       1.0  0.71926  0.98051  0.98893  1.0000
  H   H28       1.0  0.28074  0.48051  0.01106  1.0000
  H   H29       1.0  0.19791  0.15575  0.46877  1.0000
  H   H30       1.0  0.80211  0.65579  0.53123  1.0000
  H   H31       1.0  0.80208  0.15578  0.96876  1.0000
  H   H32       1.0  0.19789  0.65577  0.03123  1.0000
  H   H33       1.0  0.38326  0.60112  0.16621  1.0000
  H   H34       1.0  0.61674  0.10106  0.83379  1.0000
  H   H35       1.0  0.61672  0.60105  0.66621  1.0000
  H   H36       1.0  0.38327  0.10107  0.33380  1.0000
  C   C1        1.0  0.55760  0.73298  0.34739  1.0000
  C   C2        1.0  0.44247  0.23305  0.65260  1.0000
  C   C3        1.0  0.44247  0.73305  0.84737  1.0000
  C   C4        1.0  0.55754  0.23301  0.15262  1.0000
  C   C5        1.0  0.43872  0.65073  0.29290  1.0000
  C   C6        1.0  0.56131  0.15074  0.70707  1.0000
  C   C7        1.0  0.56130  0.65073  0.79290  1.0000
  C   C8        1.0  0.43868  0.15074  0.20710  1.0000
  C   C9        1.0  0.47616  0.66275  0.21009  1.0000
  C   C10       1.0  0.52385  0.16272  0.78988  1.0000
  C   C11       1.0  0.52385  0.66271  0.71010  1.0000
  C   C12       1.0  0.47613  0.16273  0.28990  1.0000
  C   C13       1.0  0.63440  0.75537  0.18367  1.0000
  C   C14       1.0  0.36558  0.25535  0.81633  1.0000
  C   C15       1.0  0.36558  0.75533  0.68366  1.0000
  C   C16       1.0  0.63443  0.25534  0.31633  1.0000
  C   C17       1.0  0.74866  0.83300  0.24212  1.0000
  C   C18       1.0  0.25132  0.33302  0.75788  1.0000
  C   C19       1.0  0.25133  0.83300  0.74210  1.0000
  C   C20       1.0  0.74867  0.33301  0.25790  1.0000
  C   C21       1.0  0.92100  0.93699  0.22012  1.0000
  C   C22       1.0  0.07900  0.43699  0.77989  1.0000
  C   C23       1.0  0.07904  0.93697  0.72010  1.0000
  C   C24       1.0  0.92095  0.43695  0.27989  1.0000
  C   C25       1.0  0.67467  0.76719  0.09402  1.0000
  C   C26       1.0  0.32529  0.26717  0.90601  1.0000
  C   C27       1.0  0.32532  0.76713  0.59399  1.0000
  C   C28       1.0  0.67472  0.26714  0.40601  1.0000
  N   N1        1.0  0.70919  0.82187  0.32250  1.0000
  N   N2        1.0  0.29084  0.32192  0.67750  1.0000
  N   N3        1.0  0.29086  0.82191  0.82247  1.0000
  N   N4        1.0  0.70914  0.32188  0.17752  1.0000
  O   O1        1.0  0.80020  0.85851  0.52397  1.0000
  O   O2        1.0  0.19980  0.35847  0.47603  1.0000
  O   O3        1.0  0.19981  0.85854  0.02398  1.0000
  O   O4        1.0  0.80016  0.35854  0.97602  1.0000
  O   O5        1.0  0.09493  0.72916  0.40986  1.0000
  O   O6        1.0  0.90507  0.22917  0.59013  1.0000
  O   O7        1.0  0.90511  0.72919  0.90987  1.0000
  O   O8        1.0  0.09490  0.22917  0.09014  1.0000
  O   O9        1.0  0.19822  0.04396  0.45087  1.0000
  O   O10       1.0  0.80182  0.54398  0.54913  1.0000
  O   O11       1.0  0.80179  0.04398  0.95086  1.0000
  O   O12       1.0  0.19821  0.54398  0.04914  1.0000
  O   O13       1.0  0.01186  0.00490  0.27771  1.0000
  O   O14       1.0  0.98808  0.50487  0.72230  1.0000
  O   O15       1.0  0.98814  0.00488  0.77768  1.0000
  O   O16       1.0  0.01186  0.50488  0.22232  1.0000
  O   O17       1.0  0.96063  0.95299  0.14488  1.0000
  O   O18       1.0  0.03940  0.45299  0.85514  1.0000
  O   O19       1.0  0.03941  0.95300  0.64487  1.0000
  O   O20       1.0  0.96061  0.45295  0.35513  1.0000
  O   O21       1.0  0.78704  0.66358  0.06220  1.0000
  O   O22       1.0  0.21291  0.16358  0.93783  1.0000
  O   O23       1.0  0.21293  0.66353  0.56218  1.0000
  O   O24       1.0  0.78710  0.16351  0.43782  1.0000
  O   O25       1.0  0.58550  0.87240  0.05354  1.0000
  O   O26       1.0  0.41448  0.37241  0.94645  1.0000
  O   O27       1.0  0.41452  0.87234  0.55353  1.0000
  O   O28       1.0  0.58549  0.37233  0.44647  1.0000
