data_image0
_chemical_formula_structural       Cd2H16C28S4N8
_chemical_formula_sum              "Cd2 H16 C28 S4 N8"
_cell_length_a       8.91646
_cell_length_b       8.91646
_cell_length_c       10.7561
_cell_angle_alpha    68.6911
_cell_angle_beta     68.6908
_cell_angle_gamma    70.8269

_space_group_name_H-M_alt    "P 1"
_space_group_IT_number       1

loop_
  _space_group_symop_operation_xyz
  'x, y, z'

loop_
  _atom_site_type_symbol
  _atom_site_label
  _atom_site_symmetry_multiplicity
  _atom_site_fract_x
  _atom_site_fract_y
  _atom_site_fract_z
  _atom_site_occupancy
  Cd  Cd1       1.0  0.88838  0.11163  0.75000  1.0000
  Cd  Cd2       1.0  0.11162  0.88838  0.25000  1.0000
  H   H1        1.0  0.95384  0.35810  0.88481  1.0000
  H   H2        1.0  0.64191  0.04616  0.61519  1.0000
  H   H3        1.0  0.04616  0.64191  0.11518  1.0000
  H   H4        1.0  0.35810  0.95384  0.38481  1.0000
  H   H5        1.0  0.81701  0.63056  0.94281  1.0000
  H   H6        1.0  0.36945  0.18299  0.55719  1.0000
  H   H7        1.0  0.18299  0.36945  0.05718  1.0000
  H   H8        1.0  0.63055  0.81701  0.44281  1.0000
  H   H9        1.0  0.54543  0.78534  0.89412  1.0000
  H   H10       1.0  0.21466  0.45458  0.60588  1.0000
  H   H11       1.0  0.45457  0.21466  0.10588  1.0000
  H   H12       1.0  0.78534  0.54542  0.39411  1.0000
  H   H13       1.0  0.31785  0.80377  0.80079  1.0000
  H   H14       1.0  0.19623  0.68215  0.69921  1.0000
  H   H15       1.0  0.68215  0.19622  0.19921  1.0000
  H   H16       1.0  0.80377  0.31784  0.30079  1.0000
  C   C1        1.0  0.81606  0.94464  0.10013  1.0000
  C   C2        1.0  0.05535  0.18394  0.39987  1.0000
  C   C3        1.0  0.18394  0.05535  0.89987  1.0000
  C   C4        1.0  0.94464  0.81606  0.60013  1.0000
  C   C5        1.0  0.83555  0.43044  0.86467  1.0000
  C   C6        1.0  0.56956  0.16446  0.63533  1.0000
  C   C7        1.0  0.16446  0.56957  0.13533  1.0000
  C   C8        1.0  0.43044  0.83554  0.36467  1.0000
  C   C9        1.0  0.75907  0.58171  0.89713  1.0000
  C   C10       1.0  0.41829  0.24093  0.60287  1.0000
  C   C11       1.0  0.24093  0.41829  0.10287  1.0000
  C   C12       1.0  0.58171  0.75907  0.39713  1.0000
  C   C13       1.0  0.60956  0.66794  0.86922  1.0000
  C   C14       1.0  0.33207  0.39044  0.63078  1.0000
  C   C15       1.0  0.39044  0.33207  0.13078  1.0000
  C   C16       1.0  0.66793  0.60956  0.36922  1.0000
  C   C17       1.0  0.53724  0.60310  0.80880  1.0000
  C   C18       1.0  0.39690  0.46276  0.69120  1.0000
  C   C19       1.0  0.46276  0.39690  0.19120  1.0000
  C   C20       1.0  0.60310  0.53724  0.30880  1.0000
  C   C21       1.0  0.38225  0.68552  0.77807  1.0000
  C   C22       1.0  0.31448  0.61776  0.72194  1.0000
  C   C23       1.0  0.61775  0.31448  0.22194  1.0000
  C   C24       1.0  0.68552  0.38224  0.27806  1.0000
  C   C25       1.0  0.62289  0.44843  0.78026  1.0000
  C   C26       1.0  0.55158  0.37711  0.71975  1.0000
  C   C27       1.0  0.37711  0.55158  0.21974  1.0000
  C   C28       1.0  0.44842  0.62289  0.28026  1.0000
  S   S1        1.0  0.70103  0.95082  0.00993  1.0000
  S   S2        1.0  0.04917  0.29897  0.49007  1.0000
  S   S3        1.0  0.29897  0.04918  0.99007  1.0000
  S   S4        1.0  0.95082  0.70103  0.50993  1.0000
  N   N1        1.0  0.89425  0.94288  0.16932  1.0000
  N   N2        1.0  0.05711  0.10575  0.33069  1.0000
  N   N3        1.0  0.10575  0.05711  0.83069  1.0000
  N   N4        1.0  0.94288  0.89425  0.66932  1.0000
  N   N5        1.0  0.76931  0.36597  0.80888  1.0000
  N   N6        1.0  0.63403  0.23069  0.69112  1.0000
  N   N7        1.0  0.23069  0.63404  0.19111  1.0000
  N   N8        1.0  0.36597  0.76931  0.30888  1.0000
