data_image0
_chemical_formula_structural       H32Rh2C44N2Cl4O12
_chemical_formula_sum              "H32 Rh2 C44 N2 Cl4 O12"
_cell_length_a       9.74404
_cell_length_b       10.7083
_cell_length_c       11.0536
_cell_angle_alpha    99.6775
_cell_angle_beta     93.8009
_cell_angle_gamma    106.181

_space_group_name_H-M_alt    "P 1"
_space_group_IT_number       1

loop_
  _space_group_symop_operation_xyz
  'x, y, z'

loop_
  _atom_site_type_symbol
  _atom_site_label
  _atom_site_symmetry_multiplicity
  _atom_site_fract_x
  _atom_site_fract_y
  _atom_site_fract_z
  _atom_site_occupancy
  H   H1        1.0  0.68355  0.77491  0.34670  1.0000
  H   H2        1.0  0.31643  0.22512  0.65329  1.0000
  H   H3        1.0  0.76164  0.65863  0.16287  1.0000
  H   H4        1.0  0.23834  0.34139  0.83713  1.0000
  H   H5        1.0  0.01972  0.72944  0.12297  1.0000
  H   H6        1.0  0.98027  0.27056  0.87703  1.0000
  H   H7        1.0  0.19942  0.90405  0.27359  1.0000
  H   H8        1.0  0.80057  0.09595  0.72642  1.0000
  H   H9        1.0  0.55432  0.35781  0.36915  1.0000
  H   H10       1.0  0.44569  0.64219  0.63086  1.0000
  H   H11       1.0  0.69493  0.49104  0.33457  1.0000
  H   H12       1.0  0.30508  0.50897  0.66545  1.0000
  H   H13       1.0  0.54444  0.40239  0.21985  1.0000
  H   H14       1.0  0.45557  0.59762  0.78016  1.0000
  H   H15       1.0  0.33406  0.29007  0.29238  1.0000
  H   H16       1.0  0.66595  0.70992  0.70762  1.0000
  H   H17       1.0  0.94710  0.40125  0.34386  1.0000
  H   H18       1.0  0.05290  0.59873  0.65611  1.0000
  H   H19       1.0  0.09458  0.63703  0.41375  1.0000
  H   H20       1.0  0.90541  0.36296  0.58623  1.0000
  H   H21       1.0  0.23210  0.02646  0.89441  1.0000
  H   H22       1.0  0.76792  0.97354  0.10558  1.0000
  H   H23       1.0  0.10951  0.97530  0.00290  1.0000
  H   H24       1.0  0.89050  0.02470  0.99708  1.0000
  H   H25       1.0  0.18946  0.14880  0.00613  1.0000
  H   H26       1.0  0.81054  0.85121  0.99385  1.0000
  H   H27       1.0  0.41099  0.20702  0.91883  1.0000
  H   H28       1.0  0.58903  0.79300  0.08117  1.0000
  H   H29       1.0  0.84933  0.34566  0.09343  1.0000
  H   H30       1.0  0.15069  0.65434  0.90660  1.0000
  H   H31       1.0  0.77903  0.20024  0.24789  1.0000
  H   H32       1.0  0.22096  0.79975  0.75214  1.0000
  Rh  Rh1       1.0  0.61754  0.98063  0.50366  1.0000
  Rh  Rh2       1.0  0.38245  0.01937  0.49634  1.0000
  C   C1        1.0  0.89670  0.90601  0.41706  1.0000
  C   C2        1.0  0.10328  0.09400  0.58293  1.0000
  C   C3        1.0  0.79571  0.80290  0.32974  1.0000
  C   C4        1.0  0.20428  0.19712  0.67025  1.0000
  C   C5        1.0  0.83997  0.73876  0.22808  1.0000
  C   C6        1.0  0.16001  0.26126  0.77192  1.0000
  C   C7        1.0  0.98641  0.77712  0.20640  1.0000
  C   C8        1.0  0.01358  0.22289  0.79361  1.0000
  C   C9        1.0  0.08768  0.87327  0.29055  1.0000
  C   C10       1.0  0.91230  0.12673  0.70946  1.0000
  C   C11       1.0  0.04795  0.93709  0.40075  1.0000
  C   C12       1.0  0.95204  0.06291  0.59925  1.0000
  C   C13       1.0  0.37424  0.74324  0.43159  1.0000
  C   C14       1.0  0.62574  0.25675  0.56841  1.0000
  C   C15       1.0  0.29743  0.59963  0.39385  1.0000
  C   C16       1.0  0.70257  0.40036  0.60615  1.0000
  C   C17       1.0  0.36710  0.50085  0.35949  1.0000
  C   C18       1.0  0.63290  0.49915  0.64051  1.0000
  C   C19       1.0  0.57928  0.44023  0.31916  1.0000
  C   C20       1.0  0.42073  0.55978  0.68085  1.0000
  C   C21       1.0  0.28426  0.36822  0.31815  1.0000
  C   C22       1.0  0.71575  0.63177  0.68185  1.0000
  C   C23       1.0  0.13507  0.33516  0.31188  1.0000
  C   C24       1.0  0.86493  0.66483  0.68811  1.0000
  C   C25       1.0  0.06378  0.42939  0.34767  1.0000
  C   C26       1.0  0.93623  0.57060  0.65231  1.0000
  C   C27       1.0  0.14661  0.56039  0.38769  1.0000
  C   C28       1.0  0.85337  0.43959  0.61229  1.0000
  C   C29       1.0  0.52544  0.05592  0.27943  1.0000
  C   C30       1.0  0.47456  0.94407  0.72057  1.0000
  C   C31       1.0  0.55769  0.12429  0.17375  1.0000
  C   C32       1.0  0.44231  0.87570  0.82625  1.0000
  C   C33       1.0  0.45149  0.12516  0.08010  1.0000
  C   C34       1.0  0.54851  0.87484  0.91990  1.0000
  C   C35       1.0  0.20642  0.05024  0.98931  1.0000
  C   C36       1.0  0.79359  0.94976  0.01067  1.0000
  C   C37       1.0  0.48986  0.20594  0.99269  1.0000
  C   C38       1.0  0.51016  0.79407  0.00732  1.0000
  C   C39       1.0  0.63221  0.28421  0.99944  1.0000
  C   C40       1.0  0.36781  0.71579  0.00058  1.0000
  C   C41       1.0  0.73902  0.28343  0.08952  1.0000
  C   C42       1.0  0.26099  0.71657  0.91050  1.0000
  C   C43       1.0  0.69936  0.20259  0.17524  1.0000
  C   C44       1.0  0.30064  0.79740  0.82478  1.0000
  N   N1        1.0  0.84975  0.97202  0.51410  1.0000
  N   N2        1.0  0.15023  0.02799  0.48590  1.0000
  Cl  Cl1       1.0  0.03722  0.17134  0.25666  1.0000
  Cl  Cl2       1.0  0.96279  0.82865  0.74332  1.0000
  Cl  Cl3       1.0  0.67669  0.38540  0.89252  1.0000
  Cl  Cl4       1.0  0.32334  0.61461  0.10750  1.0000
  O   O1        1.0  0.51221  0.78243  0.44916  1.0000
  O   O2        1.0  0.48778  0.21757  0.55084  1.0000
  O   O3        1.0  0.29374  0.82010  0.44493  1.0000
  O   O4        1.0  0.70625  0.17989  0.55507  1.0000
  O   O5        1.0  0.51217  0.53880  0.36571  1.0000
  O   O6        1.0  0.48783  0.46120  0.63430  1.0000
  O   O7        1.0  0.62412  0.01352  0.32546  1.0000
  O   O8        1.0  0.37587  0.98647  0.67454  1.0000
  O   O9        1.0  0.40576  0.05355  0.32221  1.0000
  O   O10       1.0  0.59423  0.94644  0.67779  1.0000
  O   O11       1.0  0.31688  0.04438  0.07844  1.0000
  O   O12       1.0  0.68312  0.95563  0.92155  1.0000
