data_image0
_chemical_formula_structural       Ag4H16C16S2N12O14
_chemical_formula_sum              "Ag4 H16 C16 S2 N12 O14"
_cell_length_a       7.59157
_cell_length_b       8.71751
_cell_length_c       12.371
_cell_angle_alpha    69.3809
_cell_angle_beta     84.1374
_cell_angle_gamma    73.1023

_space_group_name_H-M_alt    "P 1"
_space_group_IT_number       1

loop_
  _space_group_symop_operation_xyz
  'x, y, z'

loop_
  _atom_site_type_symbol
  _atom_site_label
  _atom_site_symmetry_multiplicity
  _atom_site_fract_x
  _atom_site_fract_y
  _atom_site_fract_z
  _atom_site_occupancy
  Ag  Ag1       1.0  0.60979  0.36571  0.35513  1.0000
  Ag  Ag2       1.0  0.11007  0.72096  0.64470  1.0000
  Ag  Ag3       1.0  0.28217  0.01629  0.98825  1.0000
  Ag  Ag4       1.0  0.78196  0.00424  0.01181  1.0000
  H   H1        1.0  0.22025  0.97339  0.25068  1.0000
  H   H2        1.0  0.72062  0.22423  0.74948  1.0000
  H   H3        1.0  0.96053  0.33924  0.94994  1.0000
  H   H4        1.0  0.46065  0.28942  0.05008  1.0000
  H   H5        1.0  0.71061  0.46711  0.07010  1.0000
  H   H6        1.0  0.21113  0.53769  0.92980  1.0000
  H   H7        1.0  0.24098  0.28866  0.32869  1.0000
  H   H8        1.0  0.74080  0.61733  0.67136  1.0000
  H   H9        1.0  0.63924  0.04940  0.58860  1.0000
  H   H10       1.0  0.13932  0.63784  0.41176  1.0000
  H   H11       1.0  0.46731  0.83186  0.68779  1.0000
  H   H12       1.0  0.96733  0.51999  0.31217  1.0000
  H   H13       1.0  0.44031  0.70764  0.23648  1.0000
  H   H14       1.0  0.94057  0.94441  0.76349  1.0000
  H   H15       1.0  0.30178  0.61091  0.21904  1.0000
  H   H16       1.0  0.80213  0.83020  0.78086  1.0000
  C   C1        1.0  0.97837  0.16522  0.27538  1.0000
  C   C2        1.0  0.47864  0.44057  0.72465  1.0000
  C   C3        1.0  0.11107  0.08780  0.20982  1.0000
  C   C4        1.0  0.61137  0.29778  0.79031  1.0000
  C   C5        1.0  0.96322  0.28796  0.04398  1.0000
  C   C6        1.0  0.46346  0.33215  0.95603  1.0000
  C   C7        1.0  0.82769  0.36011  0.11029  1.0000
  C   C8        1.0  0.32806  0.47074  0.88965  1.0000
  C   C9        1.0  0.19361  0.06643  0.46753  1.0000
  C   C10       1.0  0.69359  0.53387  0.53242  1.0000
  C   C11       1.0  0.29055  0.18686  0.40963  1.0000
  C   C12       1.0  0.79038  0.59646  0.59045  1.0000
  C   C13       1.0  0.51138  0.05521  0.55232  1.0000
  C   C14       1.0  0.01143  0.60740  0.44791  1.0000
  C   C15       1.0  0.41587  0.93473  0.60773  1.0000
  C   C16       1.0  0.91593  0.54256  0.39232  1.0000
  S   S1        1.0  0.97279  0.07770  0.42746  1.0000
  S   S2        1.0  0.47306  0.50444  0.57257  1.0000
  N   N1        1.0  0.83637  0.30021  0.22592  1.0000
  N   N2        1.0  0.33671  0.52633  0.77399  1.0000
  N   N3        1.0  0.10419  0.15166  0.09400  1.0000
  N   N4        1.0  0.60449  0.24585  0.90612  1.0000
  N   N5        1.0  0.25851  0.93889  0.56524  1.0000
  N   N6        1.0  0.75853  0.50428  0.43464  1.0000
  N   N7        1.0  0.44862  0.18022  0.45221  1.0000
  N   N8        1.0  0.94848  0.63237  0.54798  1.0000
  N   N9        1.0  0.54728  0.75840  0.91228  1.0000
  N   N10       1.0  0.04738  0.67045  0.08752  1.0000
  N   N11       1.0  0.07821  0.17749  0.75313  1.0000
  N   N12       1.0  0.57838  0.93010  0.24690  1.0000
  O   O1        1.0  0.66320  0.67878  0.85581  1.0000
  O   O2        1.0  0.16329  0.53429  0.14397  1.0000
  O   O3        1.0  0.51962  0.92102  0.88215  1.0000
  O   O4        1.0  0.01966  0.80278  0.11783  1.0000
  O   O5        1.0  0.45966  0.68317  0.99581  1.0000
  O   O6        1.0  0.95988  0.67887  0.00387  1.0000
  O   O7        1.0  0.06530  0.03233  0.82670  1.0000
  O   O8        1.0  0.56611  0.85809  0.17341  1.0000
  O   O9        1.0  0.14896  0.26832  0.78593  1.0000
  O   O10       1.0  0.64938  0.05354  0.21422  1.0000
  O   O11       1.0  0.01889  0.22488  0.65234  1.0000
  O   O12       1.0  0.51821  0.87728  0.34747  1.0000
  O   O13       1.0  0.37127  0.62249  0.27751  1.0000
  O   O14       1.0  0.87164  0.90020  0.72243  1.0000
