data_image0
_chemical_formula_structural       Zn4H40C62N8O18
_chemical_formula_sum              "Zn4 H40 C62 N8 O18"
_cell_length_a       4.76843
_cell_length_b       11.7039
_cell_length_c       26.4239
_cell_angle_alpha    96.5265
_cell_angle_beta     89.9999
_cell_angle_gamma    90.0002

_space_group_name_H-M_alt    "P 1"
_space_group_IT_number       1

loop_
  _space_group_symop_operation_xyz
  'x, y, z'

loop_
  _atom_site_type_symbol
  _atom_site_label
  _atom_site_symmetry_multiplicity
  _atom_site_fract_x
  _atom_site_fract_y
  _atom_site_fract_z
  _atom_site_occupancy
  Zn  Zn1       1.0  0.28979  0.09848  0.55004  1.0000
  Zn  Zn2       1.0  0.78978  0.90151  0.44996  1.0000
  Zn  Zn3       1.0  0.27366  0.82286  0.97096  1.0000
  Zn  Zn4       1.0  0.77367  0.17714  0.02904  1.0000
  H   H1        1.0  0.80936  0.26424  0.42475  1.0000
  H   H2        1.0  0.30937  0.73576  0.57525  1.0000
  H   H3        1.0  0.93477  0.29657  0.33567  1.0000
  H   H4        1.0  0.43479  0.70343  0.66433  1.0000
  H   H5        1.0  0.34423  0.03317  0.27945  1.0000
  H   H6        1.0  0.84424  0.96683  0.72056  1.0000
  H   H7        1.0  0.78788  0.95551  0.23846  1.0000
  H   H8        1.0  0.28788  0.04449  0.76154  1.0000
  H   H9        1.0  0.63134  0.81767  0.16450  1.0000
  H   H10       1.0  0.13134  0.18233  0.83550  1.0000
  H   H11       1.0  0.45864  0.23481  0.16347  1.0000
  H   H12       1.0  0.95865  0.76518  0.83653  1.0000
  H   H13       1.0  0.35479  0.23077  0.66027  1.0000
  H   H14       1.0  0.85480  0.76924  0.33973  1.0000
  H   H15       1.0  0.80301  0.28890  0.54092  1.0000
  H   H16       1.0  0.30300  0.71109  0.45908  1.0000
  H   H17       1.0  0.75432  0.47181  0.61791  1.0000
  H   H18       1.0  0.25432  0.52818  0.38209  1.0000
  H   H19       1.0  0.12923  0.53632  0.69337  1.0000
  H   H20       1.0  0.62922  0.46368  0.30662  1.0000
  H   H21       1.0  0.32996  0.42375  0.71407  1.0000
  H   H22       1.0  0.82996  0.57625  0.28593  1.0000
  H   H23       1.0  0.90163  0.24420  0.73046  1.0000
  H   H24       1.0  0.40163  0.75580  0.26953  1.0000
  H   H25       1.0  0.58500  0.22562  0.80266  1.0000
  H   H26       1.0  0.08500  0.77438  0.19734  1.0000
  H   H27       1.0  0.52249  0.59519  0.83085  1.0000
  H   H28       1.0  0.02249  0.40481  0.16915  1.0000
  H   H29       1.0  0.85014  0.61360  0.76053  1.0000
  H   H30       1.0  0.35014  0.38641  0.23947  1.0000
  H   H31       1.0  0.11481  0.39838  0.85366  1.0000
  H   H32       1.0  0.61481  0.60162  0.14634  1.0000
  H   H33       1.0  0.36710  0.31284  0.88080  1.0000
  H   H34       1.0  0.86711  0.68716  0.11920  1.0000
  H   H35       1.0  0.05895  0.60903  0.89276  1.0000
  H   H36       1.0  0.55895  0.39097  0.10724  1.0000
  H   H37       1.0  0.69858  0.63027  0.00369  1.0000
  H   H38       1.0  0.19859  0.36973  0.99631  1.0000
  H   H39       1.0  0.72347  0.41384  0.94506  1.0000
  H   H40       1.0  0.22347  0.58616  0.05494  1.0000
  C   C1        1.0  0.44032  0.11666  0.45571  1.0000
  C   C2        1.0  0.94031  0.88334  0.54429  1.0000
  C   C3        1.0  0.50322  0.13248  0.40139  1.0000
  C   C4        1.0  0.00320  0.86752  0.59862  1.0000
  C   C5        1.0  0.70442  0.21577  0.39245  1.0000
  C   C6        1.0  0.20441  0.78423  0.60755  1.0000
  C   C7        1.0  0.77653  0.23316  0.34298  1.0000
  C   C8        1.0  0.27653  0.76685  0.65703  1.0000
  C   C9        1.0  0.64939  0.16744  0.30129  1.0000
  C   C10       1.0  0.14939  0.83256  0.69871  1.0000
  C   C11       1.0  0.45060  0.08458  0.31058  1.0000
  C   C12       1.0  0.95060  0.91542  0.68942  1.0000
  C   C13       1.0  0.37659  0.06577  0.35999  1.0000
  C   C14       1.0  0.87658  0.93423  0.64002  1.0000
  C   C15       1.0  0.16092  0.97433  0.36673  1.0000
  C   C16       1.0  0.66092  0.02566  0.63327  1.0000
  C   C17       1.0  0.71623  0.19094  0.24849  1.0000
  C   C18       1.0  0.21623  0.80906  0.75150  1.0000
  C   C19       1.0  0.63142  0.10439  0.20542  1.0000
  C   C20       1.0  0.13142  0.89560  0.79458  1.0000
  C   C21       1.0  0.68083  0.98626  0.20606  1.0000
  C   C22       1.0  0.18083  0.01374  0.79394  1.0000
  C   C23       1.0  0.59582  0.90954  0.16484  1.0000
  C   C24       1.0  0.09581  0.09046  0.83516  1.0000
  C   C25       1.0  0.45956  0.94735  0.12290  1.0000
  C   C26       1.0  0.95956  0.05266  0.87710  1.0000
  C   C27       1.0  0.40784  0.06547  0.12256  1.0000
  C   C28       1.0  0.90783  0.93453  0.87744  1.0000
  C   C29       1.0  0.49716  0.14295  0.16341  1.0000
  C   C30       1.0  0.99716  0.85705  0.83660  1.0000
  C   C31       1.0  0.24799  0.11240  0.08044  1.0000
  C   C32       1.0  0.74799  0.88760  0.91956  1.0000
  C   C33       1.0  0.38423  0.86153  0.07804  1.0000
  C   C34       1.0  0.88423  0.13847  0.92196  1.0000
  C   C35       1.0  0.19968  0.27275  0.63824  1.0000
  C   C36       1.0  0.69968  0.72725  0.36176  1.0000
  C   C37       1.0  0.90862  0.30457  0.57735  1.0000
  C   C38       1.0  0.40860  0.69542  0.42265  1.0000
  C   C39       1.0  0.88326  0.39518  0.61488  1.0000
  C   C40       1.0  0.38325  0.60482  0.38512  1.0000
  C   C41       1.0  0.12039  0.44604  0.70086  1.0000
  C   C42       1.0  0.62040  0.55396  0.29914  1.0000
  C   C43       1.0  0.90513  0.43100  0.74142  1.0000
  C   C44       1.0  0.40514  0.56901  0.25858  1.0000
  C   C45       1.0  0.82347  0.32179  0.75286  1.0000
  C   C46       1.0  0.32348  0.67821  0.24714  1.0000
  C   C47       1.0  0.64041  0.31110  0.79324  1.0000
  C   C48       1.0  0.14041  0.68890  0.20676  1.0000
  C   C49       1.0  0.53354  0.40879  0.82251  1.0000
  C   C50       1.0  0.03354  0.59122  0.17749  1.0000
  C   C51       1.0  0.60981  0.51749  0.81006  1.0000
  C   C52       1.0  0.10981  0.48251  0.18994  1.0000
  C   C53       1.0  0.79378  0.52834  0.76991  1.0000
  C   C54       1.0  0.29378  0.47166  0.23009  1.0000
  C   C55       1.0  0.33458  0.39558  0.86604  1.0000
  C   C56       1.0  0.83459  0.60442  0.13396  1.0000
  C   C57       1.0  0.23716  0.58762  0.91532  1.0000
  C   C58       1.0  0.73717  0.41238  0.08468  1.0000
  C   C59       1.0  0.57124  0.59363  0.97206  1.0000
  C   C60       1.0  0.07125  0.40637  0.02794  1.0000
  C   C61       1.0  0.58772  0.48798  0.94377  1.0000
  C   C62       1.0  0.08773  0.51202  0.05623  1.0000
  N   N1        1.0  0.10615  0.22904  0.59249  1.0000
  N   N2        1.0  0.60614  0.77096  0.40751  1.0000
  N   N3        1.0  0.07035  0.37391  0.65283  1.0000
  N   N4        1.0  0.57035  0.62609  0.34717  1.0000
  N   N5        1.0  0.37401  0.48578  0.90821  1.0000
  N   N6        1.0  0.87402  0.51422  0.09179  1.0000
  N   N7        1.0  0.35205  0.65477  0.95400  1.0000
  N   N8        1.0  0.85206  0.34523  0.04600  1.0000
  O   O1        1.0  0.28380  0.18703  0.48254  1.0000
  O   O2        1.0  0.78377  0.81297  0.51746  1.0000
  O   O3        1.0  0.56782  0.03820  0.47693  1.0000
  O   O4        1.0  0.06783  0.96180  0.52307  1.0000
  O   O5        1.0  0.09343  0.96956  0.41383  1.0000
  O   O6        1.0  0.59344  0.03044  0.58617  1.0000
  O   O7        1.0  0.06955  0.91275  0.32861  1.0000
  O   O8        1.0  0.56954  0.08725  0.67139  1.0000
  O   O9        1.0  0.82858  0.28269  0.24037  1.0000
  O   O10       1.0  0.32858  0.71732  0.75963  1.0000
  O   O11       1.0  0.98344  0.10044  0.08144  1.0000
  O   O12       1.0  0.48343  0.89956  0.91856  1.0000
  O   O13       1.0  0.37165  0.17097  0.04921  1.0000
  O   O14       1.0  0.87164  0.82903  0.95080  1.0000
  O   O15       1.0  0.37787  0.75641  0.08257  1.0000
  O   O16       1.0  0.87786  0.24358  0.91743  1.0000
  O   O17       1.0  0.33710  0.90836  0.03672  1.0000
  O   O18       1.0  0.83710  0.09164  0.96328  1.0000
