data_image0
_chemical_formula_structural       Ca4H16C24O12
_chemical_formula_sum              "Ca4 H16 C24 O12"
_cell_length_a       5.80156
_cell_length_b       7.69447
_cell_length_c       12.6578
_cell_angle_alpha    90.0007
_cell_angle_beta     94.121
_cell_angle_gamma    89.9995

_space_group_name_H-M_alt    "P 1"
_space_group_IT_number       1

loop_
  _space_group_symop_operation_xyz
  'x, y, z'

loop_
  _atom_site_type_symbol
  _atom_site_label
  _atom_site_symmetry_multiplicity
  _atom_site_fract_x
  _atom_site_fract_y
  _atom_site_fract_z
  _atom_site_occupancy
  Ca  Ca1       1.0  0.77947  0.11790  0.55113  1.0000
  Ca  Ca2       1.0  0.72053  0.61790  0.44887  1.0000
  Ca  Ca3       1.0  0.22053  0.88210  0.44887  1.0000
  Ca  Ca4       1.0  0.27947  0.38210  0.55113  1.0000
  H   H1        1.0  0.97812  0.76754  0.61476  1.0000
  H   H2        1.0  0.52189  0.26754  0.38524  1.0000
  H   H3        1.0  0.02189  0.23246  0.38524  1.0000
  H   H4        1.0  0.47812  0.73246  0.61476  1.0000
  H   H5        1.0  0.12690  0.14277  0.87783  1.0000
  H   H6        1.0  0.37310  0.64275  0.12217  1.0000
  H   H7        1.0  0.87309  0.85723  0.12217  1.0000
  H   H8        1.0  0.62690  0.35724  0.87783  1.0000
  H   H9        1.0  0.70820  0.89726  0.74601  1.0000
  H   H10       1.0  0.79181  0.39726  0.25399  1.0000
  H   H11       1.0  0.29180  0.10274  0.25399  1.0000
  H   H12       1.0  0.20820  0.60274  0.74601  1.0000
  H   H13       1.0  0.11205  0.16049  0.07451  1.0000
  H   H14       1.0  0.38795  0.66048  0.92549  1.0000
  H   H15       1.0  0.88795  0.83951  0.92549  1.0000
  H   H16       1.0  0.61205  0.33951  0.07451  1.0000
  C   C1        1.0  0.40447  0.02387  0.80171  1.0000
  C   C2        1.0  0.09553  0.52385  0.19829  1.0000
  C   C3        1.0  0.59552  0.97614  0.19829  1.0000
  C   C4        1.0  0.90447  0.47614  0.80170  1.0000
  C   C5        1.0  0.38997  0.04303  0.99319  1.0000
  C   C6        1.0  0.11003  0.54302  0.00682  1.0000
  C   C7        1.0  0.61003  0.95697  0.00682  1.0000
  C   C8        1.0  0.88997  0.45697  0.99319  1.0000
  C   C9        1.0  0.30270  0.06748  0.69297  1.0000
  C   C10       1.0  0.19730  0.56747  0.30704  1.0000
  C   C11       1.0  0.69730  0.93252  0.30703  1.0000
  C   C12       1.0  0.80270  0.43253  0.69296  1.0000
  C   C13       1.0  0.29185  0.07503  0.88941  1.0000
  C   C14       1.0  0.20815  0.57502  0.11059  1.0000
  C   C15       1.0  0.70814  0.92497  0.11059  1.0000
  C   C16       1.0  0.79186  0.42497  0.88941  1.0000
  C   C17       1.0  0.62071  0.93709  0.81553  1.0000
  C   C18       1.0  0.87929  0.43708  0.18447  1.0000
  C   C19       1.0  0.37928  0.06291  0.18447  1.0000
  C   C20       1.0  0.12071  0.56291  0.81553  1.0000
  C   C21       1.0  0.27875  0.09487  0.08454  1.0000
  C   C22       1.0  0.22125  0.59486  0.91547  1.0000
  C   C23       1.0  0.72125  0.90514  0.91546  1.0000
  C   C24       1.0  0.77874  0.40513  0.08453  1.0000
  O   O1        1.0  0.41632  0.02410  0.61356  1.0000
  O   O2        1.0  0.08367  0.52409  0.38644  1.0000
  O   O3        1.0  0.58368  0.97590  0.38644  1.0000
  O   O4        1.0  0.91632  0.47591  0.61356  1.0000
  O   O5        1.0  0.91457  0.83389  0.55416  1.0000
  O   O6        1.0  0.58544  0.33389  0.44584  1.0000
  O   O7        1.0  0.08544  0.16611  0.44584  1.0000
  O   O8        1.0  0.41457  0.66611  0.55416  1.0000
  O   O9        1.0  0.11301  0.15046  0.68307  1.0000
  O   O10       1.0  0.38699  0.65045  0.31693  1.0000
  O   O11       1.0  0.88700  0.84955  0.31693  1.0000
  O   O12       1.0  0.61301  0.34956  0.68307  1.0000
