data_image0
_chemical_formula_structural       Tb2H26C32O24
_chemical_formula_sum              "Tb2 H26 C32 O24"
_cell_length_a       8.83681
_cell_length_b       9.73692
_cell_length_c       12.1583
_cell_angle_alpha    101.037
_cell_angle_beta     103.784
_cell_angle_gamma    108.438

_space_group_name_H-M_alt    "P 1"
_space_group_IT_number       1

loop_
  _space_group_symop_operation_xyz
  'x, y, z'

loop_
  _atom_site_type_symbol
  _atom_site_label
  _atom_site_symmetry_multiplicity
  _atom_site_fract_x
  _atom_site_fract_y
  _atom_site_fract_z
  _atom_site_occupancy
  Tb  Tb1       1.0  0.27277  0.53774  0.96196  1.0000
  Tb  Tb2       1.0  0.72723  0.46226  0.03804  1.0000
  H   H1        1.0  0.68255  0.93070  0.32410  1.0000
  H   H2        1.0  0.31745  0.06931  0.67590  1.0000
  H   H3        1.0  0.68468  0.95909  0.68308  1.0000
  H   H4        1.0  0.31532  0.04091  0.31692  1.0000
  H   H5        1.0  0.27940  0.60857  0.39140  1.0000
  H   H6        1.0  0.72060  0.39143  0.60860  1.0000
  H   H7        1.0  0.34341  0.99238  0.04832  1.0000
  H   H8        1.0  0.65659  0.00762  0.95168  1.0000
  H   H9        1.0  0.22471  0.36648  0.20346  1.0000
  H   H10       1.0  0.77530  0.63352  0.79653  1.0000
  H   H11       1.0  0.90231  0.90680  0.15685  1.0000
  H   H12       1.0  0.09769  0.09320  0.84316  1.0000
  H   H13       1.0  0.02175  0.22855  0.50741  1.0000
  H   H14       1.0  0.97825  0.77144  0.49259  1.0000
  H   H15       1.0  0.44685  0.76626  0.70070  1.0000
  H   H16       1.0  0.55314  0.23373  0.29930  1.0000
  H   H17       1.0  0.87125  0.12566  0.25503  1.0000
  H   H18       1.0  0.12875  0.87434  0.74497  1.0000
  H   H19       1.0  0.93535  0.47032  0.79647  1.0000
  H   H20       1.0  0.06465  0.52968  0.20353  1.0000
  H   H21       1.0  0.33770  0.30886  0.80535  1.0000
  H   H22       1.0  0.66231  0.69115  0.19465  1.0000
  H   H23       1.0  0.05739  0.61385  0.77688  1.0000
  H   H24       1.0  0.94261  0.38615  0.22312  1.0000
  H   H25       1.0  0.14734  0.29441  0.74219  1.0000
  H   H26       1.0  0.85266  0.70559  0.25781  1.0000
  C   C1        1.0  0.47459  0.76156  0.34462  1.0000
  C   C2        1.0  0.52541  0.23844  0.65538  1.0000
  C   C3        1.0  0.62581  0.88770  0.38676  1.0000
  C   C4        1.0  0.37419  0.11230  0.61323  1.0000
  C   C5        1.0  0.70077  0.95770  0.50841  1.0000
  C   C6        1.0  0.29922  0.04231  0.49159  1.0000
  C   C7        1.0  0.62509  0.90229  0.58858  1.0000
  C   C8        1.0  0.37491  0.09770  0.41141  1.0000
  C   C9        1.0  0.47274  0.77628  0.54590  1.0000
  C   C10       1.0  0.52726  0.22371  0.45409  1.0000
  C   C11       1.0  0.39810  0.70610  0.42368  1.0000
  C   C12       1.0  0.60191  0.29390  0.57632  1.0000
  C   C13       1.0  0.39922  0.68633  0.21459  1.0000
  C   C14       1.0  0.60078  0.31367  0.78541  1.0000
  C   C15       1.0  0.86042  0.09210  0.55482  1.0000
  C   C16       1.0  0.13957  0.90789  0.44516  1.0000
  C   C17       1.0  0.11875  0.93412  0.09849  1.0000
  C   C18       1.0  0.88126  0.06588  0.90151  1.0000
  C   C19       1.0  0.26366  0.03593  0.08826  1.0000
  C   C20       1.0  0.73635  0.96407  0.91174  1.0000
  C   C21       1.0  0.29923  0.19111  0.12418  1.0000
  C   C22       1.0  0.70078  0.80889  0.87582  1.0000
  C   C23       1.0  0.19713  0.24561  0.17660  1.0000
  C   C24       1.0  0.80287  0.75438  0.82341  1.0000
  C   C25       1.0  0.05765  0.14346  0.19183  1.0000
  C   C26       1.0  0.94236  0.85654  0.80818  1.0000
  C   C27       1.0  0.01491  0.98773  0.14993  1.0000
  C   C28       1.0  0.98510  0.01227  0.85007  1.0000
  C   C29       1.0  0.07674  0.76760  0.05190  1.0000
  C   C30       1.0  0.92326  0.23241  0.94810  1.0000
  C   C31       1.0  0.44526  0.29622  0.10207  1.0000
  C   C32       1.0  0.55474  0.70378  0.89793  1.0000
  O   O1        1.0  0.48587  0.72730  0.14725  1.0000
  O   O2        1.0  0.51414  0.27270  0.85275  1.0000
  O   O3        1.0  0.25362  0.58068  0.17106  1.0000
  O   O4        1.0  0.74638  0.41932  0.82895  1.0000
  O   O5        1.0  0.92019  0.13617  0.46874  1.0000
  O   O6        1.0  0.07981  0.86383  0.53126  1.0000
  O   O7        1.0  0.93493  0.15915  0.66026  1.0000
  O   O8        1.0  0.06507  0.84085  0.33975  1.0000
  O   O9        1.0  0.38778  0.71608  0.61598  1.0000
  O   O10       1.0  0.61222  0.28392  0.38402  1.0000
  O   O11       1.0  0.17660  0.72970  0.00515  1.0000
  O   O12       1.0  0.82340  0.27030  0.99485  1.0000
  O   O13       1.0  0.94524  0.67564  0.06138  1.0000
  O   O14       1.0  0.05476  0.32437  0.93862  1.0000
  O   O15       1.0  0.58398  0.27722  0.12715  1.0000
  O   O16       1.0  0.41602  0.72279  0.87285  1.0000
  O   O17       1.0  0.42966  0.40090  0.05571  1.0000
  O   O18       1.0  0.57034  0.59910  0.94429  1.0000
  O   O19       1.0  0.96524  0.20460  0.24742  1.0000
  O   O20       1.0  0.03476  0.79540  0.75258  1.0000
  O   O21       1.0  0.04704  0.51347  0.78590  1.0000
  O   O22       1.0  0.95296  0.48653  0.21410  1.0000
  O   O23       1.0  0.26323  0.36543  0.78854  1.0000
  O   O24       1.0  0.73677  0.63457  0.21146  1.0000
