data_image0
_chemical_formula_structural       La2H26C32O24
_chemical_formula_sum              "La2 H26 C32 O24"
_cell_length_a       9.04522
_cell_length_b       9.89395
_cell_length_c       12.2042
_cell_angle_alpha    100.142
_cell_angle_beta     104.115
_cell_angle_gamma    108.423

_space_group_name_H-M_alt    "P 1"
_space_group_IT_number       1

loop_
  _space_group_symop_operation_xyz
  'x, y, z'

loop_
  _atom_site_type_symbol
  _atom_site_label
  _atom_site_symmetry_multiplicity
  _atom_site_fract_x
  _atom_site_fract_y
  _atom_site_fract_z
  _atom_site_occupancy
  La  La1       1.0  0.26907  0.03781  0.95957  1.0000
  La  La2       1.0  0.73093  0.96219  0.04042  1.0000
  H   H1        1.0  0.68368  0.42749  0.32878  1.0000
  H   H2        1.0  0.31632  0.57251  0.67122  1.0000
  H   H3        1.0  0.67848  0.46468  0.68536  1.0000
  H   H4        1.0  0.32153  0.53533  0.31465  1.0000
  H   H5        1.0  0.28421  0.11962  0.39865  1.0000
  H   H6        1.0  0.71581  0.88038  0.60135  1.0000
  H   H7        1.0  0.34163  0.49811  0.05260  1.0000
  H   H8        1.0  0.65837  0.50189  0.94740  1.0000
  H   H9        1.0  0.22538  0.86350  0.20584  1.0000
  H   H10       1.0  0.77462  0.13651  0.79415  1.0000
  H   H11       1.0  0.90764  0.41176  0.15662  1.0000
  H   H12       1.0  0.09236  0.58824  0.84338  1.0000
  H   H13       1.0  0.01335  0.71937  0.50715  1.0000
  H   H14       1.0  0.98664  0.28063  0.49285  1.0000
  H   H15       1.0  0.43981  0.27515  0.70437  1.0000
  H   H16       1.0  0.56018  0.72484  0.29563  1.0000
  H   H17       1.0  0.87251  0.62535  0.24912  1.0000
  H   H18       1.0  0.12749  0.37465  0.75088  1.0000
  H   H19       1.0  0.13874  0.78164  0.73477  1.0000
  H   H20       1.0  0.86125  0.21837  0.26522  1.0000
  H   H21       1.0  0.92120  0.96635  0.78704  1.0000
  H   H22       1.0  0.07880  0.03366  0.21296  1.0000
  H   H23       1.0  0.32881  0.80213  0.79316  1.0000
  H   H24       1.0  0.67118  0.19787  0.20683  1.0000
  H   H25       1.0  0.03768  0.11154  0.76929  1.0000
  H   H26       1.0  0.96232  0.88847  0.23072  1.0000
  C   C1        1.0  0.40473  0.18950  0.22183  1.0000
  C   C2        1.0  0.59528  0.81050  0.77818  1.0000
  C   C3        1.0  0.47772  0.26490  0.35051  1.0000
  C   C4        1.0  0.52228  0.73509  0.64949  1.0000
  C   C5        1.0  0.62623  0.38735  0.39124  1.0000
  C   C6        1.0  0.37375  0.61264  0.60875  1.0000
  C   C7        1.0  0.69791  0.45787  0.51158  1.0000
  C   C8        1.0  0.30209  0.54212  0.48843  1.0000
  C   C9        1.0  0.62151  0.40714  0.59195  1.0000
  C   C10       1.0  0.37849  0.59285  0.40806  1.0000
  C   C11       1.0  0.47154  0.28522  0.55058  1.0000
  C   C12       1.0  0.52845  0.71476  0.44941  1.0000
  C   C13       1.0  0.40069  0.21425  0.42963  1.0000
  C   C14       1.0  0.59932  0.78574  0.57037  1.0000
  C   C15       1.0  0.85468  0.58845  0.55616  1.0000
  C   C16       1.0  0.14533  0.41156  0.44385  1.0000
  C   C17       1.0  0.07982  0.27710  0.05270  1.0000
  C   C18       1.0  0.92018  0.72290  0.94730  1.0000
  C   C19       1.0  0.11998  0.43950  0.09972  1.0000
  C   C20       1.0  0.88003  0.56050  0.90028  1.0000
  C   C21       1.0  0.26246  0.53983  0.09098  1.0000
  C   C22       1.0  0.73754  0.46017  0.90902  1.0000
  C   C23       1.0  0.29839  0.69184  0.12776  1.0000
  C   C24       1.0  0.70162  0.30817  0.87224  1.0000
  C   C25       1.0  0.19752  0.74483  0.17829  1.0000
  C   C26       1.0  0.80248  0.25517  0.82171  1.0000
  C   C27       1.0  0.06000  0.64382  0.19210  1.0000
  C   C28       1.0  0.94000  0.35618  0.80790  1.0000
  C   C29       1.0  0.01818  0.49134  0.15032  1.0000
  C   C30       1.0  0.98182  0.50866  0.84968  1.0000
  C   C31       1.0  0.44543  0.79456  0.10955  1.0000
  C   C32       1.0  0.55457  0.20544  0.89045  1.0000
  O   O1        1.0  0.26070  0.08848  0.17961  1.0000
  O   O2        1.0  0.73932  0.91153  0.82039  1.0000
  O   O3        1.0  0.49146  0.22712  0.15539  1.0000
  O   O4        1.0  0.50853  0.77287  0.84460  1.0000
  O   O5        1.0  0.91407  0.62915  0.46983  1.0000
  O   O6        1.0  0.08594  0.37084  0.53016  1.0000
  O   O7        1.0  0.92743  0.65553  0.66047  1.0000
  O   O8        1.0  0.07256  0.34448  0.33955  1.0000
  O   O9        1.0  0.38458  0.22923  0.61954  1.0000
  O   O10       1.0  0.61542  0.77076  0.38045  1.0000
  O   O11       1.0  0.17720  0.24117  0.00550  1.0000
  O   O12       1.0  0.82280  0.75883  0.99450  1.0000
  O   O13       1.0  0.95171  0.18470  0.06150  1.0000
  O   O14       1.0  0.04829  0.81531  0.93850  1.0000
  O   O15       1.0  0.57898  0.77219  0.13766  1.0000
  O   O16       1.0  0.42102  0.22782  0.86235  1.0000
  O   O17       1.0  0.43399  0.89951  0.06346  1.0000
  O   O18       1.0  0.56601  0.10049  0.93654  1.0000
  O   O19       1.0  0.96945  0.70296  0.24721  1.0000
  O   O20       1.0  0.03055  0.29704  0.75279  1.0000
  O   O21       1.0  0.03111  0.01333  0.77861  1.0000
  O   O22       1.0  0.96889  0.98668  0.22139  1.0000
  O   O23       1.0  0.25177  0.85423  0.77687  1.0000
  O   O24       1.0  0.74822  0.14578  0.22312  1.0000
