data_image0
_chemical_formula_structural       Er2H26C32O24
_chemical_formula_sum              "Er2 H26 C32 O24"
_cell_length_a       8.80508
_cell_length_b       9.6895
_cell_length_c       12.1556
_cell_angle_alpha    101.181
_cell_angle_beta     103.815
_cell_angle_gamma    108.478

_space_group_name_H-M_alt    "P 1"
_space_group_IT_number       1

loop_
  _space_group_symop_operation_xyz
  'x, y, z'

loop_
  _atom_site_type_symbol
  _atom_site_label
  _atom_site_symmetry_multiplicity
  _atom_site_fract_x
  _atom_site_fract_y
  _atom_site_fract_z
  _atom_site_occupancy
  Er  Er1       1.0  0.77342  0.03795  0.96248  1.0000
  Er  Er2       1.0  0.22659  0.96205  0.03752  1.0000
  H   H1        1.0  0.18248  0.43122  0.32240  1.0000
  H   H2        1.0  0.81751  0.56878  0.67760  1.0000
  H   H3        1.0  0.18798  0.46013  0.68232  1.0000
  H   H4        1.0  0.81201  0.53987  0.31768  1.0000
  H   H5        1.0  0.77936  0.10660  0.39043  1.0000
  H   H6        1.0  0.22063  0.89339  0.60957  1.0000
  H   H7        1.0  0.84376  0.49085  0.04714  1.0000
  H   H8        1.0  0.15625  0.50916  0.95287  1.0000
  H   H9        1.0  0.40189  0.40490  0.15667  1.0000
  H   H10       1.0  0.59812  0.59510  0.84333  1.0000
  H   H11       1.0  0.72473  0.86700  0.20252  1.0000
  H   H12       1.0  0.27527  0.13300  0.79749  1.0000
  H   H13       1.0  0.52437  0.73220  0.50702  1.0000
  H   H14       1.0  0.47564  0.26779  0.49299  1.0000
  H   H15       1.0  0.95224  0.26647  0.70037  1.0000
  H   H16       1.0  0.04774  0.73353  0.29963  1.0000
  H   H17       1.0  0.37311  0.62542  0.25726  1.0000
  H   H18       1.0  0.62689  0.37457  0.74274  1.0000
  H   H19       1.0  0.65057  0.79805  0.74395  1.0000
  H   H20       1.0  0.34942  0.20194  0.25605  1.0000
  H   H21       1.0  0.56206  0.11490  0.77879  1.0000
  H   H22       1.0  0.43794  0.88509  0.22121  1.0000
  H   H23       1.0  0.43917  0.97134  0.79848  1.0000
  H   H24       1.0  0.56082  0.02866  0.20152  1.0000
  H   H25       1.0  0.84087  0.81205  0.80893  1.0000
  H   H26       1.0  0.15913  0.18795  0.19107  1.0000
  C   C1        1.0  0.89790  0.18498  0.21323  1.0000
  C   C2        1.0  0.10210  0.81502  0.78677  1.0000
  C   C3        1.0  0.97450  0.26095  0.34342  1.0000
  C   C4        1.0  0.02550  0.73905  0.65657  1.0000
  C   C5        1.0  0.12629  0.38811  0.38539  1.0000
  C   C6        1.0  0.87371  0.61189  0.61461  1.0000
  C   C7        1.0  0.20249  0.45864  0.50726  1.0000
  C   C8        1.0  0.79750  0.54135  0.49274  1.0000
  C   C9        1.0  0.12734  0.40288  0.58767  1.0000
  C   C10       1.0  0.87265  0.59712  0.41232  1.0000
  C   C11       1.0  0.97445  0.27581  0.54511  1.0000
  C   C12       1.0  0.02555  0.72419  0.45489  1.0000
  C   C13       1.0  0.89843  0.20503  0.42272  1.0000
  C   C14       1.0  0.10157  0.79497  0.57727  1.0000
  C   C15       1.0  0.36304  0.59398  0.55405  1.0000
  C   C16       1.0  0.63696  0.40602  0.44596  1.0000
  C   C17       1.0  0.94442  0.79636  0.09927  1.0000
  C   C18       1.0  0.05559  0.20365  0.90073  1.0000
  C   C19       1.0  0.79933  0.69069  0.12292  1.0000
  C   C20       1.0  0.20067  0.30931  0.87708  1.0000
  C   C21       1.0  0.76402  0.53459  0.08746  1.0000
  C   C22       1.0  0.23599  0.46542  0.91254  1.0000
  C   C23       1.0  0.61890  0.43228  0.09818  1.0000
  C   C24       1.0  0.38111  0.56772  0.90182  1.0000
  C   C25       1.0  0.51494  0.48628  0.14988  1.0000
  C   C26       1.0  0.48507  0.51372  0.85012  1.0000
  C   C27       1.0  0.55788  0.64294  0.19181  1.0000
  C   C28       1.0  0.44213  0.35706  0.80819  1.0000
  C   C29       1.0  0.69724  0.74547  0.17590  1.0000
  C   C30       1.0  0.30276  0.25453  0.82411  1.0000
  C   C31       1.0  0.57610  0.26460  0.05165  1.0000
  C   C32       1.0  0.42391  0.73540  0.94835  1.0000
  O   O1        1.0  0.98378  0.22642  0.14536  1.0000
  O   O2        1.0  0.01622  0.77357  0.85463  1.0000
  O   O3        1.0  0.75218  0.07809  0.16979  1.0000
  O   O4        1.0  0.24782  0.92191  0.83021  1.0000
  O   O5        1.0  0.42207  0.63942  0.46804  1.0000
  O   O6        1.0  0.57794  0.36057  0.53196  1.0000
  O   O7        1.0  0.43870  0.66073  0.65970  1.0000
  O   O8        1.0  0.56129  0.33927  0.34030  1.0000
  O   O9        1.0  0.89064  0.21547  0.61587  1.0000
  O   O10       1.0  0.10935  0.78452  0.38412  1.0000
  O   O11       1.0  0.92764  0.90161  0.05364  1.0000
  O   O12       1.0  0.07236  0.09839  0.94636  1.0000
  O   O13       1.0  0.08379  0.77735  0.12244  1.0000
  O   O14       1.0  0.91622  0.22265  0.87756  1.0000
  O   O15       1.0  0.67605  0.22592  0.00502  1.0000
  O   O16       1.0  0.32396  0.77409  0.99499  1.0000
  O   O17       1.0  0.44393  0.17256  0.06114  1.0000
  O   O18       1.0  0.55609  0.82744  0.93886  1.0000
  O   O19       1.0  0.46507  0.70464  0.24722  1.0000
  O   O20       1.0  0.53493  0.29536  0.75279  1.0000
  O   O21       1.0  0.55115  0.01386  0.78758  1.0000
  O   O22       1.0  0.44884  0.98614  0.21243  1.0000
  O   O23       1.0  0.76652  0.86912  0.79210  1.0000
  O   O24       1.0  0.23348  0.13087  0.20790  1.0000
