data_image0
_chemical_formula_structural       Na2P6H54C48O22
_chemical_formula_sum              "Na2 P6 H54 C48 O22"
_cell_length_a       7.94564
_cell_length_b       12.6768
_cell_length_c       14.0255
_cell_angle_alpha    88.111
_cell_angle_beta     85.0723
_cell_angle_gamma    79.8855

_space_group_name_H-M_alt    "P 1"
_space_group_IT_number       1

loop_
  _space_group_symop_operation_xyz
  'x, y, z'

loop_
  _atom_site_type_symbol
  _atom_site_label
  _atom_site_symmetry_multiplicity
  _atom_site_fract_x
  _atom_site_fract_y
  _atom_site_fract_z
  _atom_site_occupancy
  Na  Na1       1.0  0.20157  0.51470  0.05229  1.0000
  Na  Na2       1.0  0.79843  0.48530  0.94771  1.0000
  P   P1        1.0  0.07091  0.25592  0.78383  1.0000
  P   P2        1.0  0.92908  0.74409  0.21616  1.0000
  P   P3        1.0  0.96757  0.45468  0.36410  1.0000
  P   P4        1.0  0.03244  0.54532  0.63590  1.0000
  P   P5        1.0  0.53554  0.75530  0.99343  1.0000
  P   P6        1.0  0.46446  0.24470  0.00657  1.0000
  H   H1        1.0  0.13499  0.42232  0.48462  1.0000
  H   H2        1.0  0.86501  0.57769  0.51538  1.0000
  H   H3        1.0  0.17732  0.34443  0.65746  1.0000
  H   H4        1.0  0.82268  0.65557  0.34254  1.0000
  H   H5        1.0  0.51881  0.56991  0.07391  1.0000
  H   H6        1.0  0.48119  0.43009  0.92610  1.0000
  H   H7        1.0  0.97635  0.43587  0.78336  1.0000
  H   H8        1.0  0.02365  0.56413  0.21664  1.0000
  H   H9        1.0  0.69843  0.82235  0.09543  1.0000
  H   H10       1.0  0.30157  0.17765  0.90457  1.0000
  H   H11       1.0  0.05775  0.57203  0.85258  1.0000
  H   H12       1.0  0.94225  0.42797  0.14743  1.0000
  H   H13       1.0  0.29442  0.78877  0.08206  1.0000
  H   H14       1.0  0.70559  0.21123  0.91794  1.0000
  H   H15       1.0  0.49788  0.20155  0.70339  1.0000
  H   H16       1.0  0.50211  0.79845  0.29660  1.0000
  H   H17       1.0  0.69411  0.28962  0.78839  1.0000
  H   H18       1.0  0.30588  0.71038  0.21161  1.0000
  H   H19       1.0  0.12894  0.08254  0.65020  1.0000
  H   H20       1.0  0.87106  0.91746  0.34980  1.0000
  H   H21       1.0  0.93129  0.99232  0.56748  1.0000
  H   H22       1.0  0.06872  0.00768  0.43252  1.0000
  H   H23       1.0  0.50910  0.29408  0.54195  1.0000
  H   H24       1.0  0.49090  0.70592  0.45805  1.0000
  H   H25       1.0  0.66989  0.44134  0.49852  1.0000
  H   H26       1.0  0.33012  0.55865  0.50148  1.0000
  H   H27       1.0  0.98995  0.24113  0.28741  1.0000
  H   H28       1.0  0.01005  0.75888  0.71259  1.0000
  H   H29       1.0  0.82798  0.09534  0.33023  1.0000
  H   H30       1.0  0.17202  0.90466  0.66977  1.0000
  H   H31       1.0  0.67629  0.75434  0.64272  1.0000
  H   H32       1.0  0.32370  0.24566  0.35728  1.0000
  H   H33       1.0  0.68312  0.67154  0.80430  1.0000
  H   H34       1.0  0.31687  0.32845  0.19570  1.0000
  H   H35       1.0  0.40089  0.96711  0.92365  1.0000
  H   H36       1.0  0.59912  0.03290  0.07635  1.0000
  H   H37       1.0  0.39102  0.04822  0.76268  1.0000
  H   H38       1.0  0.60898  0.95178  0.23732  1.0000
  H   H39       1.0  0.52156  0.52343  0.36038  1.0000
  H   H40       1.0  0.47845  0.47657  0.63962  1.0000
  H   H41       1.0  0.32623  0.56625  0.30642  1.0000
  H   H42       1.0  0.67377  0.43375  0.69358  1.0000
  H   H43       1.0  0.42587  0.42969  0.30271  1.0000
  H   H44       1.0  0.57414  0.57031  0.69729  1.0000
  H   H45       1.0  0.59438  0.61348  0.21077  1.0000
  H   H46       1.0  0.40562  0.38652  0.78923  1.0000
  H   H47       1.0  0.67230  0.47423  0.19939  1.0000
  H   H48       1.0  0.32771  0.52578  0.80061  1.0000
  H   H49       1.0  0.12910  0.74127  0.88693  1.0000
  H   H50       1.0  0.87089  0.25873  0.11307  1.0000
  H   H51       1.0  0.90532  0.73988  0.87800  1.0000
  H   H52       1.0  0.09468  0.26012  0.12200  1.0000
  H   H53       1.0  0.98784  0.73618  0.99241  1.0000
  H   H54       1.0  0.01215  0.26382  0.00759  1.0000
  C   C1        1.0  0.51682  0.95584  0.59331  1.0000
  C   C2        1.0  0.48318  0.04416  0.40669  1.0000
  C   C3        1.0  0.57352  0.09076  0.47187  1.0000
  C   C4        1.0  0.42648  0.90924  0.52813  1.0000
  C   C5        1.0  0.59009  0.04657  0.56516  1.0000
  C   C6        1.0  0.40991  0.95343  0.43483  1.0000
  C   C7        1.0  0.70128  0.09185  0.62824  1.0000
  C   C8        1.0  0.29872  0.90815  0.37176  1.0000
  C   C9        1.0  0.63572  0.17330  0.69319  1.0000
  C   C10       1.0  0.36428  0.82670  0.30681  1.0000
  C   C11       1.0  0.74637  0.22260  0.74160  1.0000
  C   C12       1.0  0.25362  0.77740  0.25839  1.0000
  C   C13       1.0  0.92444  0.19151  0.72589  1.0000
  C   C14       1.0  0.07555  0.80849  0.27411  1.0000
  C   C15       1.0  0.99044  0.10738  0.66333  1.0000
  C   C16       1.0  0.00956  0.89262  0.33667  1.0000
  C   C17       1.0  0.87958  0.05770  0.61598  1.0000
  C   C18       1.0  0.12042  0.94230  0.38402  1.0000
  C   C19       1.0  0.66026  0.18293  0.44133  1.0000
  C   C20       1.0  0.33974  0.81707  0.55867  1.0000
  C   C21       1.0  0.61551  0.28197  0.48677  1.0000
  C   C22       1.0  0.38449  0.71803  0.51323  1.0000
  C   C23       1.0  0.70519  0.36519  0.46192  1.0000
  C   C24       1.0  0.29481  0.63481  0.53808  1.0000
  C   C25       1.0  0.84121  0.35144  0.39040  1.0000
  C   C26       1.0  0.15879  0.64856  0.60960  1.0000
  C   C27       1.0  0.88433  0.25334  0.34315  1.0000
  C   C28       1.0  0.11567  0.74666  0.65685  1.0000
  C   C29       1.0  0.79378  0.17069  0.36796  1.0000
  C   C30       1.0  0.20622  0.82931  0.63203  1.0000
  C   C31       1.0  0.53339  0.90755  0.69097  1.0000
  C   C32       1.0  0.46661  0.09245  0.30903  1.0000
  C   C33       1.0  0.61625  0.80146  0.70409  1.0000
  C   C34       1.0  0.38374  0.19854  0.29590  1.0000
  C   C35       1.0  0.62017  0.75445  0.79540  1.0000
  C   C36       1.0  0.37983  0.24555  0.20459  1.0000
  C   C37       1.0  0.54155  0.81315  0.87514  1.0000
  C   C38       1.0  0.45845  0.18685  0.12485  1.0000
  C   C39       1.0  0.46118  0.91986  0.86251  1.0000
  C   C40       1.0  0.53882  0.08014  0.13749  1.0000
  C   C41       1.0  0.45762  0.96627  0.77135  1.0000
  C   C42       1.0  0.54239  0.03373  0.22865  1.0000
  C   C43       1.0  0.45019  0.51214  0.29898  1.0000
  C   C44       1.0  0.54982  0.48786  0.70102  1.0000
  C   C45       1.0  0.55428  0.53475  0.20784  1.0000
  C   C46       1.0  0.44573  0.46525  0.79216  1.0000
  C   C47       1.0  0.01656  0.70938  0.91857  1.0000
  C   C48       1.0  0.98344  0.29062  0.08143  1.0000
  O   O1        1.0  0.14916  0.18208  0.86030  1.0000
  O   O2        1.0  0.85084  0.81792  0.13970  1.0000
  O   O3        1.0  0.96662  0.36416  0.82507  1.0000
  O   O4        1.0  0.03337  0.63584  0.17493  1.0000
  O   O5        1.0  0.21284  0.28118  0.70504  1.0000
  O   O6        1.0  0.78715  0.71882  0.29496  1.0000
  O   O7        1.0  0.14180  0.41596  0.41142  1.0000
  O   O8        1.0  0.85820  0.58404  0.58858  1.0000
  O   O9        1.0  0.87208  0.56080  0.40738  1.0000
  O   O10       1.0  0.12793  0.43920  0.59262  1.0000
  O   O11       1.0  0.01146  0.46299  0.25606  1.0000
  O   O12       1.0  0.98854  0.53701  0.74395  1.0000
  O   O13       1.0  0.33384  0.75648  0.01998  1.0000
  O   O14       1.0  0.66616  0.24352  0.98003  1.0000
  O   O15       1.0  0.63736  0.64407  0.99758  1.0000
  O   O16       1.0  0.36265  0.35593  0.00242  1.0000
  O   O17       1.0  0.57783  0.83635  0.06524  1.0000
  O   O18       1.0  0.42217  0.16365  0.93476  1.0000
  O   O19       1.0  0.45678  0.53338  0.12591  1.0000
  O   O20       1.0  0.54322  0.46662  0.87409  1.0000
  O   O21       1.0  0.05027  0.59350  0.92023  1.0000
  O   O22       1.0  0.94973  0.40649  0.07977  1.0000
