data_image0
_chemical_formula_structural       Cu4H16C24S20I4O4
_chemical_formula_sum              "Cu4 H16 C24 S20 I4 O4"
_cell_length_a       4.34899
_cell_length_b       12.6878
_cell_length_c       20.5704
_cell_angle_alpha    89.9998
_cell_angle_beta     90
_cell_angle_gamma    89.9998

_space_group_name_H-M_alt    "P 1"
_space_group_IT_number       1

loop_
  _space_group_symop_operation_xyz
  'x, y, z'

loop_
  _atom_site_type_symbol
  _atom_site_label
  _atom_site_symmetry_multiplicity
  _atom_site_fract_x
  _atom_site_fract_y
  _atom_site_fract_z
  _atom_site_occupancy
  Cu  Cu1       1.0  0.65152  0.06425  0.98085  1.0000
  Cu  Cu2       1.0  0.15149  0.93574  0.01915  1.0000
  Cu  Cu3       1.0  0.65152  0.56425  0.51915  1.0000
  Cu  Cu4       1.0  0.15149  0.43574  0.48085  1.0000
  H   H1        1.0  0.38174  0.93251  0.63912  1.0000
  H   H2        1.0  0.88173  0.06749  0.36088  1.0000
  H   H3        1.0  0.38176  0.43251  0.86087  1.0000
  H   H4        1.0  0.88175  0.56749  0.13912  1.0000
  H   H5        1.0  0.42072  0.10956  0.58537  1.0000
  H   H6        1.0  0.92074  0.89045  0.41463  1.0000
  H   H7        1.0  0.42074  0.60956  0.91462  1.0000
  H   H8        1.0  0.92074  0.39045  0.08537  1.0000
  H   H9        1.0  0.09834  0.16016  0.54050  1.0000
  H   H10       1.0  0.59836  0.83984  0.45951  1.0000
  H   H11       1.0  0.09836  0.66016  0.95950  1.0000
  H   H12       1.0  0.59837  0.33984  0.04049  1.0000
  H   H13       1.0  0.06702  0.84886  0.61404  1.0000
  H   H14       1.0  0.56702  0.15114  0.38596  1.0000
  H   H15       1.0  0.06704  0.34886  0.88596  1.0000
  H   H16       1.0  0.56701  0.65114  0.11404  1.0000
  C   C1        1.0  0.48993  0.13739  0.83129  1.0000
  C   C2        1.0  0.98991  0.86261  0.16872  1.0000
  C   C3        1.0  0.48992  0.63739  0.66871  1.0000
  C   C4        1.0  0.98993  0.36261  0.33128  1.0000
  C   C5        1.0  0.14820  0.04164  0.74564  1.0000
  C   C6        1.0  0.64819  0.95836  0.25436  1.0000
  C   C7        1.0  0.14819  0.54164  0.75436  1.0000
  C   C8        1.0  0.64820  0.45835  0.24564  1.0000
  C   C9        1.0  0.19989  0.13973  0.71996  1.0000
  C   C10       1.0  0.69988  0.86027  0.28005  1.0000
  C   C11       1.0  0.19988  0.63973  0.78004  1.0000
  C   C12       1.0  0.69989  0.36026  0.21995  1.0000
  C   C13       1.0  0.13314  0.92758  0.63125  1.0000
  C   C14       1.0  0.63314  0.07242  0.36875  1.0000
  C   C15       1.0  0.13317  0.42758  0.86875  1.0000
  C   C16       1.0  0.63314  0.57242  0.13125  1.0000
  C   C17       1.0  0.01072  0.01022  0.58503  1.0000
  C   C18       1.0  0.51075  0.98978  0.41497  1.0000
  C   C19       1.0  0.01075  0.51022  0.91497  1.0000
  C   C20       1.0  0.51076  0.48979  0.08503  1.0000
  C   C21       1.0  0.16970  0.11592  0.58379  1.0000
  C   C22       1.0  0.66972  0.88409  0.41621  1.0000
  C   C23       1.0  0.16971  0.61592  0.91620  1.0000
  C   C24       1.0  0.66973  0.38409  0.08379  1.0000
  S   S1        1.0  0.69566  0.17506  0.89551  1.0000
  S   S2        1.0  0.19565  0.82494  0.10450  1.0000
  S   S3        1.0  0.69565  0.67506  0.60449  1.0000
  S   S4        1.0  0.19564  0.32493  0.39551  1.0000
  S   S5        1.0  0.31997  0.01502  0.82054  1.0000
  S   S6        1.0  0.81995  0.98498  0.17947  1.0000
  S   S7        1.0  0.31996  0.51501  0.67946  1.0000
  S   S8        1.0  0.81995  0.48498  0.32053  1.0000
  S   S9        1.0  0.43561  0.22082  0.76611  1.0000
  S   S10       1.0  0.93561  0.77919  0.23390  1.0000
  S   S11       1.0  0.43560  0.72082  0.73389  1.0000
  S   S12       1.0  0.93563  0.27918  0.26610  1.0000
  S   S13       1.0  0.03554  0.19784  0.65144  1.0000
  S   S14       1.0  0.53555  0.80216  0.34857  1.0000
  S   S15       1.0  0.03554  0.69785  0.84856  1.0000
  S   S16       1.0  0.53557  0.30215  0.15143  1.0000
  S   S17       1.0  0.93677  0.94071  0.70973  1.0000
  S   S18       1.0  0.43675  0.05929  0.29027  1.0000
  S   S19       1.0  0.93677  0.44071  0.79027  1.0000
  S   S20       1.0  0.43677  0.55929  0.20973  1.0000
  I   I1        1.0  0.65598  0.86402  0.95575  1.0000
  I   I2        1.0  0.15599  0.13597  0.04425  1.0000
  I   I3        1.0  0.65598  0.36402  0.54425  1.0000
  I   I4        1.0  0.15598  0.63597  0.45575  1.0000
  O   O1        1.0  0.77873  0.99288  0.55273  1.0000
  O   O2        1.0  0.27875  0.00712  0.44728  1.0000
  O   O3        1.0  0.77876  0.49289  0.94727  1.0000
  O   O4        1.0  0.27873  0.50712  0.05272  1.0000
