data_image0
_chemical_formula_structural       Cd2H40C40N8O8
_chemical_formula_sum              "Cd2 H40 C40 N8 O8"
_cell_length_a       7.8379
_cell_length_b       10.3477
_cell_length_c       13.5942
_cell_angle_alpha    91.8413
_cell_angle_beta     91.0039
_cell_angle_gamma    99.0172

_space_group_name_H-M_alt    "P 1"
_space_group_IT_number       1

loop_
  _space_group_symop_operation_xyz
  'x, y, z'

loop_
  _atom_site_type_symbol
  _atom_site_label
  _atom_site_symmetry_multiplicity
  _atom_site_fract_x
  _atom_site_fract_y
  _atom_site_fract_z
  _atom_site_occupancy
  Cd  Cd1       1.0  0.54706  0.42033  0.27391  1.0000
  Cd  Cd2       1.0  0.45293  0.57967  0.72608  1.0000
  H   H1        1.0  0.03686  0.83196  0.38929  1.0000
  H   H2        1.0  0.96313  0.16802  0.61072  1.0000
  H   H3        1.0  0.06548  0.69584  0.68478  1.0000
  H   H4        1.0  0.93449  0.30415  0.31522  1.0000
  H   H5        1.0  0.27418  0.88889  0.73083  1.0000
  H   H6        1.0  0.72581  0.11111  0.26918  1.0000
  H   H7        1.0  0.36521  0.06133  0.61027  1.0000
  H   H8        1.0  0.63479  0.93868  0.38974  1.0000
  H   H9        1.0  0.23967  0.18222  0.20047  1.0000
  H   H10       1.0  0.76035  0.81776  0.79954  1.0000
  H   H11       1.0  0.45953  0.21249  0.48665  1.0000
  H   H12       1.0  0.54046  0.78753  0.51336  1.0000
  H   H13       1.0  0.62677  0.37980  0.53682  1.0000
  H   H14       1.0  0.37321  0.62020  0.46317  1.0000
  H   H15       1.0  0.85044  0.65850  0.33904  1.0000
  H   H16       1.0  0.14955  0.34151  0.66096  1.0000
  H   H17       1.0  0.64113  0.16275  0.71658  1.0000
  H   H18       1.0  0.35887  0.83726  0.28341  1.0000
  H   H19       1.0  0.83329  0.14735  0.86062  1.0000
  H   H20       1.0  0.16672  0.85267  0.13938  1.0000
  H   H21       1.0  0.88333  0.30427  0.80868  1.0000
  H   H22       1.0  0.11668  0.69574  0.19131  1.0000
  H   H23       1.0  0.71127  0.39943  0.93714  1.0000
  H   H24       1.0  0.28873  0.60057  0.06285  1.0000
  H   H25       1.0  0.87459  0.32464  0.99278  1.0000
  H   H26       1.0  0.12542  0.67538  0.00722  1.0000
  H   H27       1.0  0.67060  0.12813  0.02542  1.0000
  H   H28       1.0  0.32942  0.87187  0.97457  1.0000
  H   H29       1.0  0.38438  0.26367  0.93810  1.0000
  H   H30       1.0  0.61563  0.73633  0.06189  1.0000
  H   H31       1.0  0.35831  0.10576  0.98538  1.0000
  H   H32       1.0  0.64170  0.89425  0.01461  1.0000
  H   H33       1.0  0.35601  0.10422  0.80045  1.0000
  H   H34       1.0  0.64401  0.89578  0.19955  1.0000
  H   H35       1.0  0.52256  0.02522  0.84846  1.0000
  H   H36       1.0  0.47745  0.97479  0.15154  1.0000
  H   H37       1.0  0.09933  0.98346  0.29372  1.0000
  H   H38       1.0  0.90069  0.01653  0.70628  1.0000
  H   H39       1.0  0.83310  0.53612  0.63485  1.0000
  H   H40       1.0  0.16687  0.46387  0.36515  1.0000
  C   C1        1.0  0.20874  0.95840  0.49006  1.0000
  C   C2        1.0  0.79126  0.04159  0.50994  1.0000
  C   C3        1.0  0.09013  0.84649  0.46414  1.0000
  C   C4        1.0  0.90987  0.15350  0.53586  1.0000
  C   C5        1.0  0.03245  0.75182  0.53299  1.0000
  C   C6        1.0  0.96754  0.24818  0.46701  1.0000
  C   C7        1.0  0.10146  0.76847  0.62942  1.0000
  C   C8        1.0  0.89852  0.23153  0.37058  1.0000
  C   C9        1.0  0.22083  0.87954  0.65595  1.0000
  C   C10       1.0  0.77915  0.12046  0.34406  1.0000
  C   C11       1.0  0.27307  0.97476  0.58796  1.0000
  C   C12       1.0  0.72692  0.02525  0.41205  1.0000
  C   C13       1.0  0.26744  0.16016  0.27609  1.0000
  C   C14       1.0  0.73256  0.83983  0.72392  1.0000
  C   C15       1.0  0.37750  0.17290  0.42456  1.0000
  C   C16       1.0  0.62250  0.82710  0.57545  1.0000
  C   C17       1.0  0.26142  0.05729  0.41825  1.0000
  C   C18       1.0  0.73859  0.94270  0.58175  1.0000
  C   C19       1.0  0.70678  0.46215  0.50549  1.0000
  C   C20       1.0  0.29321  0.53784  0.49450  1.0000
  C   C21       1.0  0.82873  0.60918  0.40786  1.0000
  C   C22       1.0  0.17125  0.39081  0.59213  1.0000
  C   C23       1.0  0.90253  0.64180  0.50066  1.0000
  C   C24       1.0  0.09746  0.35820  0.49934  1.0000
  C   C25       1.0  0.61553  0.21161  0.78706  1.0000
  C   C26       1.0  0.38448  0.78840  0.21294  1.0000
  C   C27       1.0  0.78468  0.24043  0.84866  1.0000
  C   C28       1.0  0.21532  0.75958  0.15134  1.0000
  C   C29       1.0  0.75418  0.30434  0.94854  1.0000
  C   C30       1.0  0.24583  0.69567  0.05146  1.0000
  C   C31       1.0  0.61591  0.21650  0.00635  1.0000
  C   C32       1.0  0.38410  0.78349  0.99365  1.0000
  C   C33       1.0  0.44823  0.17723  0.94548  1.0000
  C   C34       1.0  0.55178  0.82277  0.05451  1.0000
  C   C35       1.0  0.47878  0.12115  0.84275  1.0000
  C   C36       1.0  0.52124  0.87886  0.15725  1.0000
  C   C37       1.0  0.55689  0.34042  0.75870  1.0000
  C   C38       1.0  0.44311  0.65959  0.24130  1.0000
  C   C39       1.0  0.58689  0.28716  0.10323  1.0000
  C   C40       1.0  0.41312  0.71284  0.89677  1.0000
  N   N1        1.0  0.19543  0.05184  0.32255  1.0000
  N   N2        1.0  0.80457  0.94816  0.67746  1.0000
  N   N3        1.0  0.37967  0.23528  0.33667  1.0000
  N   N4        1.0  0.62032  0.76471  0.66334  1.0000
  N   N5        1.0  0.82195  0.54620  0.56057  1.0000
  N   N6        1.0  0.17804  0.45379  0.43943  1.0000
  N   N7        1.0  0.70825  0.49762  0.41211  1.0000
  N   N8        1.0  0.29174  0.50238  0.58788  1.0000
  O   O1        1.0  0.66872  0.42941  0.72292  1.0000
  O   O2        1.0  0.33128  0.57060  0.27708  1.0000
  O   O3        1.0  0.40074  0.35564  0.77101  1.0000
  O   O4        1.0  0.59925  0.64436  0.22898  1.0000
  O   O5        1.0  0.44297  0.32673  0.11745  1.0000
  O   O6        1.0  0.55702  0.67327  0.88255  1.0000
  O   O7        1.0  0.71092  0.30704  0.16756  1.0000
  O   O8        1.0  0.28908  0.69296  0.83244  1.0000
