data_image0
_chemical_formula_structural       Cd2H40C40N8O8
_chemical_formula_sum              "Cd2 H40 C40 N8 O8"
_cell_length_a       8.47364
_cell_length_b       10.2836
_cell_length_c       12.5505
_cell_angle_alpha    83.2475
_cell_angle_beta     77.465
_cell_angle_gamma    77.5684

_space_group_name_H-M_alt    "P 1"
_space_group_IT_number       1

loop_
  _space_group_symop_operation_xyz
  'x, y, z'

loop_
  _atom_site_type_symbol
  _atom_site_label
  _atom_site_symmetry_multiplicity
  _atom_site_fract_x
  _atom_site_fract_y
  _atom_site_fract_z
  _atom_site_occupancy
  Cd  Cd1       1.0  0.12902  0.48157  0.78960  1.0000
  Cd  Cd2       1.0  0.87099  0.51843  0.21040  1.0000
  H   H1        1.0  0.68405  0.91046  0.63907  1.0000
  H   H2        1.0  0.31596  0.08953  0.36093  1.0000
  H   H3        1.0  0.63414  0.24889  0.40164  1.0000
  H   H4        1.0  0.36587  0.75110  0.59837  1.0000
  H   H5        1.0  0.87545  0.13439  0.27568  1.0000
  H   H6        1.0  0.12456  0.86561  0.72432  1.0000
  H   H7        1.0  0.02183  0.90595  0.32902  1.0000
  H   H8        1.0  0.97818  0.09404  0.67098  1.0000
  H   H9        1.0  0.22423  0.48940  0.49183  1.0000
  H   H10       1.0  0.77578  0.51059  0.50818  1.0000
  H   H11       1.0  0.88601  0.74829  0.70796  1.0000
  H   H12       1.0  0.11398  0.25171  0.29204  1.0000
  H   H13       1.0  0.20236  0.15437  0.81911  1.0000
  H   H14       1.0  0.79764  0.84564  0.18088  1.0000
  H   H15       1.0  0.47710  0.37600  0.57143  1.0000
  H   H16       1.0  0.52291  0.62399  0.42856  1.0000
  H   H17       1.0  0.57687  0.25269  0.08941  1.0000
  H   H18       1.0  0.42311  0.74731  0.91059  1.0000
  H   H19       1.0  0.59562  0.41080  0.93404  1.0000
  H   H20       1.0  0.40437  0.58921  0.06597  1.0000
  H   H21       1.0  0.48407  0.22127  0.91683  1.0000
  H   H22       1.0  0.51592  0.77875  0.08317  1.0000
  H   H23       1.0  0.60450  0.26311  0.78870  1.0000
  H   H24       1.0  0.39549  0.73691  0.21130  1.0000
  H   H25       1.0  0.65624  0.01417  0.83414  1.0000
  H   H26       1.0  0.34375  0.98585  0.16585  1.0000
  H   H27       1.0  0.83644  0.07886  0.82216  1.0000
  H   H28       1.0  0.16354  0.92116  0.17784  1.0000
  H   H29       1.0  0.80790  0.92073  0.98566  1.0000
  H   H30       1.0  0.19209  0.07928  0.01433  1.0000
  H   H31       1.0  0.60869  0.01163  0.03744  1.0000
  H   H32       1.0  0.39130  0.98837  0.96255  1.0000
  H   H33       1.0  0.81748  0.07440  0.12624  1.0000
  H   H34       1.0  0.18251  0.92559  0.87375  1.0000
  H   H35       1.0  0.93133  0.11751  0.99782  1.0000
  H   H36       1.0  0.06865  0.88250  0.00218  1.0000
  H   H37       1.0  0.09041  0.67562  0.37324  1.0000
  H   H38       1.0  0.90960  0.32437  0.62676  1.0000
  H   H39       1.0  0.41542  0.98934  0.69927  1.0000
  H   H40       1.0  0.58458  0.01065  0.30074  1.0000
  C   C1        1.0  0.85978  0.89125  0.48705  1.0000
  C   C2        1.0  0.14022  0.10873  0.51295  1.0000
  C   C3        1.0  0.72337  0.95873  0.55839  1.0000
  C   C4        1.0  0.27664  0.04126  0.44161  1.0000
  C   C5        1.0  0.64172  0.08730  0.52962  1.0000
  C   C6        1.0  0.35828  0.91269  0.47038  1.0000
  C   C7        1.0  0.69660  0.14901  0.42592  1.0000
  C   C8        1.0  0.30341  0.85098  0.57408  1.0000
  C   C9        1.0  0.83278  0.08328  0.35473  1.0000
  C   C10       1.0  0.16722  0.91671  0.64528  1.0000
  C   C11       1.0  0.91374  0.95528  0.38453  1.0000
  C   C12       1.0  0.08627  0.04471  0.61547  1.0000
  C   C13       1.0  0.13366  0.57468  0.52359  1.0000
  C   C14       1.0  0.86635  0.42531  0.47641  1.0000
  C   C15       1.0  0.95199  0.70807  0.63111  1.0000
  C   C16       1.0  0.04802  0.29193  0.36889  1.0000
  C   C17       1.0  0.94836  0.76273  0.52496  1.0000
  C   C18       1.0  0.05165  0.23726  0.47504  1.0000
  C   C19       1.0  0.29379  0.17972  0.74930  1.0000
  C   C20       1.0  0.70621  0.82029  0.25070  1.0000
  C   C21       1.0  0.43617  0.28989  0.61857  1.0000
  C   C22       1.0  0.56384  0.71010  0.38142  1.0000
  C   C23       1.0  0.50375  0.15603  0.60667  1.0000
  C   C24       1.0  0.49626  0.84397  0.39333  1.0000
  C   C25       1.0  0.70360  0.25613  0.04388  1.0000
  C   C26       1.0  0.29639  0.74387  0.95612  1.0000
  C   C27       1.0  0.68369  0.31448  0.92736  1.0000
  C   C28       1.0  0.31630  0.68553  0.07265  1.0000
  C   C29       1.0  0.61134  0.22148  0.87247  1.0000
  C   C30       1.0  0.38865  0.77854  0.12752  1.0000
  C   C31       1.0  0.71236  0.07891  0.87259  1.0000
  C   C32       1.0  0.28762  0.92111  0.12740  1.0000
  C   C33       1.0  0.73102  0.02182  0.98831  1.0000
  C   C34       1.0  0.26897  0.97819  0.01168  1.0000
  C   C35       1.0  0.80526  0.11364  0.04242  1.0000
  C   C36       1.0  0.19473  0.88636  0.95757  1.0000
  C   C37       1.0  0.76585  0.34809  0.10541  1.0000
  C   C38       1.0  0.23414  0.65191  0.89460  1.0000
  C   C39       1.0  0.84102  0.35086  0.85493  1.0000
  C   C40       1.0  0.15897  0.64915  0.14508  1.0000
  N   N1        1.0  0.06533  0.67571  0.45873  1.0000
  N   N2        1.0  0.93469  0.32428  0.54127  1.0000
  N   N3        1.0  0.06795  0.59206  0.62907  1.0000
  N   N4        1.0  0.93206  0.40794  0.37093  1.0000
  N   N5        1.0  0.41213  0.08926  0.69206  1.0000
  N   N6        1.0  0.58788  0.91074  0.30794  1.0000
  N   N7        1.0  0.30648  0.30252  0.70700  1.0000
  N   N8        1.0  0.69353  0.69747  0.29299  1.0000
  O   O1        1.0  0.88774  0.30147  0.15264  1.0000
  O   O2        1.0  0.11224  0.69852  0.84738  1.0000
  O   O3        1.0  0.68807  0.46896  0.11223  1.0000
  O   O4        1.0  0.31193  0.53104  0.88777  1.0000
  O   O5        1.0  0.94986  0.37484  0.90304  1.0000
  O   O6        1.0  0.05013  0.62517  0.09697  1.0000
  O   O7        1.0  0.85340  0.36274  0.75225  1.0000
  O   O8        1.0  0.14661  0.63727  0.24775  1.0000
