data_image0
_chemical_formula_structural       Cd2H40C40N8O8
_chemical_formula_sum              "Cd2 H40 C40 N8 O8"
_cell_length_a       8.38481
_cell_length_b       8.87111
_cell_length_c       14.8079
_cell_angle_alpha    82.8109
_cell_angle_beta     77.3877
_cell_angle_gamma    68.8523

_space_group_name_H-M_alt    "P 1"
_space_group_IT_number       1

loop_
  _space_group_symop_operation_xyz
  'x, y, z'

loop_
  _atom_site_type_symbol
  _atom_site_label
  _atom_site_symmetry_multiplicity
  _atom_site_fract_x
  _atom_site_fract_y
  _atom_site_fract_z
  _atom_site_occupancy
  Cd  Cd1       1.0  0.00167  0.94432  0.24467  1.0000
  Cd  Cd2       1.0  0.99833  0.05568  0.75533  1.0000
  H   H1        1.0  0.53464  0.96910  0.19583  1.0000
  H   H2        1.0  0.46536  0.03090  0.80417  1.0000
  H   H3        1.0  0.05807  0.35398  0.28775  1.0000
  H   H4        1.0  0.94193  0.64602  0.71225  1.0000
  H   H5        1.0  0.10817  0.51433  0.14075  1.0000
  H   H6        1.0  0.89183  0.48567  0.85925  1.0000
  H   H7        1.0  0.36837  0.40152  0.02014  1.0000
  H   H8        1.0  0.63163  0.59848  0.97986  1.0000
  H   H9        1.0  0.99313  0.82953  0.95087  1.0000
  H   H10       1.0  0.00686  0.17047  0.04913  1.0000
  H   H11       1.0  0.60398  0.27194  0.90036  1.0000
  H   H12       1.0  0.39601  0.72806  0.09964  1.0000
  H   H13       1.0  0.09959  0.79168  0.45689  1.0000
  H   H14       1.0  0.90040  0.20833  0.54311  1.0000
  H   H15       1.0  0.39827  0.09494  0.43959  1.0000
  H   H16       1.0  0.60173  0.90506  0.56041  1.0000
  H   H17       1.0  0.55693  0.75227  0.30825  1.0000
  H   H18       1.0  0.44308  0.24773  0.69175  1.0000
  H   H19       1.0  0.80979  0.48917  0.17909  1.0000
  H   H20       1.0  0.19021  0.51083  0.82091  1.0000
  H   H21       1.0  0.66495  0.67780  0.14600  1.0000
  H   H22       1.0  0.33506  0.32220  0.85400  1.0000
  H   H23       1.0  0.41130  0.60001  0.22742  1.0000
  H   H24       1.0  0.58870  0.39999  0.77259  1.0000
  H   H25       1.0  0.55113  0.45022  0.14914  1.0000
  H   H26       1.0  0.44887  0.54979  0.85086  1.0000
  H   H27       1.0  0.43838  0.33953  0.30385  1.0000
  H   H28       1.0  0.56161  0.66047  0.69615  1.0000
  H   H29       1.0  0.41666  0.55190  0.39966  1.0000
  H   H30       1.0  0.58335  0.44810  0.60034  1.0000
  H   H31       1.0  0.55083  0.36498  0.44216  1.0000
  H   H32       1.0  0.44917  0.63502  0.55784  1.0000
  H   H33       1.0  0.68268  0.58047  0.43691  1.0000
  H   H34       1.0  0.31732  0.41953  0.56309  1.0000
  H   H35       1.0  0.81647  0.42680  0.36197  1.0000
  H   H36       1.0  0.18353  0.57320  0.63803  1.0000
  H   H37       1.0  0.77299  0.89540  0.10247  1.0000
  H   H38       1.0  0.22701  0.10460  0.89753  1.0000
  H   H39       1.0  0.27017  0.89692  0.54525  1.0000
  H   H40       1.0  0.72983  0.10308  0.45475  1.0000
  C   C1        1.0  0.47077  0.17607  0.09882  1.0000
  C   C2        1.0  0.52923  0.82392  0.90118  1.0000
  C   C3        1.0  0.44107  0.08794  0.18248  1.0000
  C   C4        1.0  0.55893  0.91206  0.81753  1.0000
  C   C5        1.0  0.29253  0.14966  0.25014  1.0000
  C   C6        1.0  0.70747  0.85034  0.74986  1.0000
  C   C7        1.0  0.17248  0.30393  0.23470  1.0000
  C   C8        1.0  0.82752  0.69607  0.76530  1.0000
  C   C9        1.0  0.20086  0.39352  0.15197  1.0000
  C   C10       1.0  0.79914  0.60648  0.84803  1.0000
  C   C11       1.0  0.34763  0.33007  0.08431  1.0000
  C   C12       1.0  0.65237  0.66993  0.91569  1.0000
  C   C13       1.0  0.87482  0.93430  0.96117  1.0000
  C   C14       1.0  0.12518  0.06570  0.03883  1.0000
  C   C15       1.0  0.67191  0.16343  0.93805  1.0000
  C   C16       1.0  0.32809  0.83657  0.06195  1.0000
  C   C17       1.0  0.62418  0.10907  0.02824  1.0000
  C   C18       1.0  0.37581  0.89093  0.97176  1.0000
  C   C19       1.0  0.16671  0.87636  0.42882  1.0000
  C   C20       1.0  0.83329  0.12364  0.57118  1.0000
  C   C21       1.0  0.32027  0.03642  0.41824  1.0000
  C   C22       1.0  0.67973  0.96358  0.58176  1.0000
  C   C23       1.0  0.26334  0.05027  0.33593  1.0000
  C   C24       1.0  0.73666  0.94973  0.66407  1.0000
  C   C25       1.0  0.68162  0.65063  0.29168  1.0000
  C   C26       1.0  0.31838  0.34937  0.70832  1.0000
  C   C27       1.0  0.68207  0.58176  0.20140  1.0000
  C   C28       1.0  0.31793  0.41824  0.79860  1.0000
  C   C29       1.0  0.54133  0.50577  0.21327  1.0000
  C   C30       1.0  0.45867  0.49423  0.78674  1.0000
  C   C31       1.0  0.55133  0.37959  0.29430  1.0000
  C   C32       1.0  0.44867  0.62041  0.70570  1.0000
  C   C33       1.0  0.54411  0.45497  0.38376  1.0000
  C   C34       1.0  0.45589  0.54503  0.61624  1.0000
  C   C35       1.0  0.68931  0.52531  0.37325  1.0000
  C   C36       1.0  0.31069  0.47469  0.62675  1.0000
  C   C37       1.0  0.82060  0.72819  0.27959  1.0000
  C   C38       1.0  0.17941  0.27181  0.72042  1.0000
  C   C39       1.0  0.71000  0.22590  0.27617  1.0000
  C   C40       1.0  0.29000  0.77410  0.72383  1.0000
  N   N1        1.0  0.75564  0.96329  0.04040  1.0000
  N   N2        1.0  0.24436  0.03670  0.95960  1.0000
  N   N3        1.0  0.82726  0.05388  0.89740  1.0000
  N   N4        1.0  0.17273  0.94612  0.10260  1.0000
  N   N5        1.0  0.16744  0.94831  0.34394  1.0000
  N   N6        1.0  0.83256  0.05169  0.65605  1.0000
  N   N7        1.0  0.25849  0.92674  0.47533  1.0000
  N   N8        1.0  0.74151  0.07326  0.52468  1.0000
  O   O1        1.0  0.90151  0.72097  0.34304  1.0000
  O   O2        1.0  0.09849  0.27902  0.65696  1.0000
  O   O3        1.0  0.84722  0.80748  0.20115  1.0000
  O   O4        1.0  0.15278  0.19252  0.79885  1.0000
  O   O5        1.0  0.80751  0.20383  0.19693  1.0000
  O   O6        1.0  0.19249  0.79617  0.80307  1.0000
  O   O7        1.0  0.74017  0.11837  0.34314  1.0000
  O   O8        1.0  0.25983  0.88163  0.65686  1.0000
