data_image0
_chemical_formula_structural       Cd2H8C8N12O4
_chemical_formula_sum              "Cd2 H8 C8 N12 O4"
_cell_length_a       6.72536
_cell_length_b       8.23562
_cell_length_c       6.69736
_cell_angle_alpha    90.0012
_cell_angle_beta     89.9963
_cell_angle_gamma    93.1348

_space_group_name_H-M_alt    "P 1"
_space_group_IT_number       1

loop_
  _space_group_symop_operation_xyz
  'x, y, z'

loop_
  _atom_site_type_symbol
  _atom_site_label
  _atom_site_symmetry_multiplicity
  _atom_site_fract_x
  _atom_site_fract_y
  _atom_site_fract_z
  _atom_site_occupancy
  Cd  Cd1       1.0  0.00000  0.50001  0.50001  1.0000
  Cd  Cd2       1.0  0.49999  0.00000  0.00001  1.0000
  H   H1        1.0  0.60859  0.46645  0.33872  1.0000
  H   H2        1.0  0.89140  0.03356  0.83871  1.0000
  H   H3        1.0  0.39140  0.53356  0.66127  1.0000
  H   H4        1.0  0.10858  0.96644  0.16129  1.0000
  H   H5        1.0  0.00293  0.67372  0.14251  1.0000
  H   H6        1.0  0.49706  0.82628  0.64252  1.0000
  H   H7        1.0  0.99707  0.32628  0.85747  1.0000
  H   H8        1.0  0.50294  0.17372  0.35748  1.0000
  C   C1        1.0  0.37692  0.64843  0.18484  1.0000
  C   C2        1.0  0.12311  0.85156  0.68485  1.0000
  C   C3        1.0  0.62308  0.35157  0.81514  1.0000
  C   C4        1.0  0.87687  0.14842  0.31515  1.0000
  C   C5        1.0  0.71986  0.64498  0.17664  1.0000
  C   C6        1.0  0.78018  0.85501  0.67666  1.0000
  C   C7        1.0  0.28013  0.35502  0.82336  1.0000
  C   C8        1.0  0.21987  0.14497  0.32334  1.0000
  N   N1        1.0  0.21414  0.60407  0.23589  1.0000
  N   N2        1.0  0.28591  0.89594  0.73591  1.0000
  N   N3        1.0  0.78586  0.39592  0.76410  1.0000
  N   N4        1.0  0.71408  0.10407  0.26409  1.0000
  N   N5        1.0  0.74145  0.51944  0.29257  1.0000
  N   N6        1.0  0.75860  0.98053  0.79255  1.0000
  N   N7        1.0  0.25854  0.48055  0.70742  1.0000
  N   N8        1.0  0.24145  0.01943  0.20741  1.0000
  N   N9        1.0  0.54461  0.70751  0.11787  1.0000
  N   N10       1.0  0.95545  0.79252  0.61791  1.0000
  N   N11       1.0  0.45538  0.29248  0.88213  1.0000
  N   N12       1.0  0.04455  0.20755  0.38215  1.0000
  O   O1        1.0  0.87847  0.72789  0.10107  1.0000
  O   O2        1.0  0.62155  0.77211  0.60110  1.0000
  O   O3        1.0  0.12151  0.27211  0.89893  1.0000
  O   O4        1.0  0.37849  0.22791  0.39893  1.0000
