data_image0
_chemical_formula_structural       CdH54C58S2N12O6
_chemical_formula_sum              "Cd1 H54 C58 S2 N12 O6"
_cell_length_a       9.66803
_cell_length_b       9.85206
_cell_length_c       14.8191
_cell_angle_alpha    87.6032
_cell_angle_beta     70.1961
_cell_angle_gamma    75.1148

_space_group_name_H-M_alt    "P 1"
_space_group_IT_number       1

loop_
  _space_group_symop_operation_xyz
  'x, y, z'

loop_
  _atom_site_type_symbol
  _atom_site_label
  _atom_site_symmetry_multiplicity
  _atom_site_fract_x
  _atom_site_fract_y
  _atom_site_fract_z
  _atom_site_occupancy
  Cd  Cd1       1.0  0.50000  0.50000  0.50000  1.0000
  H   H1        1.0  0.81727  0.34909  0.56720  1.0000
  H   H2        1.0  0.18272  0.65092  0.43280  1.0000
  H   H3        1.0  0.59416  0.15133  0.43293  1.0000
  H   H4        1.0  0.40584  0.84866  0.56707  1.0000
  H   H5        1.0  0.47715  0.56028  0.28318  1.0000
  H   H6        1.0  0.52285  0.43973  0.71682  1.0000
  H   H7        1.0  0.02225  0.46359  0.38990  1.0000
  H   H8        1.0  0.97776  0.53643  0.61010  1.0000
  H   H9        1.0  0.73668  0.95333  0.53217  1.0000
  H   H10       1.0  0.26332  0.04667  0.46783  1.0000
  H   H11       1.0  0.46731  0.29248  0.18094  1.0000
  H   H12       1.0  0.53269  0.70750  0.81906  1.0000
  H   H13       1.0  0.74487  0.73142  0.39602  1.0000
  H   H14       1.0  0.25513  0.26858  0.60399  1.0000
  H   H15       1.0  0.67685  0.90366  0.25423  1.0000
  H   H16       1.0  0.32317  0.09634  0.74577  1.0000
  H   H17       1.0  0.90190  0.85694  0.58926  1.0000
  H   H18       1.0  0.09810  0.14306  0.41074  1.0000
  H   H19       1.0  0.04663  0.74984  0.69172  1.0000
  H   H20       1.0  0.95337  0.25017  0.30829  1.0000
  H   H21       1.0  0.49732  0.60398  0.12143  1.0000
  H   H22       1.0  0.50268  0.39602  0.87857  1.0000
  H   H23       1.0  0.88992  0.26935  0.68598  1.0000
  H   H24       1.0  0.11008  0.73065  0.31402  1.0000
  H   H25       1.0  0.44595  0.02014  0.23056  1.0000
  H   H26       1.0  0.55406  0.97986  0.76944  1.0000
  H   H27       1.0  0.37453  0.40474  0.05174  1.0000
  H   H28       1.0  0.62546  0.59523  0.94825  1.0000
  H   H29       1.0  0.92985  0.57129  0.25945  1.0000
  H   H30       1.0  0.07016  0.42872  0.74055  1.0000
  H   H31       1.0  0.03491  0.15951  0.78949  1.0000
  H   H32       1.0  0.96509  0.84050  0.21051  1.0000
  H   H33       1.0  0.35892  0.70906  0.01069  1.0000
  H   H34       1.0  0.64108  0.29093  0.98931  1.0000
  H   H35       1.0  0.31182  0.12229  0.11995  1.0000
  H   H36       1.0  0.68818  0.87771  0.88005  1.0000
  H   H37       1.0  0.27279  0.69059  0.84803  1.0000
  H   H38       1.0  0.72722  0.30942  0.15197  1.0000
  H   H39       1.0  0.28692  0.69244  0.72428  1.0000
  H   H40       1.0  0.71308  0.30757  0.27572  1.0000
  H   H41       1.0  0.12080  0.66687  0.81280  1.0000
  H   H42       1.0  0.87920  0.33314  0.18719  1.0000
  H   H43       1.0  0.96764  0.60346  0.09281  1.0000
  H   H44       1.0  0.03237  0.39653  0.90718  1.0000
  H   H45       1.0  0.13101  0.49664  0.00466  1.0000
  H   H46       1.0  0.86900  0.50336  0.99534  1.0000
  H   H47       1.0  0.13598  0.66127  0.04493  1.0000
  H   H48       1.0  0.86402  0.33873  0.95507  1.0000
  H   H49       1.0  0.11511  0.17039  0.94843  1.0000
  H   H50       1.0  0.88490  0.82961  0.05158  1.0000
  H   H51       1.0  0.27084  0.19647  0.97901  1.0000
  H   H52       1.0  0.72917  0.80353  0.02099  1.0000
  H   H53       1.0  0.10508  0.17687  0.07104  1.0000
  H   H54       1.0  0.89493  0.82314  0.92896  1.0000
  C   C1        1.0  0.77598  0.26977  0.54344  1.0000
  C   C2        1.0  0.22401  0.73023  0.45656  1.0000
  C   C3        1.0  0.66326  0.16286  0.47518  1.0000
  C   C4        1.0  0.33674  0.83712  0.52482  1.0000
  C   C5        1.0  0.25077  0.37415  0.29332  1.0000
  C   C6        1.0  0.74923  0.62585  0.70668  1.0000
  C   C7        1.0  0.54575  0.62615  0.29292  1.0000
  C   C8        1.0  0.45425  0.37385  0.70709  1.0000
  C   C9        1.0  0.09943  0.45138  0.31564  1.0000
  C   C10       1.0  0.90058  0.54863  0.68436  1.0000
  C   C11       1.0  0.73350  0.06353  0.52380  1.0000
  C   C12       1.0  0.26650  0.93646  0.47621  1.0000
  C   C13       1.0  0.35037  0.35650  0.19812  1.0000
  C   C14       1.0  0.64963  0.64349  0.80187  1.0000
  C   C15       1.0  0.68130  0.72040  0.34997  1.0000
  C   C16       1.0  0.31870  0.27960  0.65004  1.0000
  C   C17       1.0  0.88775  0.07064  0.62872  1.0000
  C   C18       1.0  0.11224  0.92936  0.37129  1.0000
  C   C19       1.0  0.64717  0.80738  0.28145  1.0000
  C   C20       1.0  0.35284  0.19262  0.71855  1.0000
  C   C21       1.0  0.48376  0.80574  0.18099  1.0000
  C   C22       1.0  0.51625  0.19425  0.81901  1.0000
  C   C23       1.0  0.93044  0.92446  0.63276  1.0000
  C   C24       1.0  0.06955  0.07555  0.36724  1.0000
  C   C25       1.0  0.14360  0.87964  0.80902  1.0000
  C   C26       1.0  0.85640  0.12037  0.19098  1.0000
  C   C27       1.0  0.05440  0.94617  0.74815  1.0000
  C   C28       1.0  0.94560  0.05384  0.25185  1.0000
  C   C29       1.0  0.01299  0.86395  0.69143  1.0000
  C   C30       1.0  0.98700  0.13606  0.30858  1.0000
  C   C31       1.0  0.45711  0.71779  0.12022  1.0000
  C   C32       1.0  0.54289  0.28221  0.87978  1.0000
  C   C33       1.0  0.32667  0.92287  0.05584  1.0000
  C   C34       1.0  0.67333  0.07713  0.94416  1.0000
  C   C35       1.0  0.92528  0.15519  0.68601  1.0000
  C   C36       1.0  0.07471  0.84482  0.31399  1.0000
  C   C37       1.0  0.14648  0.49845  0.14655  1.0000
  C   C38       1.0  0.85352  0.50154  0.85345  1.0000
  C   C39       1.0  0.43080  0.95161  0.18064  1.0000
  C   C40       1.0  0.56920  0.04839  0.81936  1.0000
  C   C41       1.0  0.29757  0.41917  0.12594  1.0000
  C   C42       1.0  0.70242  0.58082  0.87405  1.0000
  C   C43       1.0  0.04829  0.51189  0.24198  1.0000
  C   C44       1.0  0.95171  0.48812  0.75802  1.0000
  C   C45       1.0  0.00678  0.09354  0.74479  1.0000
  C   C46       1.0  0.99321  0.90647  0.25521  1.0000
  C   C47       1.0  0.37942  0.77619  0.05868  1.0000
  C   C48       1.0  0.62057  0.22381  0.94133  1.0000
  C   C49       1.0  0.35327  0.00848  0.11845  1.0000
  C   C50       1.0  0.64673  0.99152  0.88155  1.0000
  C   C51       1.0  0.21010  0.72327  0.79837  1.0000
  C   C52       1.0  0.78991  0.27674  0.20163  1.0000
  C   C53       1.0  0.09226  0.56815  0.06829  1.0000
  C   C54       1.0  0.90774  0.43185  0.93171  1.0000
  C   C55       1.0  0.24563  0.98567  0.98989  1.0000
  C   C56       1.0  0.75437  0.01433  0.01011  1.0000
  C   C57       1.0  0.17966  0.14183  0.99724  1.0000
  C   C58       1.0  0.82034  0.85817  0.00276  1.0000
  S   S1        1.0  0.32171  0.30269  0.38623  1.0000
  S   S2        1.0  0.67830  0.69731  0.61377  1.0000
  N   N1        1.0  0.69003  0.29123  0.48808  1.0000
  N   N2        1.0  0.30995  0.70876  0.51192  1.0000
  N   N3        1.0  0.80441  0.13227  0.56805  1.0000
  N   N4        1.0  0.19559  0.86773  0.43196  1.0000
  N   N5        1.0  0.61678  0.60807  0.35672  1.0000
  N   N6        1.0  0.38322  0.39193  0.64329  1.0000
  N   N7        1.0  0.56019  0.74666  0.24564  1.0000
  N   N8        1.0  0.43982  0.25333  0.75436  1.0000
  N   N9        1.0  0.15853  0.96379  0.86910  1.0000
  N   N10       1.0  0.84147  0.03622  0.13090  1.0000
  N   N11       1.0  0.23703  0.89987  0.92812  1.0000
  N   N12       1.0  0.76297  0.10013  0.07188  1.0000
  O   O1        1.0  0.39749  0.40887  0.40162  1.0000
  O   O2        1.0  0.60252  0.59113  0.59837  1.0000
  O   O3        1.0  0.43056  0.16750  0.34803  1.0000
  O   O4        1.0  0.56944  0.83250  0.65196  1.0000
  O   O5        1.0  0.18955  0.29452  0.47013  1.0000
  O   O6        1.0  0.81046  0.70548  0.52987  1.0000
