data_image0
_chemical_formula_structural       Co2H50C52N10O16
_chemical_formula_sum              "Co2 H50 C52 N10 O16"
_cell_length_a       9.27786
_cell_length_b       10.2031
_cell_length_c       14.3358
_cell_angle_alpha    86.2039
_cell_angle_beta     90.1672
_cell_angle_gamma    74.4245

_space_group_name_H-M_alt    "P 1"
_space_group_IT_number       1

loop_
  _space_group_symop_operation_xyz
  'x, y, z'

loop_
  _atom_site_type_symbol
  _atom_site_label
  _atom_site_symmetry_multiplicity
  _atom_site_fract_x
  _atom_site_fract_y
  _atom_site_fract_z
  _atom_site_occupancy
  Co  Co1       1.0  0.14549  0.12047  0.96514  1.0000
  Co  Co2       1.0  0.85451  0.87953  0.03487  1.0000
  H   H1        1.0  0.42530  0.96194  0.06489  1.0000
  H   H2        1.0  0.57470  0.03805  0.93512  1.0000
  H   H3        1.0  0.54000  0.92117  0.22360  1.0000
  H   H4        1.0  0.46001  0.07883  0.77641  1.0000
  H   H5        1.0  0.08048  0.39361  0.25684  1.0000
  H   H6        1.0  0.91952  0.60639  0.74316  1.0000
  H   H7        1.0  0.39320  0.04287  0.35672  1.0000
  H   H8        1.0  0.60681  0.95714  0.64327  1.0000
  H   H9        1.0  0.19645  0.01414  0.49485  1.0000
  H   H10       1.0  0.80355  0.98586  0.50515  1.0000
  H   H11       1.0  0.03631  0.22378  0.15589  1.0000
  H   H12       1.0  0.96369  0.77622  0.84411  1.0000
  H   H13       1.0  0.96864  0.38014  0.45017  1.0000
  H   H14       1.0  0.03136  0.61987  0.54983  1.0000
  H   H15       1.0  0.02652  0.51984  0.39881  1.0000
  H   H16       1.0  0.97347  0.48017  0.60118  1.0000
  H   H17       1.0  0.74627  0.43654  0.34155  1.0000
  H   H18       1.0  0.25372  0.56345  0.65844  1.0000
  H   H19       1.0  0.80343  0.57546  0.28772  1.0000
  H   H20       1.0  0.19656  0.42455  0.71228  1.0000
  H   H21       1.0  0.74329  0.54676  0.49784  1.0000
  H   H22       1.0  0.25670  0.45325  0.50215  1.0000
  H   H23       1.0  0.78480  0.68753  0.43766  1.0000
  H   H24       1.0  0.21520  0.31247  0.56234  1.0000
  H   H25       1.0  0.50407  0.58803  0.41221  1.0000
  H   H26       1.0  0.49592  0.41197  0.58778  1.0000
  H   H27       1.0  0.54231  0.72000  0.34013  1.0000
  H   H28       1.0  0.45768  0.28000  0.65987  1.0000
  H   H29       1.0  0.52767  0.72973  0.55408  1.0000
  H   H30       1.0  0.47233  0.27028  0.44592  1.0000
  H   H31       1.0  0.53171  0.86470  0.47101  1.0000
  H   H32       1.0  0.46829  0.13531  0.52899  1.0000
  H   H33       1.0  0.28456  0.84129  0.40255  1.0000
  H   H34       1.0  0.71544  0.15872  0.59745  1.0000
  H   H35       1.0  0.28298  0.72009  0.49714  1.0000
  H   H36       1.0  0.71702  0.27991  0.50286  1.0000
  H   H37       1.0  0.26036  0.94564  0.80257  1.0000
  H   H38       1.0  0.73963  0.05435  0.19743  1.0000
  H   H39       1.0  0.99961  0.13380  0.55671  1.0000
  H   H40       1.0  0.00038  0.86620  0.44329  1.0000
  H   H41       1.0  0.85433  0.31367  0.65758  1.0000
  H   H42       1.0  0.14568  0.68634  0.34242  1.0000
  H   H43       1.0  0.92310  0.30110  0.82661  1.0000
  H   H44       1.0  0.07690  0.69889  0.17339  1.0000
  H   H45       1.0  0.11598  0.58376  0.97987  1.0000
  H   H46       1.0  0.88403  0.41624  0.02013  1.0000
  H   H47       1.0  0.46652  0.76250  0.88384  1.0000
  H   H48       1.0  0.53349  0.23750  0.11617  1.0000
  H   H49       1.0  0.50413  0.33735  0.84956  1.0000
  H   H50       1.0  0.49586  0.66264  0.15045  1.0000
  C   C1        1.0  0.36436  0.01188  0.12317  1.0000
  C   C2        1.0  0.63565  0.98811  0.87683  1.0000
  C   C3        1.0  0.42778  0.98914  0.21293  1.0000
  C   C4        1.0  0.57223  0.01087  0.78707  1.0000
  C   C5        1.0  0.34669  0.05523  0.28575  1.0000
  C   C6        1.0  0.65331  0.94477  0.71425  1.0000
  C   C7        1.0  0.20430  0.14293  0.26583  1.0000
  C   C8        1.0  0.79570  0.85708  0.73416  1.0000
  C   C9        1.0  0.14774  0.15818  0.17417  1.0000
  C   C10       1.0  0.85226  0.84182  0.82583  1.0000
  C   C11       1.0  0.11729  0.22006  0.34140  1.0000
  C   C12       1.0  0.88271  0.77994  0.65860  1.0000
  C   C13       1.0  0.96652  0.44335  0.38491  1.0000
  C   C14       1.0  0.03347  0.55666  0.61508  1.0000
  C   C15       1.0  0.80535  0.51421  0.35428  1.0000
  C   C16       1.0  0.19464  0.48579  0.64571  1.0000
  C   C17       1.0  0.72852  0.60632  0.42962  1.0000
  C   C18       1.0  0.27147  0.39368  0.57038  1.0000
  C   C19       1.0  0.56161  0.66972  0.41131  1.0000
  C   C20       1.0  0.43839  0.33028  0.58869  1.0000
  C   C21       1.0  0.49203  0.77232  0.48254  1.0000
  C   C22       1.0  0.50797  0.22768  0.51745  1.0000
  C   C23       1.0  0.32130  0.81063  0.47554  1.0000
  C   C24       1.0  0.67869  0.18937  0.52446  1.0000
  C   C25       1.0  0.23320  0.90397  0.62437  1.0000
  C   C26       1.0  0.76680  0.09603  0.37563  1.0000
  C   C27       1.0  0.17170  0.02653  0.76816  1.0000
  C   C28       1.0  0.82830  0.97347  0.23184  1.0000
  C   C29       1.0  0.14245  0.02445  0.67280  1.0000
  C   C30       1.0  0.85754  0.97555  0.32720  1.0000
  C   C31       1.0  0.02723  0.13004  0.63086  1.0000
  C   C32       1.0  0.97277  0.86996  0.36914  1.0000
  C   C33       1.0  0.94680  0.23080  0.68631  1.0000
  C   C34       1.0  0.05320  0.76920  0.31369  1.0000
  C   C35       1.0  0.98318  0.22455  0.78096  1.0000
  C   C36       1.0  0.01682  0.77545  0.21904  1.0000
  C   C37       1.0  0.30510  0.44768  0.91758  1.0000
  C   C38       1.0  0.69491  0.55231  0.08243  1.0000
  C   C39       1.0  0.22377  0.57447  0.94677  1.0000
  C   C40       1.0  0.77624  0.42552  0.05323  1.0000
  C   C41       1.0  0.28136  0.68815  0.93501  1.0000
  C   C42       1.0  0.71864  0.31184  0.06499  1.0000
  C   C43       1.0  0.41990  0.67556  0.89277  1.0000
  C   C44       1.0  0.58011  0.32444  0.10723  1.0000
  C   C45       1.0  0.49483  0.54993  0.86084  1.0000
  C   C46       1.0  0.50517  0.45007  0.13916  1.0000
  C   C47       1.0  0.44094  0.43519  0.87289  1.0000
  C   C48       1.0  0.55907  0.56481  0.12711  1.0000
  C   C49       1.0  0.24768  0.32487  0.93372  1.0000
  C   C50       1.0  0.75232  0.67512  0.06629  1.0000
  C   C51       1.0  0.19483  0.82450  0.96540  1.0000
  C   C52       1.0  0.80517  0.17549  0.03461  1.0000
  N   N1        1.0  0.22576  0.09410  0.10404  1.0000
  N   N2        1.0  0.77426  0.90590  0.89596  1.0000
  N   N3        1.0  0.09475  0.12377  0.82173  1.0000
  N   N4        1.0  0.90525  0.87623  0.17827  1.0000
  N   N5        1.0  0.05056  0.35280  0.31821  1.0000
  N   N6        1.0  0.94944  0.64720  0.68179  1.0000
  N   N7        1.0  0.24569  0.92225  0.53082  1.0000
  N   N8        1.0  0.75431  0.07775  0.46917  1.0000
  N   N9        1.0  0.63611  0.53612  0.81296  1.0000
  N   N10       1.0  0.36389  0.46387  0.18703  1.0000
  O   O1        1.0  0.33679  0.20571  0.93046  1.0000
  O   O2        1.0  0.66322  0.79429  0.06955  1.0000
  O   O3        1.0  0.10955  0.34070  0.95028  1.0000
  O   O4        1.0  0.89046  0.65928  0.04973  1.0000
  O   O5        1.0  0.67231  0.44659  0.75610  1.0000
  O   O6        1.0  0.32768  0.55339  0.24389  1.0000
  O   O7        1.0  0.71363  0.61358  0.83198  1.0000
  O   O8        1.0  0.28637  0.38641  0.16800  1.0000
  O   O9        1.0  0.06464  0.83729  0.99664  1.0000
  O   O10       1.0  0.93536  0.16271  0.00336  1.0000
  O   O11       1.0  0.25841  0.92089  0.95676  1.0000
  O   O12       1.0  0.74160  0.07910  0.04324  1.0000
  O   O13       1.0  0.10938  0.16390  0.42082  1.0000
  O   O14       1.0  0.89062  0.83610  0.57918  1.0000
  O   O15       1.0  0.29216  0.79420  0.67013  1.0000
  O   O16       1.0  0.70783  0.20580  0.32987  1.0000
