data_image0
_chemical_formula_structural       Co2H36C34N6O12
_chemical_formula_sum              "Co2 H36 C34 N6 O12"
_cell_length_a       8.31973
_cell_length_b       10.2398
_cell_length_c       10.7899
_cell_angle_alpha    80.512
_cell_angle_beta     78.4524
_cell_angle_gamma    73.0265

_space_group_name_H-M_alt    "P 1"
_space_group_IT_number       1

loop_
  _space_group_symop_operation_xyz
  'x, y, z'

loop_
  _atom_site_type_symbol
  _atom_site_label
  _atom_site_symmetry_multiplicity
  _atom_site_fract_x
  _atom_site_fract_y
  _atom_site_fract_z
  _atom_site_occupancy
  Co  Co1       1.0  0.21356  0.33575  0.85722  1.0000
  Co  Co2       1.0  0.78646  0.66424  0.14278  1.0000
  H   H1        1.0  0.35625  0.49687  0.61029  1.0000
  H   H2        1.0  0.64375  0.50312  0.38970  1.0000
  H   H3        1.0  0.90848  0.35237  0.98021  1.0000
  H   H4        1.0  0.09152  0.64763  0.01979  1.0000
  H   H5        1.0  0.98561  0.22236  0.89290  1.0000
  H   H6        1.0  0.01437  0.77765  0.10710  1.0000
  H   H7        1.0  0.34903  0.52192  0.37515  1.0000
  H   H8        1.0  0.65098  0.47808  0.62484  1.0000
  H   H9        1.0  0.84126  0.21208  0.61303  1.0000
  H   H10       1.0  0.15875  0.78791  0.38696  1.0000
  H   H11       1.0  0.87573  0.62055  0.89710  1.0000
  H   H12       1.0  0.12427  0.37946  0.10291  1.0000
  H   H13       1.0  0.84556  0.78568  0.89803  1.0000
  H   H14       1.0  0.15444  0.21432  0.10199  1.0000
  H   H15       1.0  0.17017  0.39935  0.30050  1.0000
  H   H16       1.0  0.82983  0.60065  0.69949  1.0000
  H   H17       1.0  0.04894  0.23216  0.68952  1.0000
  H   H18       1.0  0.95105  0.76785  0.31047  1.0000
  H   H19       1.0  0.68758  0.21264  0.40566  1.0000
  H   H20       1.0  0.31242  0.78736  0.59434  1.0000
  H   H21       1.0  0.82771  0.04727  0.42211  1.0000
  H   H22       1.0  0.17229  0.95273  0.57789  1.0000
  H   H23       1.0  0.56636  0.17609  0.64456  1.0000
  H   H24       1.0  0.43364  0.82392  0.35544  1.0000
  H   H25       1.0  0.68328  0.00191  0.64423  1.0000
  H   H26       1.0  0.31672  0.99810  0.35577  1.0000
  H   H27       1.0  0.37379  0.05792  0.61494  1.0000
  H   H28       1.0  0.62621  0.94209  0.38507  1.0000
  H   H29       1.0  0.42221  0.15403  0.46802  1.0000
  H   H30       1.0  0.57778  0.84598  0.53198  1.0000
  H   H31       1.0  0.57401  0.95477  0.89859  1.0000
  H   H32       1.0  0.42598  0.04524  0.10141  1.0000
  H   H33       1.0  0.64493  0.52180  0.88539  1.0000
  H   H34       1.0  0.35507  0.47820  0.11461  1.0000
  H   H35       1.0  0.16145  0.81220  0.83896  1.0000
  H   H36       1.0  0.83856  0.18780  0.16104  1.0000
  C   C1        1.0  0.28339  0.44468  0.57217  1.0000
  C   C2        1.0  0.71661  0.55532  0.42783  1.0000
  C   C3        1.0  0.27813  0.45872  0.44244  1.0000
  C   C4        1.0  0.72187  0.54129  0.55756  1.0000
  C   C5        1.0  0.18049  0.39062  0.40043  1.0000
  C   C6        1.0  0.81952  0.60938  0.59957  1.0000
  C   C7        1.0  0.09336  0.30852  0.48854  1.0000
  C   C8        1.0  0.90664  0.69148  0.51145  1.0000
  C   C9        1.0  0.10783  0.29887  0.61668  1.0000
  C   C10       1.0  0.89217  0.70113  0.38331  1.0000
  C   C11       1.0  0.99316  0.23380  0.43883  1.0000
  C   C12       1.0  0.00684  0.76620  0.56116  1.0000
  C   C13       1.0  0.75241  0.13379  0.47550  1.0000
  C   C14       1.0  0.24759  0.86621  0.52450  1.0000
  C   C15       1.0  0.62126  0.09247  0.58334  1.0000
  C   C16       1.0  0.37874  0.90753  0.41666  1.0000
  C   C17       1.0  0.47552  0.06457  0.53381  1.0000
  C   C18       1.0  0.52448  0.93543  0.46620  1.0000
  C   C19       1.0  0.24604  0.04251  0.85996  1.0000
  C   C20       1.0  0.75396  0.95747  0.14004  1.0000
  C   C21       1.0  0.35711  0.89752  0.86801  1.0000
  C   C22       1.0  0.64288  0.10248  0.13199  1.0000
  C   C23       1.0  0.52521  0.86990  0.88864  1.0000
  C   C24       1.0  0.47479  0.13010  0.11137  1.0000
  C   C25       1.0  0.62859  0.73477  0.89818  1.0000
  C   C26       1.0  0.37140  0.26523  0.10184  1.0000
  C   C27       1.0  0.56565  0.62763  0.88098  1.0000
  C   C28       1.0  0.43435  0.37237  0.11903  1.0000
  C   C29       1.0  0.39719  0.65532  0.86144  1.0000
  C   C30       1.0  0.60281  0.34468  0.13855  1.0000
  C   C31       1.0  0.32802  0.53968  0.85314  1.0000
  C   C32       1.0  0.67198  0.46033  0.14687  1.0000
  C   C33       1.0  0.29179  0.78986  0.85619  1.0000
  C   C34       1.0  0.70821  0.21014  0.14381  1.0000
  N   N1        1.0  0.19992  0.36608  0.65858  1.0000
  N   N2        1.0  0.80008  0.63391  0.34141  1.0000
  N   N3        1.0  0.86943  0.18954  0.52169  1.0000
  N   N4        1.0  0.13058  0.81045  0.47830  1.0000
  N   N5        1.0  0.79221  0.70611  0.93240  1.0000
  N   N6        1.0  0.20779  0.29389  0.06761  1.0000
  O   O1        1.0  0.32388  0.13632  0.85085  1.0000
  O   O2        1.0  0.67613  0.86366  0.14916  1.0000
  O   O3        1.0  0.96172  0.32555  0.89366  1.0000
  O   O4        1.0  0.03828  0.67446  0.10634  1.0000
  O   O5        1.0  0.08770  0.06438  0.86185  1.0000
  O   O6        1.0  0.91229  0.93562  0.13815  1.0000
  O   O7        1.0  0.16793  0.55098  0.89140  1.0000
  O   O8        1.0  0.83206  0.44902  0.10860  1.0000
  O   O9        1.0  0.42373  0.42792  0.81275  1.0000
  O   O10       1.0  0.57626  0.57208  0.18725  1.0000
  O   O11       1.0  0.02216  0.21633  0.32418  1.0000
  O   O12       1.0  0.97784  0.78366  0.67581  1.0000
