data_image0
_chemical_formula_structural       Mn2H16C20N4Cl4
_chemical_formula_sum              "Mn2 H16 C20 N4 Cl4"
_cell_length_a       3.54762
_cell_length_b       11.4212
_cell_length_c       11.7618
_cell_angle_alpha    89.9355
_cell_angle_beta     89.9697
_cell_angle_gamma    89.9494

_space_group_name_H-M_alt    "P 1"
_space_group_IT_number       1

loop_
  _space_group_symop_operation_xyz
  'x, y, z'

loop_
  _atom_site_type_symbol
  _atom_site_label
  _atom_site_symmetry_multiplicity
  _atom_site_fract_x
  _atom_site_fract_y
  _atom_site_fract_z
  _atom_site_occupancy
  Mn  Mn1       1.0  0.49902  0.24907  0.25007  1.0000
  Mn  Mn2       1.0  0.49984  0.75000  0.74996  1.0000
  H   H1        1.0  0.68276  0.05231  0.08245  1.0000
  H   H2        1.0  0.68007  0.94944  0.58294  1.0000
  H   H3        1.0  0.68015  0.55052  0.91695  1.0000
  H   H4        1.0  0.31981  0.55081  0.58290  1.0000
  H   H5        1.0  0.31961  0.94924  0.91712  1.0000
  H   H6        1.0  0.31646  0.05229  0.41704  1.0000
  H   H7        1.0  0.31643  0.44780  0.08319  1.0000
  H   H8        1.0  0.68378  0.44774  0.41738  1.0000
  H   H9        1.0  0.68972  0.83729  0.07512  1.0000
  H   H10       1.0  0.68708  0.16741  0.57460  1.0000
  H   H11       1.0  0.68696  0.33251  0.92540  1.0000
  H   H12       1.0  0.31320  0.33287  0.57466  1.0000
  H   H13       1.0  0.31309  0.16715  0.92545  1.0000
  H   H14       1.0  0.31037  0.83732  0.42479  1.0000
  H   H15       1.0  0.31019  0.66298  0.07528  1.0000
  H   H16       1.0  0.68977  0.66294  0.42477  1.0000
  C   C1        1.0  0.59856  0.00200  0.15673  1.0000
  C   C2        1.0  0.59688  0.00187  0.65611  1.0000
  C   C3        1.0  0.59701  0.49808  0.84383  1.0000
  C   C4        1.0  0.40315  0.49827  0.65608  1.0000
  C   C5        1.0  0.40291  0.00174  0.84392  1.0000
  C   C6        1.0  0.40129  0.00202  0.34285  1.0000
  C   C7        1.0  0.40136  0.49814  0.15728  1.0000
  C   C8        1.0  0.59935  0.49814  0.34315  1.0000
  C   C9        1.0  0.60104  0.88034  0.15343  1.0000
  C   C10       1.0  0.59940  0.12298  0.65228  1.0000
  C   C11       1.0  0.59939  0.37697  0.84773  1.0000
  C   C12       1.0  0.40093  0.37717  0.65229  1.0000
  C   C13       1.0  0.40082  0.12284  0.84776  1.0000
  C   C14       1.0  0.39909  0.88034  0.34639  1.0000
  C   C15       1.0  0.39907  0.61987  0.15361  1.0000
  C   C16       1.0  0.60153  0.61984  0.34649  1.0000
  C   C17       1.0  0.49996  0.81507  0.24995  1.0000
  C   C18       1.0  0.50019  0.18597  0.75002  1.0000
  C   C19       1.0  0.50022  0.31401  0.75002  1.0000
  C   C20       1.0  0.50012  0.68510  0.24999  1.0000
  N   N1        1.0  0.49995  0.06525  0.24969  1.0000
  N   N2        1.0  0.49977  0.94154  0.75001  1.0000
  N   N3        1.0  0.50007  0.55844  0.74992  1.0000
  N   N4        1.0  0.50043  0.43502  0.25033  1.0000
  Cl  Cl1       1.0  0.00006  0.24858  0.11495  1.0000
  Cl  Cl2       1.0  0.00002  0.75009  0.59653  1.0000
  Cl  Cl3       1.0  0.99972  0.74985  0.90337  1.0000
  Cl  Cl4       1.0  0.99943  0.25074  0.38521  1.0000
