data_image0
_chemical_formula_structural       Cu4H16C28N8O28
_chemical_formula_sum              "Cu4 H16 C28 N8 O28"
_cell_length_a       6.68219
_cell_length_b       7.5402
_cell_length_c       17.7718
_cell_angle_alpha    89.9988
_cell_angle_beta     90.0007
_cell_angle_gamma    89.9993

_space_group_name_H-M_alt    "P 1"
_space_group_IT_number       1

loop_
  _space_group_symop_operation_xyz
  'x, y, z'

loop_
  _atom_site_type_symbol
  _atom_site_label
  _atom_site_symmetry_multiplicity
  _atom_site_fract_x
  _atom_site_fract_y
  _atom_site_fract_z
  _atom_site_occupancy
  Cu  Cu1       1.0  0.50065  0.00490  0.50244  1.0000
  Cu  Cu2       1.0  0.00065  0.99509  0.49756  1.0000
  Cu  Cu3       1.0  0.50063  0.50488  0.99756  1.0000
  Cu  Cu4       1.0  0.00064  0.49510  0.00244  1.0000
  H   H1        1.0  0.75212  0.80895  0.55871  1.0000
  H   H2        1.0  0.25213  0.19103  0.44129  1.0000
  H   H3        1.0  0.75212  0.30896  0.94129  1.0000
  H   H4        1.0  0.25212  0.69103  0.05871  1.0000
  H   H5        1.0  0.02589  0.98919  0.26297  1.0000
  H   H6        1.0  0.52588  0.01082  0.73704  1.0000
  H   H7        1.0  0.02588  0.48919  0.23703  1.0000
  H   H8        1.0  0.52588  0.51083  0.76296  1.0000
  H   H9        1.0  0.67941  0.12063  0.06465  1.0000
  H   H10       1.0  0.17939  0.87937  0.93535  1.0000
  H   H11       1.0  0.67944  0.62066  0.43535  1.0000
  H   H12       1.0  0.17944  0.37935  0.56465  1.0000
  H   H13       1.0  0.43587  0.21547  0.28639  1.0000
  H   H14       1.0  0.93586  0.78453  0.71361  1.0000
  H   H15       1.0  0.43586  0.71545  0.21361  1.0000
  H   H16       1.0  0.93588  0.28455  0.78639  1.0000
  C   C1        1.0  0.74759  0.08771  0.36807  1.0000
  C   C2        1.0  0.24757  0.91229  0.63193  1.0000
  C   C3        1.0  0.74757  0.58769  0.13193  1.0000
  C   C4        1.0  0.24757  0.41230  0.86807  1.0000
  C   C5        1.0  0.73311  0.10130  0.28364  1.0000
  C   C6        1.0  0.23309  0.89870  0.71636  1.0000
  C   C7        1.0  0.73310  0.60129  0.21636  1.0000
  C   C8        1.0  0.23310  0.39870  0.78364  1.0000
  C   C9        1.0  0.88948  0.04102  0.23790  1.0000
  C   C10       1.0  0.38946  0.95898  0.76210  1.0000
  C   C11       1.0  0.88947  0.54102  0.26210  1.0000
  C   C12       1.0  0.38947  0.45900  0.73790  1.0000
  C   C13       1.0  0.86457  0.04613  0.16002  1.0000
  C   C14       1.0  0.36456  0.95386  0.83998  1.0000
  C   C15       1.0  0.86458  0.54614  0.33998  1.0000
  C   C16       1.0  0.36458  0.45387  0.66002  1.0000
  C   C17       1.0  0.69401  0.11424  0.12559  1.0000
  C   C18       1.0  0.19400  0.88577  0.87441  1.0000
  C   C19       1.0  0.69403  0.61425  0.37441  1.0000
  C   C20       1.0  0.19403  0.38576  0.62559  1.0000
  C   C21       1.0  0.54408  0.17618  0.17315  1.0000
  C   C22       1.0  0.04407  0.82383  0.82685  1.0000
  C   C23       1.0  0.54409  0.67618  0.32685  1.0000
  C   C24       1.0  0.04410  0.32382  0.67315  1.0000
  C   C25       1.0  0.55836  0.16882  0.25127  1.0000
  C   C26       1.0  0.05835  0.83119  0.74874  1.0000
  C   C27       1.0  0.55835  0.66881  0.24873  1.0000
  C   C28       1.0  0.05837  0.33119  0.75126  1.0000
  N   N1        1.0  0.02343  0.97582  0.11074  1.0000
  N   N2        1.0  0.52342  0.02418  0.88926  1.0000
  N   N3        1.0  0.02345  0.47582  0.38925  1.0000
  N   N4        1.0  0.52345  0.52418  0.61074  1.0000
  N   N5        1.0  0.36214  0.25072  0.13978  1.0000
  N   N6        1.0  0.86214  0.74928  0.86022  1.0000
  N   N7        1.0  0.36215  0.75073  0.36022  1.0000
  N   N8        1.0  0.86217  0.24928  0.63978  1.0000
  O   O1        1.0  0.58191  0.09887  0.40303  1.0000
  O   O2        1.0  0.08188  0.90114  0.59697  1.0000
  O   O3        1.0  0.58187  0.59880  0.09698  1.0000
  O   O4        1.0  0.08187  0.40118  0.90302  1.0000
  O   O5        1.0  0.92182  0.06647  0.39509  1.0000
  O   O6        1.0  0.42179  0.93352  0.60491  1.0000
  O   O7        1.0  0.92179  0.56647  0.10491  1.0000
  O   O8        1.0  0.42179  0.43350  0.89509  1.0000
  O   O9        1.0  0.16802  0.89989  0.14123  1.0000
  O   O10       1.0  0.66801  0.10010  0.85878  1.0000
  O   O11       1.0  0.16803  0.39989  0.35878  1.0000
  O   O12       1.0  0.66803  0.60011  0.64122  1.0000
  O   O13       1.0  0.00308  0.99541  0.04225  1.0000
  O   O14       1.0  0.50306  0.00461  0.95775  1.0000
  O   O15       1.0  0.00310  0.49542  0.45775  1.0000
  O   O16       1.0  0.50310  0.50458  0.54225  1.0000
  O   O17       1.0  0.34627  0.24937  0.07011  1.0000
  O   O18       1.0  0.84626  0.75064  0.92989  1.0000
  O   O19       1.0  0.34629  0.74939  0.42989  1.0000
  O   O20       1.0  0.84630  0.25061  0.57011  1.0000
  O   O21       1.0  0.23328  0.31044  0.18321  1.0000
  O   O22       1.0  0.73329  0.68955  0.81679  1.0000
  O   O23       1.0  0.23329  0.81043  0.31679  1.0000
  O   O24       1.0  0.73330  0.18957  0.68321  1.0000
  O   O25       1.0  0.74858  0.87682  0.51175  1.0000
  O   O26       1.0  0.24858  0.12316  0.48826  1.0000
  O   O27       1.0  0.74858  0.37683  0.98825  1.0000
  O   O28       1.0  0.24856  0.62317  0.01174  1.0000
