data_image0
_chemical_formula_structural       Ag4H20C20O16
_chemical_formula_sum              "Ag4 H20 C20 O16"
_cell_length_a       5.39761
_cell_length_b       9.67051
_cell_length_c       12.7231
_cell_angle_alpha    110.144
_cell_angle_beta     90.0029
_cell_angle_gamma    89.9994

_space_group_name_H-M_alt    "P 1"
_space_group_IT_number       1

loop_
  _space_group_symop_operation_xyz
  'x, y, z'

loop_
  _atom_site_type_symbol
  _atom_site_label
  _atom_site_symmetry_multiplicity
  _atom_site_fract_x
  _atom_site_fract_y
  _atom_site_fract_z
  _atom_site_occupancy
  Ag  Ag1       1.0  0.47125  0.32077  0.28616  1.0000
  Ag  Ag2       1.0  0.97122  0.67924  0.71385  1.0000
  Ag  Ag3       1.0  0.03383  0.16829  0.27454  1.0000
  Ag  Ag4       1.0  0.53380  0.83172  0.72546  1.0000
  H   H1        1.0  0.83423  0.85594  0.12187  1.0000
  H   H2        1.0  0.33422  0.14407  0.87816  1.0000
  H   H3        1.0  0.17207  0.74963  0.97985  1.0000
  H   H4        1.0  0.67209  0.25039  0.02017  1.0000
  H   H5        1.0  0.33779  0.59245  0.89429  1.0000
  H   H6        1.0  0.83779  0.40755  0.10572  1.0000
  H   H7        1.0  0.34418  0.74623  0.32758  1.0000
  H   H8        1.0  0.84418  0.25377  0.67241  1.0000
  H   H9        1.0  0.21283  0.92409  0.36549  1.0000
  H   H10       1.0  0.71285  0.07589  0.63451  1.0000
  H   H11       1.0  0.79487  0.82944  0.35356  1.0000
  H   H12       1.0  0.29489  0.17054  0.64641  1.0000
  H   H13       1.0  0.93046  0.67210  0.25151  1.0000
  H   H14       1.0  0.43045  0.32788  0.74846  1.0000
  H   H15       1.0  0.53633  0.87860  0.94805  1.0000
  H   H16       1.0  0.03634  0.12140  0.05196  1.0000
  H   H17       1.0  0.72648  0.72125  0.93006  1.0000
  H   H18       1.0  0.22649  0.27876  0.06996  1.0000
  H   H19       1.0  0.70856  0.64972  0.44322  1.0000
  H   H20       1.0  0.20855  0.35029  0.55676  1.0000
  C   C1        1.0  0.21253  0.82937  0.49509  1.0000
  C   C2        1.0  0.71255  0.17064  0.50491  1.0000
  C   C3        1.0  0.19208  0.81620  0.37432  1.0000
  C   C4        1.0  0.69210  0.18380  0.62567  1.0000
  C   C5        1.0  0.93869  0.74493  0.33899  1.0000
  C   C6        1.0  0.43870  0.25507  0.66100  1.0000
  C   C7        1.0  0.90135  0.66114  0.42094  1.0000
  C   C8        1.0  0.40133  0.33884  0.57905  1.0000
  C   C9        1.0  0.02839  0.51099  0.37560  1.0000
  C   C10       1.0  0.52832  0.48900  0.62440  1.0000
  C   C11       1.0  0.37476  0.64013  0.07161  1.0000
  C   C12       1.0  0.87475  0.35987  0.92839  1.0000
  C   C13       1.0  0.34709  0.68860  0.97122  1.0000
  C   C14       1.0  0.84712  0.31140  0.02878  1.0000
  C   C15       1.0  0.57222  0.78700  0.97810  1.0000
  C   C16       1.0  0.07222  0.21300  0.02192  1.0000
  C   C17       1.0  0.63532  0.84100  0.10397  1.0000
  C   C18       1.0  0.13532  0.15899  0.89605  1.0000
  C   C19       1.0  0.49673  0.98464  0.16545  1.0000
  C   C20       1.0  0.99673  0.01536  0.83454  1.0000
  O   O1        1.0  0.25818  0.50767  0.39484  1.0000
  O   O2        1.0  0.75813  0.49233  0.60516  1.0000
  O   O3        1.0  0.89682  0.40323  0.31603  1.0000
  O   O4        1.0  0.39681  0.59679  0.68397  1.0000
  O   O5        1.0  0.36584  0.89768  0.56475  1.0000
  O   O6        1.0  0.86584  0.10235  0.43525  1.0000
  O   O7        1.0  0.02801  0.75219  0.52263  1.0000
  O   O8        1.0  0.52802  0.24782  0.47737  1.0000
  O   O9        1.0  0.27501  0.97373  0.19345  1.0000
  O   O10       1.0  0.77498  0.02628  0.80656  1.0000
  O   O11       1.0  0.61710  0.10315  0.17779  1.0000
  O   O12       1.0  0.11711  0.89686  0.82223  1.0000
  O   O13       1.0  0.26517  0.54440  0.09479  1.0000
  O   O14       1.0  0.76516  0.45560  0.90520  1.0000
  O   O15       1.0  0.55152  0.72428  0.14243  1.0000
  O   O16       1.0  0.05150  0.27569  0.85756  1.0000
