data_image0
_chemical_formula_structural       Ag4H20C20O16
_chemical_formula_sum              "Ag4 H20 C20 O16"
_cell_length_a       5.50076
_cell_length_b       10.1374
_cell_length_c       11.9714
_cell_angle_alpha    102.428
_cell_angle_beta     103.296
_cell_angle_gamma    90.0087

_space_group_name_H-M_alt    "P 1"
_space_group_IT_number       1

loop_
  _space_group_symop_operation_xyz
  'x, y, z'

loop_
  _atom_site_type_symbol
  _atom_site_label
  _atom_site_symmetry_multiplicity
  _atom_site_fract_x
  _atom_site_fract_y
  _atom_site_fract_z
  _atom_site_occupancy
  Ag  Ag1       1.0  0.72688  0.95281  0.04531  1.0000
  Ag  Ag2       1.0  0.68139  0.54723  0.95465  1.0000
  Ag  Ag3       1.0  0.27312  0.04720  0.95470  1.0000
  Ag  Ag4       1.0  0.31860  0.45277  0.04535  1.0000
  H   H1        1.0  0.50974  0.84264  0.49230  1.0000
  H   H2        1.0  0.01790  0.65758  0.50795  1.0000
  H   H3        1.0  0.49027  0.15734  0.50769  1.0000
  H   H4        1.0  0.98210  0.34242  0.49206  1.0000
  H   H5        1.0  0.64824  0.90129  0.38958  1.0000
  H   H6        1.0  0.25903  0.59921  0.61084  1.0000
  H   H7        1.0  0.35177  0.09870  0.61042  1.0000
  H   H8        1.0  0.74096  0.40080  0.38915  1.0000
  H   H9        1.0  0.09320  0.86118  0.38035  1.0000
  H   H10       1.0  0.71275  0.63859  0.61947  1.0000
  H   H11       1.0  0.90680  0.13882  0.61965  1.0000
  H   H12       1.0  0.28723  0.36142  0.38053  1.0000
  H   H13       1.0  0.23871  0.98743  0.33116  1.0000
  H   H14       1.0  0.90772  0.51252  0.66877  1.0000
  H   H15       1.0  0.76130  0.01256  0.66885  1.0000
  H   H16       1.0  0.09228  0.48748  0.33123  1.0000
  H   H17       1.0  0.99530  0.75590  0.17404  1.0000
  H   H18       1.0  0.82049  0.74376  0.82586  1.0000
  H   H19       1.0  0.00470  0.24410  0.82596  1.0000
  H   H20       1.0  0.17950  0.25624  0.17414  1.0000
  C   C1        1.0  0.51056  0.69595  0.33376  1.0000
  C   C2        1.0  0.17639  0.80438  0.66654  1.0000
  C   C3        1.0  0.48945  0.30406  0.66623  1.0000
  C   C4        1.0  0.82360  0.19563  0.33347  1.0000
  C   C5        1.0  0.49329  0.83908  0.39866  1.0000
  C   C6        1.0  0.09477  0.66120  0.60161  1.0000
  C   C7        1.0  0.50671  0.16092  0.60134  1.0000
  C   C8        1.0  0.90522  0.33879  0.39839  1.0000
  C   C9        1.0  0.23979  0.88100  0.33660  1.0000
  C   C10       1.0  0.90312  0.61897  0.66338  1.0000
  C   C11       1.0  0.76023  0.11900  0.66341  1.0000
  C   C12       1.0  0.09687  0.38102  0.33662  1.0000
  C   C13       1.0  0.19309  0.78557  0.21380  1.0000
  C   C14       1.0  0.97871  0.71437  0.78622  1.0000
  C   C15       1.0  0.80691  0.21442  0.78619  1.0000
  C   C16       1.0  0.02129  0.28563  0.21378  1.0000
  C   C17       1.0  0.31033  0.84898  0.13212  1.0000
  C   C18       1.0  0.17786  0.65110  0.86796  1.0000
  C   C19       1.0  0.68966  0.15104  0.86788  1.0000
  C   C20       1.0  0.82215  0.34890  0.13204  1.0000
  O   O1        1.0  0.53919  0.83218  0.13605  1.0000
  O   O2        1.0  0.40283  0.66806  0.86409  1.0000
  O   O3        1.0  0.46082  0.16783  0.86396  1.0000
  O   O4        1.0  0.59716  0.33192  0.13591  1.0000
  O   O5        1.0  0.16722  0.91987  0.07115  1.0000
  O   O6        1.0  0.09584  0.58012  0.92891  1.0000
  O   O7        1.0  0.83281  0.08015  0.92885  1.0000
  O   O8        1.0  0.90415  0.41989  0.07110  1.0000
  O   O9        1.0  0.66099  0.61278  0.35920  1.0000
  O   O10       1.0  0.30128  0.88772  0.64127  1.0000
  O   O11       1.0  0.33903  0.38722  0.64079  1.0000
  O   O12       1.0  0.69869  0.11228  0.35873  1.0000
  O   O13       1.0  0.31972  0.66409  0.23440  1.0000
  O   O14       1.0  0.08439  0.83603  0.76579  1.0000
  O   O15       1.0  0.68028  0.33591  0.76559  1.0000
  O   O16       1.0  0.91561  0.16396  0.23421  1.0000
