data_image0
_chemical_formula_structural       Ag4H24C24N12O16
_chemical_formula_sum              "Ag4 H24 C24 N12 O16"
_cell_length_a       8.05577
_cell_length_b       7.98145
_cell_length_c       12.6777
_cell_angle_alpha    94.7619
_cell_angle_beta     89.9999
_cell_angle_gamma    90.0001

_space_group_name_H-M_alt    "P 1"
_space_group_IT_number       1

loop_
  _space_group_symop_operation_xyz
  'x, y, z'

loop_
  _atom_site_type_symbol
  _atom_site_label
  _atom_site_symmetry_multiplicity
  _atom_site_fract_x
  _atom_site_fract_y
  _atom_site_fract_z
  _atom_site_occupancy
  Ag  Ag1       1.0  0.25964  0.53514  0.54407  1.0000
  Ag  Ag2       1.0  0.75964  0.46486  0.95593  1.0000
  Ag  Ag3       1.0  0.74036  0.46486  0.45593  1.0000
  Ag  Ag4       1.0  0.24036  0.53514  0.04407  1.0000
  H   H1        1.0  0.18527  0.70807  0.30804  1.0000
  H   H2        1.0  0.68526  0.29192  0.19196  1.0000
  H   H3        1.0  0.81474  0.29192  0.69196  1.0000
  H   H4        1.0  0.31474  0.70807  0.80804  1.0000
  H   H5        1.0  0.15840  0.20457  0.17853  1.0000
  H   H6        1.0  0.65840  0.79543  0.32147  1.0000
  H   H7        1.0  0.84160  0.79543  0.82147  1.0000
  H   H8        1.0  0.34160  0.20457  0.67853  1.0000
  H   H9        1.0  0.15204  0.22680  0.48458  1.0000
  H   H10       1.0  0.65204  0.77321  0.01542  1.0000
  H   H11       1.0  0.84796  0.77321  0.51542  1.0000
  H   H12       1.0  0.34796  0.22680  0.98458  1.0000
  H   H13       1.0  0.30143  0.99613  0.30187  1.0000
  H   H14       1.0  0.80143  0.00387  0.19814  1.0000
  H   H15       1.0  0.69857  0.00387  0.69813  1.0000
  H   H16       1.0  0.19857  0.99613  0.80187  1.0000
  H   H17       1.0  0.28253  0.95021  0.43454  1.0000
  H   H18       1.0  0.78253  0.04979  0.06546  1.0000
  H   H19       1.0  0.71748  0.04979  0.56546  1.0000
  H   H20       1.0  0.21747  0.95021  0.93454  1.0000
  H   H21       1.0  0.71202  0.10535  0.37116  1.0000
  H   H22       1.0  0.21202  0.89465  0.12884  1.0000
  H   H23       1.0  0.28798  0.89465  0.62884  1.0000
  H   H24       1.0  0.78798  0.10535  0.87116  1.0000
  C   C1        1.0  0.18220  0.57178  0.29944  1.0000
  C   C2        1.0  0.68220  0.42823  0.20056  1.0000
  C   C3        1.0  0.81780  0.42822  0.70056  1.0000
  C   C4        1.0  0.31780  0.57178  0.79944  1.0000
  C   C5        1.0  0.16784  0.31752  0.23211  1.0000
  C   C6        1.0  0.66784  0.68247  0.26789  1.0000
  C   C7        1.0  0.83216  0.68247  0.76789  1.0000
  C   C8        1.0  0.33216  0.31753  0.73211  1.0000
  C   C9        1.0  0.98550  0.08197  0.38250  1.0000
  C   C10       1.0  0.48550  0.91802  0.11750  1.0000
  C   C11       1.0  0.01451  0.91802  0.61750  1.0000
  C   C12       1.0  0.51450  0.08197  0.88250  1.0000
  C   C13       1.0  0.15403  0.17312  0.40166  1.0000
  C   C14       1.0  0.65403  0.82688  0.09834  1.0000
  C   C15       1.0  0.84597  0.82688  0.59834  1.0000
  C   C16       1.0  0.34597  0.17312  0.90166  1.0000
  C   C17       1.0  0.29979  0.05368  0.38348  1.0000
  C   C18       1.0  0.79979  0.94632  0.11652  1.0000
  C   C19       1.0  0.70021  0.94632  0.61652  1.0000
  C   C20       1.0  0.20020  0.05368  0.88348  1.0000
  C   C21       1.0  0.46742  0.13203  0.40832  1.0000
  C   C22       1.0  0.96742  0.86797  0.09168  1.0000
  C   C23       1.0  0.53258  0.86797  0.59168  1.0000
  C   C24       1.0  0.03258  0.13203  0.90832  1.0000
  N   N1        1.0  0.17582  0.47928  0.38209  1.0000
  N   N2        1.0  0.67582  0.52072  0.11791  1.0000
  N   N3        1.0  0.82418  0.52072  0.61791  1.0000
  N   N4        1.0  0.32418  0.47928  0.88209  1.0000
  N   N5        1.0  0.17850  0.47615  0.20544  1.0000
  N   N6        1.0  0.67850  0.52385  0.29456  1.0000
  N   N7        1.0  0.82150  0.52385  0.79456  1.0000
  N   N8        1.0  0.32150  0.47615  0.70544  1.0000
  N   N9        1.0  0.16713  0.31710  0.33779  1.0000
  N   N10       1.0  0.66713  0.68290  0.16221  1.0000
  N   N11       1.0  0.83286  0.68290  0.66221  1.0000
  N   N12       1.0  0.33286  0.31711  0.83779  1.0000
  O   O1        1.0  0.86154  0.18224  0.37155  1.0000
  O   O2        1.0  0.36154  0.81776  0.12845  1.0000
  O   O3        1.0  0.13846  0.81776  0.62845  1.0000
  O   O4        1.0  0.63845  0.18224  0.87155  1.0000
  O   O5        1.0  0.97887  0.92627  0.38081  1.0000
  O   O6        1.0  0.47887  0.07374  0.11919  1.0000
  O   O7        1.0  0.02113  0.07374  0.61919  1.0000
  O   O8        1.0  0.52112  0.92626  0.88081  1.0000
  O   O9        1.0  0.58940  0.04411  0.36251  1.0000
  O   O10       1.0  0.08940  0.95589  0.13749  1.0000
  O   O11       1.0  0.41060  0.95589  0.63749  1.0000
  O   O12       1.0  0.91060  0.04411  0.86251  1.0000
  O   O13       1.0  0.48652  0.26364  0.46670  1.0000
  O   O14       1.0  0.98652  0.73636  0.03331  1.0000
  O   O15       1.0  0.51348  0.73636  0.53330  1.0000
  O   O16       1.0  0.01348  0.26364  0.96670  1.0000
