data_image0
_chemical_formula_structural       Zn2H40C20S4N4O8
_chemical_formula_sum              "Zn2 H40 C20 S4 N4 O8"
_cell_length_a       5.09791
_cell_length_b       9.39143
_cell_length_c       15.3014
_cell_angle_alpha    110.059
_cell_angle_beta     90.0011
_cell_angle_gamma    89.9989

_space_group_name_H-M_alt    "P 1"
_space_group_IT_number       1

loop_
  _space_group_symop_operation_xyz
  'x, y, z'

loop_
  _atom_site_type_symbol
  _atom_site_label
  _atom_site_symmetry_multiplicity
  _atom_site_fract_x
  _atom_site_fract_y
  _atom_site_fract_z
  _atom_site_occupancy
  Zn  Zn1       1.0  0.99924  0.75175  0.01590  1.0000
  Zn  Zn2       1.0  0.49924  0.24825  0.98410  1.0000
  H   H1        1.0  0.64581  0.14021  0.50891  1.0000
  H   H2        1.0  0.14580  0.85979  0.49110  1.0000
  H   H3        1.0  0.28961  0.66851  0.86196  1.0000
  H   H4        1.0  0.78961  0.33148  0.13803  1.0000
  H   H5        1.0  0.89415  0.55900  0.80519  1.0000
  H   H6        1.0  0.39418  0.44101  0.19481  1.0000
  H   H7        1.0  0.98168  0.28538  0.72928  1.0000
  H   H8        1.0  0.48170  0.71462  0.27072  1.0000
  H   H9        1.0  0.40222  0.28738  0.65451  1.0000
  H   H10       1.0  0.90224  0.71261  0.34550  1.0000
  H   H11       1.0  0.79940  0.43810  0.61824  1.0000
  H   H12       1.0  0.29939  0.56190  0.38177  1.0000
  H   H13       1.0  0.61606  0.94272  0.06537  1.0000
  H   H14       1.0  0.11607  0.05727  0.93462  1.0000
  H   H15       1.0  0.78639  0.14471  0.18762  1.0000
  H   H16       1.0  0.28641  0.85528  0.81237  1.0000
  H   H17       1.0  0.10675  0.89215  0.22068  1.0000
  H   H18       1.0  0.60674  0.10785  0.77932  1.0000
  H   H19       1.0  0.11449  0.23040  0.34217  1.0000
  H   H20       1.0  0.61446  0.76961  0.65783  1.0000
  H   H21       1.0  0.46401  0.29297  0.49370  1.0000
  H   H22       1.0  0.96400  0.70703  0.50630  1.0000
  H   H23       1.0  0.34176  0.56097  0.92554  1.0000
  H   H24       1.0  0.84176  0.43903  0.07445  1.0000
  H   H25       1.0  0.23734  0.29354  0.80849  1.0000
  H   H26       1.0  0.73737  0.70647  0.19151  1.0000
  H   H27       1.0  0.51696  0.44335  0.74898  1.0000
  H   H28       1.0  0.01696  0.55663  0.25102  1.0000
  H   H29       1.0  0.03554  0.30896  0.54562  1.0000
  H   H30       1.0  0.53553  0.69104  0.45438  1.0000
  H   H31       1.0  0.95522  0.47970  0.52565  1.0000
  H   H32       1.0  0.45522  0.52031  0.47436  1.0000
  H   H33       1.0  0.63161  0.86801  0.14687  1.0000
  H   H34       1.0  0.13160  0.13198  0.85312  1.0000
  H   H35       1.0  0.84234  0.99262  0.28933  1.0000
  H   H36       1.0  0.34233  0.00739  0.71067  1.0000
  H   H37       1.0  0.37453  0.13416  0.26853  1.0000
  H   H38       1.0  0.87452  0.86584  0.73147  1.0000
  H   H39       1.0  0.70814  0.19511  0.41035  1.0000
  H   H40       1.0  0.20812  0.80489  0.58965  1.0000
  C   C1        1.0  0.01034  0.49822  0.84211  1.0000
  C   C2        1.0  0.51035  0.50179  0.15789  1.0000
  C   C3        1.0  0.34104  0.39344  0.70870  1.0000
  C   C4        1.0  0.84106  0.60655  0.29130  1.0000
  C   C5        1.0  0.13108  0.06553  0.10363  1.0000
  C   C6        1.0  0.63110  0.93446  0.89637  1.0000
  C   C7        1.0  0.01132  0.00390  0.24714  1.0000
  C   C8        1.0  0.51132  0.99610  0.75286  1.0000
  C   C9        1.0  0.55514  0.18246  0.45756  1.0000
  C   C10       1.0  0.05512  0.81754  0.54245  1.0000
  C   C11       1.0  0.31269  0.54111  0.09318  1.0000
  C   C12       1.0  0.81269  0.45891  0.90682  1.0000
  C   C13       1.0  0.13613  0.35902  0.77140  1.0000
  C   C14       1.0  0.63615  0.64098  0.22860  1.0000
  C   C15       1.0  0.98350  0.42879  0.57970  1.0000
  C   C16       1.0  0.48349  0.57121  0.42030  1.0000
  C   C17       1.0  0.90424  0.04014  0.16321  1.0000
  C   C18       1.0  0.40425  0.95986  0.83679  1.0000
  C   C19       1.0  0.20488  0.11845  0.30864  1.0000
  C   C20       1.0  0.70487  0.88155  0.69136  1.0000
  S   S1        1.0  0.24864  0.52884  0.65341  1.0000
  S   S2        1.0  0.74863  0.47116  0.34659  1.0000
  S   S3        1.0  0.31751  0.04241  0.39635  1.0000
  S   S4        1.0  0.81748  0.95760  0.60365  1.0000
  N   N1        1.0  0.74592  0.90981  0.10629  1.0000
  N   N2        1.0  0.24592  0.09019  0.89370  1.0000
  N   N3        1.0  0.19777  0.61160  0.89955  1.0000
  N   N4        1.0  0.69777  0.38840  0.10045  1.0000
  O   O1        1.0  0.22413  0.67525  0.11615  1.0000
  O   O2        1.0  0.72415  0.32475  0.88386  1.0000
  O   O3        1.0  0.73855  0.56751  0.97891  1.0000
  O   O4        1.0  0.23856  0.43250  0.02108  1.0000
  O   O5        1.0  0.22633  0.94650  0.04155  1.0000
  O   O6        1.0  0.72634  0.05349  0.95845  1.0000
  O   O7        1.0  0.21549  0.19767  0.12030  1.0000
  O   O8        1.0  0.71551  0.80233  0.87969  1.0000
