data_image0
_chemical_formula_structural       Cu4H24C24N12Cl8
_chemical_formula_sum              "Cu4 H24 C24 N12 Cl8"
_cell_length_a       8.09068
_cell_length_b       8.62142
_cell_length_c       14.3126
_cell_angle_alpha    79.1333
_cell_angle_beta     73.5882
_cell_angle_gamma    62.0053

_space_group_name_H-M_alt    "P 1"
_space_group_IT_number       1

loop_
  _space_group_symop_operation_xyz
  'x, y, z'

loop_
  _atom_site_type_symbol
  _atom_site_label
  _atom_site_symmetry_multiplicity
  _atom_site_fract_x
  _atom_site_fract_y
  _atom_site_fract_z
  _atom_site_occupancy
  Cu  Cu1       1.0  0.79804  0.14169  0.59292  1.0000
  Cu  Cu2       1.0  0.46736  0.64181  0.09295  1.0000
  Cu  Cu3       1.0  0.20197  0.85831  0.40707  1.0000
  Cu  Cu4       1.0  0.53264  0.35819  0.90705  1.0000
  H   H1        1.0  0.78391  0.65605  0.70209  1.0000
  H   H2        1.0  0.85796  0.15615  0.20221  1.0000
  H   H3        1.0  0.21610  0.34395  0.29791  1.0000
  H   H4        1.0  0.14204  0.84384  0.79779  1.0000
  H   H5        1.0  0.78982  0.50066  0.79958  1.0000
  H   H6        1.0  0.90990  0.00065  0.29967  1.0000
  H   H7        1.0  0.21019  0.49933  0.20042  1.0000
  H   H8        1.0  0.09010  0.99934  0.70033  1.0000
  H   H9        1.0  0.75228  0.31373  0.38940  1.0000
  H   H10       1.0  0.54483  0.81398  0.88950  1.0000
  H   H11       1.0  0.24774  0.68627  0.61059  1.0000
  H   H12       1.0  0.45517  0.18602  0.11050  1.0000
  H   H13       1.0  0.67113  0.61683  0.31207  1.0000
  H   H14       1.0  0.39984  0.11696  0.81222  1.0000
  H   H15       1.0  0.32887  0.38317  0.68793  1.0000
  H   H16       1.0  0.60015  0.88304  0.18778  1.0000
  H   H17       1.0  0.64317  0.84871  0.41000  1.0000
  H   H18       1.0  0.09792  0.34878  0.91011  1.0000
  H   H19       1.0  0.35681  0.15129  0.59001  1.0000
  H   H20       1.0  0.90208  0.65122  0.08989  1.0000
  H   H21       1.0  0.71020  0.76195  0.57471  1.0000
  H   H22       1.0  0.95302  0.26215  0.07487  1.0000
  H   H23       1.0  0.28978  0.23805  0.42530  1.0000
  H   H24       1.0  0.04697  0.73784  0.92514  1.0000
  C   C1        1.0  0.74220  0.41672  0.42760  1.0000
  C   C2        1.0  0.41370  0.91690  0.92777  1.0000
  C   C3        1.0  0.25781  0.58328  0.57240  1.0000
  C   C4        1.0  0.58630  0.08310  0.07223  1.0000
  C   C5        1.0  0.69775  0.58710  0.38530  1.0000
  C   C6        1.0  0.32990  0.08726  0.88550  1.0000
  C   C7        1.0  0.30226  0.41290  0.61470  1.0000
  C   C8        1.0  0.67009  0.91274  0.11450  1.0000
  C   C9        1.0  0.68370  0.71286  0.43899  1.0000
  C   C10       1.0  0.16442  0.21299  0.93918  1.0000
  C   C11       1.0  0.31630  0.28715  0.56101  1.0000
  C   C12       1.0  0.83558  0.78702  0.06082  1.0000
  C   C13       1.0  0.71983  0.66395  0.53251  1.0000
  C   C14       1.0  0.08365  0.16415  0.03269  1.0000
  C   C15       1.0  0.28016  0.33606  0.46749  1.0000
  C   C16       1.0  0.91635  0.83585  0.96731  1.0000
  C   C17       1.0  0.76201  0.49182  0.57052  1.0000
  C   C18       1.0  0.17570  0.99199  0.07065  1.0000
  C   C19       1.0  0.23800  0.50818  0.42948  1.0000
  C   C20       1.0  0.82430  0.00801  0.92935  1.0000
  C   C21       1.0  0.78671  0.43050  0.67132  1.0000
  C   C22       1.0  0.11150  0.93057  0.17142  1.0000
  C   C23       1.0  0.21329  0.56950  0.32868  1.0000
  C   C24       1.0  0.88850  0.06942  0.82858  1.0000
  N   N1        1.0  0.77004  0.37108  0.51865  1.0000
  N   N2        1.0  0.34036  0.87127  0.01879  1.0000
  N   N3        1.0  0.22997  0.62892  0.48135  1.0000
  N   N4        1.0  0.65963  0.12873  0.98122  1.0000
  N   N5        1.0  0.80020  0.53096  0.72598  1.0000
  N   N6        1.0  0.94293  0.03104  0.22608  1.0000
  N   N7        1.0  0.19981  0.46904  0.27402  1.0000
  N   N8        1.0  0.05706  0.96895  0.77391  1.0000
  N   N9        1.0  0.79389  0.27190  0.70089  1.0000
  N   N10       1.0  0.23333  0.77190  0.20096  1.0000
  N   N11       1.0  0.20611  0.72810  0.29910  1.0000
  N   N12       1.0  0.76667  0.22810  0.79904  1.0000
  Cl  Cl1       1.0  0.71976  0.94291  0.69674  1.0000
  Cl  Cl2       1.0  0.64025  0.44262  0.19675  1.0000
  Cl  Cl3       1.0  0.28023  0.05710  0.30325  1.0000
  Cl  Cl4       1.0  0.35975  0.55738  0.80326  1.0000
  Cl  Cl5       1.0  0.80950  0.01636  0.46017  1.0000
  Cl  Cl6       1.0  0.71389  0.51636  0.96022  1.0000
  Cl  Cl7       1.0  0.19050  0.98365  0.53983  1.0000
  Cl  Cl8       1.0  0.28612  0.48364  0.03978  1.0000
