data_image0
_chemical_formula_structural       Zn3H16C24N6O14
_chemical_formula_sum              "Zn3 H16 C24 N6 O14"
_cell_length_a       8.50579
_cell_length_b       8.98258
_cell_length_c       10.4635
_cell_angle_alpha    109.928
_cell_angle_beta     103.553
_cell_angle_gamma    114.445

_space_group_name_H-M_alt    "P 1"
_space_group_IT_number       1

loop_
  _space_group_symop_operation_xyz
  'x, y, z'

loop_
  _atom_site_type_symbol
  _atom_site_label
  _atom_site_symmetry_multiplicity
  _atom_site_fract_x
  _atom_site_fract_y
  _atom_site_fract_z
  _atom_site_occupancy
  Zn  Zn1       1.0  0.39557  0.12292  0.64976  1.0000
  Zn  Zn2       1.0  0.60442  0.87707  0.35024  1.0000
  Zn  Zn3       1.0  0.50000  0.50000  0.00000  1.0000
  H   H1        1.0  0.40126  0.13935  0.16621  1.0000
  H   H2        1.0  0.59874  0.86065  0.83379  1.0000
  H   H3        1.0  0.95554  0.64179  0.12547  1.0000
  H   H4        1.0  0.04446  0.35821  0.87453  1.0000
  H   H5        1.0  0.91770  0.70707  0.73324  1.0000
  H   H6        1.0  0.08230  0.29292  0.26676  1.0000
  H   H7        1.0  0.06104  0.14853  0.42681  1.0000
  H   H8        1.0  0.93897  0.85147  0.57319  1.0000
  H   H9        1.0  0.22458  0.62514  0.82680  1.0000
  H   H10       1.0  0.77541  0.37485  0.17320  1.0000
  H   H11       1.0  0.86851  0.43182  0.57535  1.0000
  H   H12       1.0  0.13148  0.56818  0.42465  1.0000
  H   H13       1.0  0.85661  0.28395  0.40491  1.0000
  H   H14       1.0  0.14339  0.71605  0.59509  1.0000
  H   H15       1.0  0.56467  0.40145  0.53503  1.0000
  H   H16       1.0  0.43535  0.59857  0.46499  1.0000
  C   C1        1.0  0.16970  0.93604  0.94237  1.0000
  C   C2        1.0  0.83030  0.06396  0.05763  1.0000
  C   C3        1.0  0.26733  0.00213  0.09657  1.0000
  C   C4        1.0  0.73267  0.99786  0.90343  1.0000
  C   C5        1.0  0.19237  0.89618  0.16310  1.0000
  C   C6        1.0  0.80762  0.10382  0.83690  1.0000
  C   C7        1.0  0.01677  0.72412  0.07468  1.0000
  C   C8        1.0  0.98323  0.27588  0.92533  1.0000
  C   C9        1.0  0.91987  0.65335  0.91912  1.0000
  C   C10       1.0  0.08012  0.34665  0.08088  1.0000
  C   C11       1.0  0.99724  0.75965  0.85297  1.0000
  C   C12       1.0  0.00275  0.24035  0.14703  1.0000
  C   C13       1.0  0.25547  0.06369  0.88182  1.0000
  C   C14       1.0  0.74453  0.93631  0.11818  1.0000
  C   C15       1.0  0.30933  0.97192  0.32785  1.0000
  C   C16       1.0  0.69067  0.02808  0.67214  1.0000
  C   C17       1.0  0.73540  0.46551  0.82591  1.0000
  C   C18       1.0  0.26460  0.53449  0.17409  1.0000
  C   C19       1.0  0.13477  0.25966  0.54340  1.0000
  C   C20       1.0  0.86523  0.74034  0.45659  1.0000
  C   C21       1.0  0.21756  0.50357  0.74890  1.0000
  C   C22       1.0  0.78244  0.49642  0.25109  1.0000
  C   C23       1.0  0.95257  0.41644  0.51247  1.0000
  C   C24       1.0  0.04742  0.58356  0.48753  1.0000
  N   N1        1.0  0.31900  0.43358  0.78495  1.0000
  N   N2        1.0  0.68099  0.56642  0.21505  1.0000
  N   N3        1.0  0.26751  0.28075  0.65553  1.0000
  N   N4        1.0  0.73249  0.71926  0.34447  1.0000
  N   N5        1.0  0.09826  0.39636  0.59781  1.0000
  N   N6        1.0  0.90174  0.60364  0.40219  1.0000
  O   O1        1.0  0.23903  0.98941  0.74730  1.0000
  O   O2        1.0  0.76097  0.01058  0.25269  1.0000
  O   O3        1.0  0.33956  0.23695  0.97346  1.0000
  O   O4        1.0  0.66043  0.76304  0.02653  1.0000
  O   O5        1.0  0.48794  0.03672  0.37029  1.0000
  O   O6        1.0  0.51206  0.96328  0.62970  1.0000
  O   O7        1.0  0.22611  0.97287  0.41453  1.0000
  O   O8        1.0  0.77389  0.02713  0.58547  1.0000
  O   O9        1.0  0.64442  0.39081  0.89139  1.0000
  O   O10       1.0  0.35558  0.60919  0.10861  1.0000
  O   O11       1.0  0.67118  0.37643  0.68270  1.0000
  O   O12       1.0  0.32881  0.62356  0.31730  1.0000
  O   O13       1.0  0.50579  0.42098  0.45332  1.0000
  O   O14       1.0  0.49426  0.57906  0.54670  1.0000
