data_image0
_chemical_formula_structural       Zn6H36C48N12O28
_chemical_formula_sum              "Zn6 H36 C48 N12 O28"
_cell_length_a       11.7929
_cell_length_b       12.059
_cell_length_c       12.2851
_cell_angle_alpha    108.734
_cell_angle_beta     105.243
_cell_angle_gamma    111.675

_space_group_name_H-M_alt    "P 1"
_space_group_IT_number       1

loop_
  _space_group_symop_operation_xyz
  'x, y, z'

loop_
  _atom_site_type_symbol
  _atom_site_label
  _atom_site_symmetry_multiplicity
  _atom_site_fract_x
  _atom_site_fract_y
  _atom_site_fract_z
  _atom_site_occupancy
  Zn  Zn1       1.0  0.62306  0.28852  0.33267  1.0000
  Zn  Zn2       1.0  0.37694  0.71148  0.66733  1.0000
  Zn  Zn3       1.0  0.25355  0.01334  0.25328  1.0000
  Zn  Zn4       1.0  0.74645  0.98666  0.74672  1.0000
  Zn  Zn5       1.0  0.89754  0.71086  0.16994  1.0000
  Zn  Zn6       1.0  0.10246  0.28914  0.83006  1.0000
  H   H1        1.0  0.49083  0.14694  0.44970  1.0000
  H   H2        1.0  0.50917  0.85306  0.55030  1.0000
  H   H3        1.0  0.38330  0.07421  0.49437  1.0000
  H   H4        1.0  0.61670  0.92579  0.50563  1.0000
  H   H5        1.0  0.01898  0.92841  0.07183  1.0000
  H   H6        1.0  0.98102  0.07159  0.92817  1.0000
  H   H7        1.0  0.12643  0.96690  0.01762  1.0000
  H   H8        1.0  0.87357  0.03310  0.98238  1.0000
  H   H9        1.0  0.55254  0.52465  0.37060  1.0000
  H   H10       1.0  0.44746  0.47535  0.62941  1.0000
  H   H11       1.0  0.14252  0.23660  0.24328  1.0000
  H   H12       1.0  0.85748  0.76339  0.75672  1.0000
  H   H13       1.0  0.38168  0.61523  0.41020  1.0000
  H   H14       1.0  0.61832  0.38477  0.58980  1.0000
  H   H15       1.0  0.20931  0.49288  0.34503  1.0000
  H   H16       1.0  0.79069  0.50712  0.65497  1.0000
  H   H17       1.0  0.40146  0.82958  0.28629  1.0000
  H   H18       1.0  0.59854  0.17042  0.71371  1.0000
  H   H19       1.0  0.00448  0.50370  0.14471  1.0000
  H   H20       1.0  0.99552  0.49630  0.85530  1.0000
  H   H21       1.0  0.36644  0.58164  0.19431  1.0000
  H   H22       1.0  0.63356  0.41836  0.80569  1.0000
  H   H23       1.0  0.20018  0.44485  0.12045  1.0000
  H   H24       1.0  0.79982  0.55515  0.87955  1.0000
  H   H25       1.0  0.30045  0.75332  0.01768  1.0000
  H   H26       1.0  0.69955  0.24668  0.98232  1.0000
  H   H27       1.0  0.55185  0.59283  0.92372  1.0000
  H   H28       1.0  0.44815  0.40717  0.07629  1.0000
  H   H29       1.0  0.71916  0.02258  0.13123  1.0000
  H   H30       1.0  0.28084  0.97742  0.86877  1.0000
  H   H31       1.0  0.10454  0.62434  0.43728  1.0000
  H   H32       1.0  0.89546  0.37566  0.56272  1.0000
  H   H33       1.0  0.22280  0.04327  0.64362  1.0000
  H   H34       1.0  0.77720  0.95673  0.35638  1.0000
  H   H35       1.0  0.81830  0.73311  0.52147  1.0000
  H   H36       1.0  0.18170  0.26689  0.47853  1.0000
  C   C1        1.0  0.46055  0.43122  0.33679  1.0000
  C   C2        1.0  0.53945  0.56878  0.66322  1.0000
  C   C3        1.0  0.25045  0.28252  0.27002  1.0000
  C   C4        1.0  0.74955  0.71748  0.72998  1.0000
  C   C5        1.0  0.29891  0.52200  0.32607  1.0000
  C   C6        1.0  0.70109  0.47800  0.67393  1.0000
  C   C7        1.0  0.29245  0.76971  0.25174  1.0000
  C   C8        1.0  0.70755  0.23029  0.74826  1.0000
  C   C9        1.0  0.08958  0.60272  0.17934  1.0000
  C   C10       1.0  0.91042  0.39727  0.82066  1.0000
  C   C11       1.0  0.27320  0.54119  0.20620  1.0000
  C   C12       1.0  0.72680  0.45881  0.79380  1.0000
  C   C13       1.0  0.50860  0.89961  0.08262  1.0000
  C   C14       1.0  0.49140  0.10039  0.91737  1.0000
  C   C15       1.0  0.39830  0.76886  0.02029  1.0000
  C   C16       1.0  0.60170  0.23115  0.97971  1.0000
  C   C17       1.0  0.41291  0.65830  0.96027  1.0000
  C   C18       1.0  0.58709  0.34170  0.03973  1.0000
  C   C19       1.0  0.53936  0.67939  0.96534  1.0000
  C   C20       1.0  0.46064  0.32061  0.03466  1.0000
  C   C21       1.0  0.64994  0.81006  0.02606  1.0000
  C   C22       1.0  0.35006  0.18994  0.97394  1.0000
  C   C23       1.0  0.63373  0.92040  0.08311  1.0000
  C   C24       1.0  0.36627  0.07959  0.91689  1.0000
  C   C25       1.0  0.49434  0.01659  0.15358  1.0000
  C   C26       1.0  0.50566  0.98342  0.84642  1.0000
  C   C27       1.0  0.29730  0.51802  0.89754  1.0000
  C   C28       1.0  0.70269  0.48198  0.10246  1.0000
  C   C29       1.0  0.78631  0.83048  0.03726  1.0000
  C   C30       1.0  0.21369  0.16952  0.96274  1.0000
  C   C31       1.0  0.94984  0.66300  0.46958  1.0000
  C   C32       1.0  0.05016  0.33700  0.53042  1.0000
  C   C33       1.0  0.08051  0.70205  0.47861  1.0000
  C   C34       1.0  0.91949  0.29795  0.52139  1.0000
  C   C35       1.0  0.17908  0.83834  0.54131  1.0000
  C   C36       1.0  0.82092  0.16166  0.45869  1.0000
  C   C37       1.0  0.14654  0.93684  0.59470  1.0000
  C   C38       1.0  0.85346  0.06316  0.40530  1.0000
  C   C39       1.0  0.01736  0.89849  0.58942  1.0000
  C   C40       1.0  0.98264  0.10151  0.41058  1.0000
  C   C41       1.0  0.91924  0.76173  0.52652  1.0000
  C   C42       1.0  0.08076  0.23827  0.47348  1.0000
  C   C43       1.0  0.84796  0.51592  0.40268  1.0000
  C   C44       1.0  0.15203  0.48408  0.59732  1.0000
  C   C45       1.0  0.32019  0.88008  0.55668  1.0000
  C   C46       1.0  0.67981  0.11992  0.44332  1.0000
  C   C47       1.0  0.98579  0.00267  0.65699  1.0000
  C   C48       1.0  0.01421  0.99733  0.34301  1.0000
  N   N1        1.0  0.45315  0.31295  0.31231  1.0000
  N   N2        1.0  0.54685  0.68706  0.68769  1.0000
  N   N3        1.0  0.32056  0.21909  0.26974  1.0000
  N   N4        1.0  0.67944  0.78091  0.73026  1.0000
  N   N5        1.0  0.33493  0.41624  0.31185  1.0000
  N   N6        1.0  0.66507  0.58376  0.68815  1.0000
  N   N7        1.0  0.20833  0.81774  0.24183  1.0000
  N   N8        1.0  0.79167  0.18226  0.75817  1.0000
  N   N9        1.0  0.08043  0.71250  0.19618  1.0000
  N   N10       1.0  0.91957  0.28750  0.80382  1.0000
  N   N11       1.0  0.22132  0.63474  0.21306  1.0000
  N   N12       1.0  0.77868  0.36526  0.78694  1.0000
  O   O1        1.0  0.39757  0.12396  0.44383  1.0000
  O   O2        1.0  0.60244  0.87604  0.55618  1.0000
  O   O3        1.0  0.10123  0.92253  0.06986  1.0000
  O   O4        1.0  0.89877  0.07747  0.93014  1.0000
  O   O5        1.0  0.59683  0.13365  0.19575  1.0000
  O   O6        1.0  0.40317  0.86635  0.80425  1.0000
  O   O7        1.0  0.38857  0.99476  0.16979  1.0000
  O   O8        1.0  0.61143  0.00524  0.83021  1.0000
  O   O9        1.0  0.19670  0.49905  0.92731  1.0000
  O   O10       1.0  0.80329  0.50095  0.07269  1.0000
  O   O11       1.0  0.29977  0.42022  0.82143  1.0000
  O   O12       1.0  0.70023  0.57978  0.17857  1.0000
  O   O13       1.0  0.80376  0.72755  0.01723  1.0000
  O   O14       1.0  0.19624  0.27244  0.98277  1.0000
  O   O15       1.0  0.87943  0.94588  0.06739  1.0000
  O   O16       1.0  0.12057  0.05412  0.93261  1.0000
  O   O17       1.0  0.74307  0.48386  0.42933  1.0000
  O   O18       1.0  0.25693  0.51614  0.57068  1.0000
  O   O19       1.0  0.86432  0.43096  0.32887  1.0000
  O   O20       1.0  0.13568  0.56904  0.67113  1.0000
  O   O21       1.0  0.35623  0.78766  0.53917  1.0000
  O   O22       1.0  0.64377  0.21233  0.46083  1.0000
  O   O23       1.0  0.39988  0.99915  0.58558  1.0000
  O   O24       1.0  0.60012  0.00085  0.41442  1.0000
  O   O25       1.0  0.07291  0.12574  0.69625  1.0000
  O   O26       1.0  0.92709  0.87426  0.30376  1.0000
  O   O27       1.0  0.87849  0.96096  0.67133  1.0000
  O   O28       1.0  0.12152  0.03904  0.32867  1.0000
