data_image0
_chemical_formula_structural       Sn2H44C36O2
_chemical_formula_sum              "Sn2 H44 C36 O2"
_cell_length_a       8.22388
_cell_length_b       10.1191
_cell_length_c       10.4513
_cell_angle_alpha    118.954
_cell_angle_beta     90.0001
_cell_angle_gamma    90.0001

_space_group_name_H-M_alt    "P 1"
_space_group_IT_number       1

loop_
  _space_group_symop_operation_xyz
  'x, y, z'

loop_
  _atom_site_type_symbol
  _atom_site_label
  _atom_site_symmetry_multiplicity
  _atom_site_fract_x
  _atom_site_fract_y
  _atom_site_fract_z
  _atom_site_occupancy
  Sn  Sn1       1.0  0.50104  0.00366  1.00000  1.0000
  Sn  Sn2       1.0  0.00104  0.99634  1.00000  1.0000
  H   H1        1.0  0.74570  0.81393  0.00000  1.0000
  H   H2        1.0  0.24570  0.18607  0.00000  1.0000
  H   H3        1.0  0.73303  0.18721  0.00000  1.0000
  H   H4        1.0  0.23303  0.81279  0.00000  1.0000
  H   H5        1.0  0.59348  0.34367  0.23713  1.0000
  H   H6        1.0  0.09348  0.65633  0.76288  1.0000
  H   H7        1.0  0.59348  0.10654  0.76288  1.0000
  H   H8        1.0  0.09348  0.89346  0.23713  1.0000
  H   H9        1.0  0.42251  0.36438  0.14611  1.0000
  H   H10       1.0  0.92251  0.63562  0.85389  1.0000
  H   H11       1.0  0.42250  0.21827  0.85389  1.0000
  H   H12       1.0  0.92251  0.78173  0.14611  1.0000
  H   H13       1.0  0.59510  0.59071  0.23666  1.0000
  H   H14       1.0  0.09510  0.40930  0.76334  1.0000
  H   H15       1.0  0.59510  0.35405  0.76335  1.0000
  H   H16       1.0  0.09510  0.64595  0.23666  1.0000
  H   H17       1.0  0.76700  0.47894  0.14831  1.0000
  H   H18       1.0  0.26700  0.52107  0.85169  1.0000
  H   H19       1.0  0.76700  0.33062  0.85170  1.0000
  H   H20       1.0  0.26700  0.66938  0.14831  1.0000
  H   H21       1.0  0.46373  0.52047  0.00000  1.0000
  H   H22       1.0  0.96373  0.47953  0.00000  1.0000
  H   H23       1.0  0.66060  0.58934  0.00000  1.0000
  H   H24       1.0  0.16060  0.41067  0.00000  1.0000
  H   H25       1.0  0.57513  0.64235  0.82488  1.0000
  H   H26       1.0  0.07513  0.35766  0.17512  1.0000
  H   H27       1.0  0.57513  0.81746  0.17512  1.0000
  H   H28       1.0  0.07514  0.18254  0.82488  1.0000
  H   H29       1.0  0.50790  0.42980  0.58141  1.0000
  H   H30       1.0  0.00790  0.57020  0.41859  1.0000
  H   H31       1.0  0.50790  0.84838  0.41858  1.0000
  H   H32       1.0  0.00790  0.15161  0.58141  1.0000
  H   H33       1.0  0.34214  0.47257  0.40679  1.0000
  H   H34       1.0  0.84214  0.52742  0.59321  1.0000
  H   H35       1.0  0.34215  0.06578  0.59320  1.0000
  H   H36       1.0  0.84214  0.93422  0.40679  1.0000
  H   H37       1.0  0.24045  0.73223  0.47820  1.0000
  H   H38       1.0  0.74044  0.26776  0.52179  1.0000
  H   H39       1.0  0.24045  0.25403  0.52179  1.0000
  H   H40       1.0  0.74045  0.74597  0.47821  1.0000
  H   H41       1.0  0.29776  0.94254  0.72460  1.0000
  H   H42       1.0  0.79776  0.05746  0.27540  1.0000
  H   H43       1.0  0.29777  0.21793  0.27540  1.0000
  H   H44       1.0  0.79777  0.78207  0.72460  1.0000
  C   C1        1.0  0.60062  0.20290  0.00000  1.0000
  C   C2        1.0  0.10062  0.79711  0.00000  1.0000
  C   C3        1.0  0.55592  0.34904  0.13873  1.0000
  C   C4        1.0  0.05592  0.65097  0.86128  1.0000
  C   C5        1.0  0.55592  0.21031  0.86128  1.0000
  C   C6        1.0  0.05592  0.78969  0.13873  1.0000
  C   C7        1.0  0.63437  0.48664  0.13903  1.0000
  C   C8        1.0  0.13437  0.51336  0.86098  1.0000
  C   C9        1.0  0.63437  0.34762  0.86098  1.0000
  C   C10       1.0  0.13437  0.65239  0.13903  1.0000
  C   C11       1.0  0.59397  0.49464  1.00000  1.0000
  C   C12       1.0  0.09396  0.50536  0.00000  1.0000
  C   C13       1.0  0.44281  0.80945  0.79252  1.0000
  C   C14       1.0  0.94281  0.19055  0.20748  1.0000
  C   C15       1.0  0.44281  0.01692  0.20747  1.0000
  C   C16       1.0  0.94281  0.98308  0.79253  1.0000
  C   C17       1.0  0.50079  0.66376  0.75029  1.0000
  C   C18       1.0  0.00079  0.33624  0.24971  1.0000
  C   C19       1.0  0.50079  0.91347  0.24971  1.0000
  C   C20       1.0  0.00079  0.08653  0.75029  1.0000
  C   C21       1.0  0.46401  0.54304  0.61258  1.0000
  C   C22       1.0  0.96402  0.45696  0.38742  1.0000
  C   C23       1.0  0.46402  0.93046  0.38742  1.0000
  C   C24       1.0  0.96402  0.06954  0.61258  1.0000
  C   C25       1.0  0.37068  0.56692  0.51400  1.0000
  C   C26       1.0  0.87068  0.43308  0.48600  1.0000
  C   C27       1.0  0.37068  0.05292  0.48600  1.0000
  C   C28       1.0  0.87068  0.94708  0.51400  1.0000
  C   C29       1.0  0.31321  0.71160  0.55410  1.0000
  C   C30       1.0  0.81321  0.28839  0.44589  1.0000
  C   C31       1.0  0.31322  0.15749  0.44589  1.0000
  C   C32       1.0  0.81322  0.84250  0.55411  1.0000
  C   C33       1.0  0.34793  0.83136  0.69286  1.0000
  C   C34       1.0  0.84792  0.16864  0.30713  1.0000
  C   C35       1.0  0.34793  0.13849  0.30713  1.0000
  C   C36       1.0  0.84793  0.86150  0.69287  1.0000
  O   O1        1.0  0.74618  0.90991  1.00000  1.0000
  O   O2        1.0  0.24618  0.09009  0.00000  1.0000
