data_image0
_chemical_formula_structural       Cu2H48C42N8O8
_chemical_formula_sum              "Cu2 H48 C42 N8 O8"
_cell_length_a       7.78603
_cell_length_b       11.764
_cell_length_c       12.257
_cell_angle_alpha    85.9345
_cell_angle_beta     78.6555
_cell_angle_gamma    80.1269

_space_group_name_H-M_alt    "P 1"
_space_group_IT_number       1

loop_
  _space_group_symop_operation_xyz
  'x, y, z'

loop_
  _atom_site_type_symbol
  _atom_site_label
  _atom_site_symmetry_multiplicity
  _atom_site_fract_x
  _atom_site_fract_y
  _atom_site_fract_z
  _atom_site_occupancy
  Cu  Cu1       1.0  0.50000  0.50000  0.50000  1.0000
  Cu  Cu2       1.0  0.50000  0.00000  1.00000  1.0000
  H   H1        1.0  0.66929  0.71527  0.55282  1.0000
  H   H2        1.0  0.33071  0.28473  0.44718  1.0000
  H   H3        1.0  0.13843  0.76397  0.41611  1.0000
  H   H4        1.0  0.86156  0.23603  0.58390  1.0000
  H   H5        1.0  0.06244  0.73572  0.55901  1.0000
  H   H6        1.0  0.93756  0.26428  0.44099  1.0000
  H   H7        1.0  0.69607  0.85159  0.17635  1.0000
  H   H8        1.0  0.30393  0.14840  0.82364  1.0000
  H   H9        1.0  0.78059  0.16808  0.00847  1.0000
  H   H10       1.0  0.21942  0.83192  0.99153  1.0000
  H   H11       1.0  0.02686  0.10766  0.15094  1.0000
  H   H12       1.0  0.97315  0.89233  0.84907  1.0000
  H   H13       1.0  0.86726  0.44528  0.33200  1.0000
  H   H14       1.0  0.13274  0.55472  0.66800  1.0000
  H   H15       1.0  0.71862  0.10229  0.33425  1.0000
  H   H16       1.0  0.28136  0.89770  0.66575  1.0000
  H   H17       1.0  0.13883  0.57397  0.33420  1.0000
  H   H18       1.0  0.86117  0.42603  0.66580  1.0000
  H   H19       1.0  0.10132  0.91918  0.26718  1.0000
  H   H20       1.0  0.89868  0.08081  0.73283  1.0000
  H   H21       1.0  0.96539  0.81177  0.27393  1.0000
  H   H22       1.0  0.03461  0.18822  0.72607  1.0000
  H   H23       1.0  0.82881  0.85966  0.66934  1.0000
  H   H24       1.0  0.17118  0.14034  0.33066  1.0000
  H   H25       1.0  0.61541  0.03975  0.68997  1.0000
  H   H26       1.0  0.38458  0.96025  0.31003  1.0000
  H   H27       1.0  0.56250  0.16426  0.52056  1.0000
  H   H28       1.0  0.43748  0.83573  0.47944  1.0000
  H   H29       1.0  0.68665  0.32393  0.17394  1.0000
  H   H30       1.0  0.31335  0.67607  0.82606  1.0000
  H   H31       1.0  0.49981  0.26211  0.23121  1.0000
  H   H32       1.0  0.50019  0.73790  0.76879  1.0000
  H   H33       1.0  0.56213  0.37030  0.01833  1.0000
  H   H34       1.0  0.43788  0.62970  0.98167  1.0000
  H   H35       1.0  0.42489  0.48283  0.09777  1.0000
  H   H36       1.0  0.57511  0.51717  0.90223  1.0000
  H   H37       1.0  0.34790  0.37368  0.89807  1.0000
  H   H38       1.0  0.65209  0.62632  0.10192  1.0000
  H   H39       1.0  0.19903  0.48526  0.97492  1.0000
  H   H40       1.0  0.80097  0.51474  0.02508  1.0000
  H   H41       1.0  0.12472  0.35526  0.95468  1.0000
  H   H42       1.0  0.87528  0.64475  0.04532  1.0000
  H   H43       1.0  0.02579  0.33283  0.16850  1.0000
  H   H44       1.0  0.97422  0.66718  0.83150  1.0000
  H   H45       1.0  0.10466  0.46462  0.17845  1.0000
  H   H46       1.0  0.89535  0.53538  0.82154  1.0000
  H   H47       1.0  0.17903  0.33887  0.25664  1.0000
  H   H48       1.0  0.82097  0.66114  0.74336  1.0000
  C   C1        1.0  0.34603  0.20809  0.07055  1.0000
  C   C2        1.0  0.65398  0.79191  0.92945  1.0000
  C   C3        1.0  0.75821  0.65861  0.49324  1.0000
  C   C4        1.0  0.24179  0.34139  0.50676  1.0000
  C   C5        1.0  0.50316  0.42786  0.29200  1.0000
  C   C6        1.0  0.49684  0.57214  0.70800  1.0000
  C   C7        1.0  0.86390  0.94458  0.39424  1.0000
  C   C8        1.0  0.13609  0.05542  0.60576  1.0000
  C   C9        1.0  0.01839  0.76167  0.47981  1.0000
  C   C10       1.0  0.98161  0.23833  0.52019  1.0000
  C   C11       1.0  0.89602  0.87630  0.48952  1.0000
  C   C12       1.0  0.10398  0.12370  0.51048  1.0000
  C   C13       1.0  0.74980  0.93045  0.15031  1.0000
  C   C14       1.0  0.25020  0.06955  0.84969  1.0000
  C   C15       1.0  0.79969  0.09431  0.06537  1.0000
  C   C16       1.0  0.20032  0.90569  0.93463  1.0000
  C   C17       1.0  0.91837  0.06703  0.13634  1.0000
  C   C18       1.0  0.08164  0.93296  0.86366  1.0000
  C   C19       1.0  0.86793  0.52044  0.37767  1.0000
  C   C20       1.0  0.13207  0.47956  0.62234  1.0000
  C   C21       1.0  0.74427  0.04811  0.40710  1.0000
  C   C22       1.0  0.25572  0.95189  0.59289  1.0000
  C   C23       1.0  0.00052  0.58457  0.37625  1.0000
  C   C24       1.0  0.99948  0.41543  0.62375  1.0000
  C   C25       1.0  0.96263  0.90477  0.28043  1.0000
  C   C26       1.0  0.03737  0.09522  0.71958  1.0000
  C   C27       1.0  0.29526  0.33980  0.07894  1.0000
  C   C28       1.0  0.70474  0.66020  0.92106  1.0000
  C   C29       1.0  0.80643  0.91227  0.59486  1.0000
  C   C30       1.0  0.19357  0.08773  0.40514  1.0000
  C   C31       1.0  0.68572  0.01505  0.60684  1.0000
  C   C32       1.0  0.31427  0.98495  0.39316  1.0000
  C   C33       1.0  0.65558  0.08339  0.51272  1.0000
  C   C34       1.0  0.34441  0.91661  0.48729  1.0000
  C   C35       1.0  0.54119  0.34438  0.19665  1.0000
  C   C36       1.0  0.45881  0.65562  0.80335  1.0000
  C   C37       1.0  0.46131  0.38862  0.09393  1.0000
  C   C38       1.0  0.53869  0.61138  0.90607  1.0000
  C   C39       1.0  0.23918  0.39123  0.96975  1.0000
  C   C40       1.0  0.76083  0.60877  0.03024  1.0000
  C   C41       1.0  0.14240  0.37040  0.17654  1.0000
  C   C42       1.0  0.85760  0.62961  0.82346  1.0000
  N   N1        1.0  0.71860  0.56698  0.45122  1.0000
  N   N2        1.0  0.28140  0.43302  0.54878  1.0000
  N   N3        1.0  0.69629  0.00849  0.07502  1.0000
  N   N4        1.0  0.30371  0.99151  0.92498  1.0000
  N   N5        1.0  0.88466  0.96312  0.18913  1.0000
  N   N6        1.0  0.11534  0.03688  0.81087  1.0000
  N   N7        1.0  0.92783  0.67179  0.44959  1.0000
  N   N8        1.0  0.07217  0.32821  0.55042  1.0000
  O   O1        1.0  0.45827  0.17290  0.98207  1.0000
  O   O2        1.0  0.54173  0.82710  0.01793  1.0000
  O   O3        1.0  0.57501  0.38670  0.37712  1.0000
  O   O4        1.0  0.42498  0.61331  0.62287  1.0000
  O   O5        1.0  0.28307  0.14059  0.14624  1.0000
  O   O6        1.0  0.71695  0.85941  0.85376  1.0000
  O   O7        1.0  0.41247  0.52596  0.28705  1.0000
  O   O8        1.0  0.58752  0.47404  0.71294  1.0000
