data_image0
_chemical_formula_structural       Co2H14C14N2O12
_chemical_formula_sum              "Co2 H14 C14 N2 O12"
_cell_length_a       7.07837
_cell_length_b       7.24763
_cell_length_c       9.76791
_cell_angle_alpha    89.0464
_cell_angle_beta     71.3262
_cell_angle_gamma    66.3131

_space_group_name_H-M_alt    "P 1"
_space_group_IT_number       1

loop_
  _space_group_symop_operation_xyz
  'x, y, z'

loop_
  _atom_site_type_symbol
  _atom_site_label
  _atom_site_symmetry_multiplicity
  _atom_site_fract_x
  _atom_site_fract_y
  _atom_site_fract_z
  _atom_site_occupancy
  Co  Co1       1.0  0.00000  0.50000  0.50000  1.0000
  Co  Co2       1.0  0.50000  0.50000  0.00000  1.0000
  H   H1        1.0  0.09824  0.66513  0.02292  1.0000
  H   H2        1.0  0.90176  0.33487  0.97708  1.0000
  H   H3        1.0  0.21808  0.47184  0.90497  1.0000
  H   H4        1.0  0.78192  0.52815  0.09503  1.0000
  H   H5        1.0  0.30711  0.27926  0.09363  1.0000
  H   H6        1.0  0.69289  0.72074  0.90637  1.0000
  H   H7        1.0  0.36428  0.37051  0.21635  1.0000
  H   H8        1.0  0.63571  0.62949  0.78365  1.0000
  H   H9        1.0  0.29164  0.91492  0.76146  1.0000
  H   H10       1.0  0.70836  0.08508  0.23854  1.0000
  H   H11       1.0  0.35125  0.63689  0.57953  1.0000
  H   H12       1.0  0.64873  0.36311  0.42047  1.0000
  H   H13       1.0  0.19303  0.08677  0.29152  1.0000
  H   H14       1.0  0.80697  0.91323  0.70849  1.0000
  C   C1        1.0  0.20160  0.14448  0.62322  1.0000
  C   C2        1.0  0.79840  0.85552  0.37679  1.0000
  C   C3        1.0  0.27114  0.94575  0.65632  1.0000
  C   C4        1.0  0.72886  0.05425  0.34368  1.0000
  C   C5        1.0  0.30727  0.79210  0.55460  1.0000
  C   C6        1.0  0.69272  0.20789  0.44541  1.0000
  C   C7        1.0  0.28243  0.84111  0.42029  1.0000
  C   C8        1.0  0.71756  0.15888  0.57972  1.0000
  C   C9        1.0  0.21746  0.04401  0.39401  1.0000
  C   C10       1.0  0.78253  0.95600  0.60599  1.0000
  C   C11       1.0  0.14847  0.32136  0.72831  1.0000
  C   C12       1.0  0.85154  0.67864  0.27168  1.0000
  C   C13       1.0  0.31068  0.68384  0.30966  1.0000
  C   C14       1.0  0.68932  0.31616  0.69033  1.0000
  N   N1        1.0  0.17137  0.19376  0.49463  1.0000
  N   N2        1.0  0.82863  0.80624  0.50537  1.0000
  O   O1        1.0  0.17453  0.28770  0.85095  1.0000
  O   O2        1.0  0.82548  0.71231  0.14905  1.0000
  O   O3        1.0  0.07817  0.49760  0.68820  1.0000
  O   O4        1.0  0.92183  0.50240  0.31180  1.0000
  O   O5        1.0  0.30021  0.51839  0.35476  1.0000
  O   O6        1.0  0.69979  0.48161  0.64524  1.0000
  O   O7        1.0  0.34234  0.72137  0.17901  1.0000
  O   O8        1.0  0.65767  0.27863  0.82099  1.0000
  O   O9        1.0  0.23965  0.58895  0.94347  1.0000
  O   O10       1.0  0.76035  0.41105  0.05653  1.0000
  O   O11       1.0  0.42695  0.29631  0.11251  1.0000
  O   O12       1.0  0.57305  0.70369  0.88749  1.0000
