data_image0
_chemical_formula_structural       Ba2H24C16O16
_chemical_formula_sum              "Ba2 H24 C16 O16"
_cell_length_a       6.95061
_cell_length_b       7.5762
_cell_length_c       12.1729
_cell_angle_alpha    106.712
_cell_angle_beta     105.113
_cell_angle_gamma    94.5705

_space_group_name_H-M_alt    "P 1"
_space_group_IT_number       1

loop_
  _space_group_symop_operation_xyz
  'x, y, z'

loop_
  _atom_site_type_symbol
  _atom_site_label
  _atom_site_symmetry_multiplicity
  _atom_site_fract_x
  _atom_site_fract_y
  _atom_site_fract_z
  _atom_site_occupancy
  Ba  Ba1       1.0  0.79094  0.04078  0.08178  1.0000
  Ba  Ba2       1.0  0.20906  0.95921  0.91822  1.0000
  H   H1        1.0  0.08089  0.67394  0.07239  1.0000
  H   H2        1.0  0.50904  0.60216  0.92785  1.0000
  H   H3        1.0  0.91910  0.32606  0.92761  1.0000
  H   H4        1.0  0.49095  0.39783  0.07215  1.0000
  H   H5        1.0  0.92162  0.61750  0.94259  1.0000
  H   H6        1.0  0.47908  0.67482  0.05757  1.0000
  H   H7        1.0  0.07838  0.38250  0.05741  1.0000
  H   H8        1.0  0.52091  0.32518  0.94243  1.0000
  H   H9        1.0  0.99306  0.47789  0.24432  1.0000
  H   H10       1.0  0.24913  0.23464  0.75569  1.0000
  H   H11       1.0  0.00693  0.52209  0.75568  1.0000
  H   H12       1.0  0.75087  0.76536  0.24431  1.0000
  H   H13       1.0  0.76341  0.46900  0.23830  1.0000
  H   H14       1.0  0.02559  0.23208  0.76179  1.0000
  H   H15       1.0  0.23658  0.53100  0.76169  1.0000
  H   H16       1.0  0.97441  0.76792  0.23821  1.0000
  H   H17       1.0  0.84286  0.71181  0.62391  1.0000
  H   H18       1.0  0.71931  0.08749  0.37633  1.0000
  H   H19       1.0  0.15713  0.28821  0.37609  1.0000
  H   H20       1.0  0.28069  0.91251  0.62366  1.0000
  H   H21       1.0  0.73314  0.59974  0.40272  1.0000
  H   H22       1.0  0.83106  0.19757  0.59753  1.0000
  H   H23       1.0  0.26687  0.40026  0.59729  1.0000
  H   H24       1.0  0.16895  0.80243  0.40247  1.0000
  C   C1        1.0  0.63657  0.88678  0.77325  1.0000
  C   C2        1.0  0.36343  0.11324  0.22675  1.0000
  C   C3        1.0  0.56898  0.81930  0.63826  1.0000
  C   C4        1.0  0.43105  0.18072  0.36176  1.0000
  C   C5        1.0  0.69579  0.73216  0.57478  1.0000
  C   C6        1.0  0.62139  0.15717  0.42533  1.0000
  C   C7        1.0  0.30423  0.26786  0.42522  1.0000
  C   C8        1.0  0.37861  0.84284  0.57467  1.0000
  C   C9        1.0  0.63360  0.67005  0.44995  1.0000
  C   C10       1.0  0.68412  0.22038  0.55017  1.0000
  C   C11       1.0  0.36640  0.32996  0.55005  1.0000
  C   C12       1.0  0.31589  0.77962  0.44982  1.0000
  C   C13       1.0  0.44275  0.69279  0.38585  1.0000
  C   C14       1.0  0.55723  0.30722  0.61415  1.0000
  C   C15       1.0  0.37555  0.62532  0.25174  1.0000
  C   C16       1.0  0.62446  0.37468  0.74826  1.0000
  O   O1        1.0  0.81079  0.86403  0.82821  1.0000
  O   O2        1.0  0.48255  0.03562  0.17172  1.0000
  O   O3        1.0  0.18922  0.13597  0.17178  1.0000
  O   O4        1.0  0.51746  0.96439  0.82828  1.0000
  O   O5        1.0  0.50952  0.59408  0.19616  1.0000
  O   O6        1.0  0.81407  0.39929  0.80380  1.0000
  O   O7        1.0  0.49050  0.40591  0.80383  1.0000
  O   O8        1.0  0.18593  0.60069  0.19621  1.0000
  O   O9        1.0  0.00303  0.72483  0.01140  1.0000
  O   O10       1.0  0.49177  0.71369  0.98885  1.0000
  O   O11       1.0  0.99696  0.27516  0.98861  1.0000
  O   O12       1.0  0.50822  0.28631  0.01115  1.0000
  O   O13       1.0  0.87825  0.40300  0.25280  1.0000
  O   O14       1.0  0.12578  0.15145  0.74728  1.0000
  O   O15       1.0  0.12174  0.59699  0.74719  1.0000
  O   O16       1.0  0.87422  0.84854  0.25272  1.0000
