data_image0
_chemical_formula_structural       Cd2H34C36N10O14
_chemical_formula_sum              "Cd2 H34 C36 N10 O14"
_cell_length_a       9.44824
_cell_length_b       10.6804
_cell_length_c       10.6522
_cell_angle_alpha    106.857
_cell_angle_beta     104.247
_cell_angle_gamma    95.4957

_space_group_name_H-M_alt    "P 1"
_space_group_IT_number       1

loop_
  _space_group_symop_operation_xyz
  'x, y, z'

loop_
  _atom_site_type_symbol
  _atom_site_label
  _atom_site_symmetry_multiplicity
  _atom_site_fract_x
  _atom_site_fract_y
  _atom_site_fract_z
  _atom_site_occupancy
  Cd  Cd1       1.0  0.56139  0.96588  0.19375  1.0000
  Cd  Cd2       1.0  0.43860  0.03412  0.80625  1.0000
  H   H1        1.0  0.89650  0.93727  0.20399  1.0000
  H   H2        1.0  0.10351  0.06273  0.79601  1.0000
  H   H3        1.0  0.04490  0.76259  0.14098  1.0000
  H   H4        1.0  0.95511  0.23741  0.85903  1.0000
  H   H5        1.0  0.68473  0.03691  0.48922  1.0000
  H   H6        1.0  0.31527  0.96308  0.51077  1.0000
  H   H7        1.0  0.63190  0.49080  0.90463  1.0000
  H   H8        1.0  0.36810  0.50920  0.09538  1.0000
  H   H9        1.0  0.50025  0.67985  0.97760  1.0000
  H   H10       1.0  0.49975  0.32016  0.02240  1.0000
  H   H11       1.0  0.85268  0.40354  0.91488  1.0000
  H   H12       1.0  0.14732  0.59647  0.08512  1.0000
  H   H13       1.0  0.22814  0.99992  0.16666  1.0000
  H   H14       1.0  0.77185  0.00009  0.83335  1.0000
  H   H15       1.0  0.07763  0.17597  0.22219  1.0000
  H   H16       1.0  0.92237  0.82404  0.77782  1.0000
  H   H17       1.0  0.74651  0.90554  0.41798  1.0000
  H   H18       1.0  0.25350  0.09445  0.58202  1.0000
  H   H19       1.0  0.48735  0.46268  0.38818  1.0000
  H   H20       1.0  0.51266  0.53733  0.61182  1.0000
  H   H21       1.0  0.62151  0.27340  0.32914  1.0000
  H   H22       1.0  0.37849  0.72660  0.67086  1.0000
  H   H23       1.0  0.26796  0.54244  0.41028  1.0000
  H   H24       1.0  0.73203  0.45756  0.58971  1.0000
  H   H25       1.0  0.97317  0.34496  0.25977  1.0000
  H   H26       1.0  0.02684  0.65503  0.74022  1.0000
  H   H27       1.0  0.75208  0.43731  0.24650  1.0000
  H   H28       1.0  0.24792  0.56268  0.75349  1.0000
  H   H29       1.0  0.62470  0.63257  0.30417  1.0000
  H   H30       1.0  0.37531  0.36744  0.69583  1.0000
  H   H31       1.0  0.02684  0.88572  0.52393  1.0000
  H   H32       1.0  0.97317  0.11427  0.47607  1.0000
  H   H33       1.0  0.16850  0.70626  0.47575  1.0000
  H   H34       1.0  0.83150  0.29371  0.52424  1.0000
  C   C1        1.0  0.84266  0.83678  0.13769  1.0000
  C   C2        1.0  0.15734  0.16322  0.86232  1.0000
  C   C3        1.0  0.92440  0.73813  0.10247  1.0000
  C   C4        1.0  0.07560  0.26187  0.89754  1.0000
  C   C5        1.0  0.85051  0.60898  0.01849  1.0000
  C   C6        1.0  0.14949  0.39102  0.98152  1.0000
  C   C7        1.0  0.69454  0.58867  0.97148  1.0000
  C   C8        1.0  0.30545  0.41134  0.02853  1.0000
  C   C9        1.0  0.62099  0.69314  0.01103  1.0000
  C   C10       1.0  0.37901  0.30686  0.98898  1.0000
  C   C11       1.0  0.92585  0.49752  0.97990  1.0000
  C   C12       1.0  0.07414  0.50248  0.02011  1.0000
  C   C13       1.0  0.28086  0.10401  0.21669  1.0000
  C   C14       1.0  0.71914  0.89599  0.78332  1.0000
  C   C15       1.0  0.19798  0.20266  0.24811  1.0000
  C   C16       1.0  0.80202  0.79735  0.75189  1.0000
  C   C17       1.0  0.27070  0.33593  0.31391  1.0000
  C   C18       1.0  0.72931  0.66408  0.68609  1.0000
  C   C19       1.0  0.42607  0.36100  0.34137  1.0000
  C   C20       1.0  0.57394  0.63900  0.65864  1.0000
  C   C21       1.0  0.50099  0.25656  0.30756  1.0000
  C   C22       1.0  0.49901  0.74344  0.69245  1.0000
  C   C23       1.0  0.19504  0.44672  0.35331  1.0000
  C   C24       1.0  0.80496  0.55328  0.64668  1.0000
  C   C25       1.0  0.04628  0.43997  0.32012  1.0000
  C   C26       1.0  0.95372  0.56002  0.67987  1.0000
  C   C27       1.0  0.97244  0.55312  0.35660  1.0000
  C   C28       1.0  0.02755  0.44687  0.64338  1.0000
  C   C29       1.0  0.81667  0.53539  0.30976  1.0000
  C   C30       1.0  0.18332  0.46461  0.69023  1.0000
  C   C31       1.0  0.74514  0.64329  0.34142  1.0000
  C   C32       1.0  0.25486  0.35672  0.65859  1.0000
  C   C33       1.0  0.96777  0.78486  0.46367  1.0000
  C   C34       1.0  0.03224  0.21514  0.53633  1.0000
  C   C35       1.0  0.04793  0.68280  0.43674  1.0000
  C   C36       1.0  0.95207  0.31719  0.56325  1.0000
  N   N1        1.0  0.75508  0.15083  0.09659  1.0000
  N   N2        1.0  0.24492  0.84917  0.90340  1.0000
  N   N3        1.0  0.39835  0.78919  0.32094  1.0000
  N   N4        1.0  0.60164  0.21082  0.67906  1.0000
  N   N5        1.0  0.69284  0.81549  0.09378  1.0000
  N   N6        1.0  0.30716  0.18451  0.90623  1.0000
  N   N7        1.0  0.43039  0.12966  0.24686  1.0000
  N   N8        1.0  0.56961  0.87034  0.75315  1.0000
  N   N9        1.0  0.81882  0.76710  0.41668  1.0000
  N   N10       1.0  0.18119  0.23290  0.58332  1.0000
  O   O1        1.0  0.61581  0.10163  0.04046  1.0000
  O   O2        1.0  0.38419  0.89837  0.95954  1.0000
  O   O3        1.0  0.81191  0.14604  0.21600  1.0000
  O   O4        1.0  0.18809  0.85396  0.78399  1.0000
  O   O5        1.0  0.82937  0.20114  0.03566  1.0000
  O   O6        1.0  0.17063  0.79887  0.96434  1.0000
  O   O7        1.0  0.44531  0.75932  0.21445  1.0000
  O   O8        1.0  0.55469  0.24068  0.78555  1.0000
  O   O9        1.0  0.39666  0.70987  0.38719  1.0000
  O   O10       1.0  0.60333  0.29013  0.61281  1.0000
  O   O11       1.0  0.35520  0.89975  0.35602  1.0000
  O   O12       1.0  0.64480  0.10026  0.64398  1.0000
  O   O13       1.0  0.71673  0.99222  0.40783  1.0000
  O   O14       1.0  0.28327  0.00777  0.59216  1.0000
