data_image0
_chemical_formula_structural       Cd2B2H24C24Br2N16
_chemical_formula_sum              "Cd2 B2 H24 C24 Br2 N16"
_cell_length_a       5.99465
_cell_length_b       11.3071
_cell_length_c       11.307
_cell_angle_alpha    90.0005
_cell_angle_beta     89.9997
_cell_angle_gamma    89.9994

_space_group_name_H-M_alt    "P 1"
_space_group_IT_number       1

loop_
  _space_group_symop_operation_xyz
  'x, y, z'

loop_
  _atom_site_type_symbol
  _atom_site_label
  _atom_site_symmetry_multiplicity
  _atom_site_fract_x
  _atom_site_fract_y
  _atom_site_fract_z
  _atom_site_occupancy
  Cd  Cd1       1.0  0.30422  0.25000  0.24999  1.0000
  Cd  Cd2       1.0  0.69579  0.75000  0.75000  1.0000
  B   B1        1.0  0.00001  0.75000  0.25000  1.0000
  B   B2        1.0  0.99999  0.25000  0.75000  1.0000
  H   H1        1.0  0.36512  0.79406  0.08900  1.0000
  H   H2        1.0  0.36512  0.70593  0.41101  1.0000
  H   H3        1.0  0.36509  0.41100  0.79406  1.0000
  H   H4        1.0  0.36510  0.08900  0.70594  1.0000
  H   H5        1.0  0.63487  0.20594  0.91101  1.0000
  H   H6        1.0  0.63488  0.29407  0.58900  1.0000
  H   H7        1.0  0.63491  0.58900  0.20593  1.0000
  H   H8        1.0  0.63488  0.91100  0.29406  1.0000
  H   H9        1.0  0.52071  0.02621  0.09314  1.0000
  H   H10       1.0  0.52072  0.47379  0.40686  1.0000
  H   H11       1.0  0.52069  0.40686  0.02621  1.0000
  H   H12       1.0  0.52071  0.09315  0.47380  1.0000
  H   H13       1.0  0.47928  0.97379  0.90685  1.0000
  H   H14       1.0  0.47929  0.52622  0.59315  1.0000
  H   H15       1.0  0.47931  0.59315  0.97379  1.0000
  H   H16       1.0  0.47929  0.90684  0.52621  1.0000
  H   H17       1.0  0.01013  0.99186  0.34530  1.0000
  H   H18       1.0  0.01015  0.50815  0.15470  1.0000
  H   H19       1.0  0.01013  0.15470  0.99185  1.0000
  H   H20       1.0  0.01012  0.34530  0.50814  1.0000
  H   H21       1.0  0.98986  0.00815  0.65471  1.0000
  H   H22       1.0  0.98985  0.49185  0.84531  1.0000
  H   H23       1.0  0.98988  0.84530  0.00814  1.0000
  H   H24       1.0  0.98988  0.65471  0.49185  1.0000
  C   C1        1.0  0.31352  0.86944  0.14139  1.0000
  C   C2        1.0  0.31353  0.63055  0.35860  1.0000
  C   C3        1.0  0.31351  0.35860  0.86944  1.0000
  C   C4        1.0  0.31351  0.14141  0.63056  1.0000
  C   C5        1.0  0.68646  0.13056  0.85860  1.0000
  C   C6        1.0  0.68648  0.36945  0.64140  1.0000
  C   C7        1.0  0.68650  0.64140  0.13056  1.0000
  C   C8        1.0  0.68648  0.85859  0.36944  1.0000
  C   C9        1.0  0.38900  0.98417  0.14362  1.0000
  C   C10       1.0  0.38902  0.51582  0.35638  1.0000
  C   C11       1.0  0.38899  0.35637  0.98417  1.0000
  C   C12       1.0  0.38900  0.14363  0.51583  1.0000
  C   C13       1.0  0.61099  0.01583  0.85637  1.0000
  C   C14       1.0  0.61100  0.48418  0.64363  1.0000
  C   C15       1.0  0.61102  0.64363  0.01583  1.0000
  C   C16       1.0  0.61099  0.85637  0.48417  1.0000
  C   C17       1.0  0.12894  0.97000  0.27651  1.0000
  C   C18       1.0  0.12894  0.53001  0.22349  1.0000
  C   C19       1.0  0.12892  0.22349  0.96999  1.0000
  C   C20       1.0  0.12892  0.27651  0.53000  1.0000
  C   C21       1.0  0.87106  0.03001  0.72349  1.0000
  C   C22       1.0  0.87105  0.46999  0.77652  1.0000
  C   C23       1.0  0.87109  0.77651  0.03000  1.0000
  C   C24       1.0  0.87108  0.72349  0.46999  1.0000
  Br  Br1       1.0  0.76970  0.24999  0.25002  1.0000
  Br  Br2       1.0  0.23031  0.75000  0.75000  1.0000
  N   N1        1.0  0.14737  0.86047  0.22655  1.0000
  N   N2        1.0  0.14738  0.63953  0.27346  1.0000
  N   N3        1.0  0.14735  0.27346  0.86047  1.0000
  N   N4        1.0  0.14735  0.22655  0.63953  1.0000
  N   N5        1.0  0.85263  0.13953  0.77346  1.0000
  N   N6        1.0  0.85262  0.36047  0.72655  1.0000
  N   N7        1.0  0.85266  0.72655  0.13953  1.0000
  N   N8        1.0  0.85264  0.77345  0.36046  1.0000
  N   N9        1.0  0.27184  0.04601  0.22854  1.0000
  N   N10       1.0  0.27186  0.45398  0.27145  1.0000
  N   N11       1.0  0.27183  0.27146  0.04602  1.0000
  N   N12       1.0  0.27183  0.22854  0.45399  1.0000
  N   N13       1.0  0.72815  0.95399  0.77146  1.0000
  N   N14       1.0  0.72815  0.54602  0.72855  1.0000
  N   N15       1.0  0.72818  0.72854  0.95398  1.0000
  N   N16       1.0  0.72817  0.77146  0.54601  1.0000
