data_image0
_chemical_formula_structural       Zn2H32C44N12O4
_chemical_formula_sum              "Zn2 H32 C44 N12 O4"
_cell_length_a       8.24194
_cell_length_b       9.99023
_cell_length_c       12.4966
_cell_angle_alpha    78.0675
_cell_angle_beta     80.3493
_cell_angle_gamma    81.3749

_space_group_name_H-M_alt    "P 1"
_space_group_IT_number       1

loop_
  _space_group_symop_operation_xyz
  'x, y, z'

loop_
  _atom_site_type_symbol
  _atom_site_label
  _atom_site_symmetry_multiplicity
  _atom_site_fract_x
  _atom_site_fract_y
  _atom_site_fract_z
  _atom_site_occupancy
  Zn  Zn1       1.0  0.71195  0.75366  0.72856  1.0000
  Zn  Zn2       1.0  0.28806  0.24633  0.27144  1.0000
  H   H1        1.0  0.52369  0.05170  0.75679  1.0000
  H   H2        1.0  0.47631  0.94831  0.24320  1.0000
  H   H3        1.0  0.44839  0.77294  0.56437  1.0000
  H   H4        1.0  0.55163  0.22704  0.43563  1.0000
  H   H5        1.0  0.26646  0.89450  0.41083  1.0000
  H   H6        1.0  0.73354  0.10548  0.58916  1.0000
  H   H7        1.0  0.98843  0.07669  0.67773  1.0000
  H   H8        1.0  0.01158  0.92331  0.32226  1.0000
  H   H9        1.0  0.79572  0.73075  0.46650  1.0000
  H   H10       1.0  0.20428  0.26925  0.53350  1.0000
  H   H11       1.0  0.09148  0.61651  0.72438  1.0000
  H   H12       1.0  0.90854  0.38347  0.27562  1.0000
  H   H13       1.0  0.34466  0.43069  0.68702  1.0000
  H   H14       1.0  0.65535  0.56930  0.31298  1.0000
  H   H15       1.0  0.36176  0.65537  0.35128  1.0000
  H   H16       1.0  0.63824  0.34461  0.64873  1.0000
  H   H17       1.0  0.72016  0.39712  0.83990  1.0000
  H   H18       1.0  0.27983  0.60288  0.16010  1.0000
  H   H19       1.0  0.35675  0.74312  0.82443  1.0000
  H   H20       1.0  0.64325  0.25689  0.17557  1.0000
  H   H21       1.0  0.13727  0.70144  0.00917  1.0000
  H   H22       1.0  0.86271  0.29858  0.99084  1.0000
  H   H23       1.0  0.14957  0.31847  0.89830  1.0000
  H   H24       1.0  0.85042  0.68154  0.10170  1.0000
  H   H25       1.0  0.08669  0.93068  0.81724  1.0000
  H   H26       1.0  0.91332  0.06932  0.18276  1.0000
  H   H27       1.0  0.72390  0.95459  0.10541  1.0000
  H   H28       1.0  0.27609  0.04542  0.89458  1.0000
  H   H29       1.0  0.08090  0.63482  0.38524  1.0000
  H   H30       1.0  0.91909  0.36518  0.61477  1.0000
  H   H31       1.0  0.44011  0.31325  0.94392  1.0000
  H   H32       1.0  0.55987  0.68677  0.05609  1.0000
  C   C1        1.0  0.46565  0.00671  0.70279  1.0000
  C   C2        1.0  0.53435  0.99329  0.29721  1.0000
  C   C3        1.0  0.42645  0.86239  0.60376  1.0000
  C   C4        1.0  0.57357  0.13760  0.39624  1.0000
  C   C5        1.0  0.29451  0.96704  0.60338  1.0000
  C   C6        1.0  0.70550  0.03295  0.39661  1.0000
  C   C7        1.0  0.14563  0.98301  0.55099  1.0000
  C   C8        1.0  0.85437  0.01698  0.44899  1.0000
  C   C9        1.0  0.14875  0.93888  0.45083  1.0000
  C   C10       1.0  0.85125  0.06111  0.54916  1.0000
  C   C11       1.0  0.99335  0.04415  0.59906  1.0000
  C   C12       1.0  0.00667  0.95584  0.40093  1.0000
  C   C13       1.0  0.89837  0.68843  0.51271  1.0000
  C   C14       1.0  0.10164  0.31156  0.48730  1.0000
  C   C15       1.0  0.05698  0.62666  0.64281  1.0000
  C   C16       1.0  0.94302  0.37333  0.35719  1.0000
  C   C17       1.0  0.15524  0.60154  0.54607  1.0000
  C   C18       1.0  0.84476  0.39845  0.45394  1.0000
  C   C19       1.0  0.32955  0.54942  0.52227  1.0000
  C   C20       1.0  0.67045  0.45058  0.47773  1.0000
  C   C21       1.0  0.41255  0.46289  0.60527  1.0000
  C   C22       1.0  0.58746  0.53710  0.39474  1.0000
  C   C23       1.0  0.42050  0.58518  0.41670  1.0000
  C   C24       1.0  0.57950  0.41480  0.58329  1.0000
  C   C25       1.0  0.60153  0.46042  0.84766  1.0000
  C   C26       1.0  0.39846  0.53958  0.15235  1.0000
  C   C27       1.0  0.41043  0.63666  0.84423  1.0000
  C   C28       1.0  0.58956  0.36335  0.15577  1.0000
  C   C29       1.0  0.33476  0.52237  0.89827  1.0000
  C   C30       1.0  0.66523  0.47764  0.10173  1.0000
  C   C31       1.0  0.16399  0.51054  0.94876  1.0000
  C   C32       1.0  0.83600  0.48949  0.05125  1.0000
  C   C33       1.0  0.07724  0.61264  0.00586  1.0000
  C   C34       1.0  0.92276  0.38738  0.99415  1.0000
  C   C35       1.0  0.08430  0.39820  0.94274  1.0000
  C   C36       1.0  0.91569  0.60183  0.05726  1.0000
  C   C37       1.0  0.77965  0.86009  0.91201  1.0000
  C   C38       1.0  0.22035  0.13992  0.08797  1.0000
  C   C39       1.0  0.89226  0.93524  0.95615  1.0000
  C   C40       1.0  0.10774  0.06477  0.04384  1.0000
  C   C41       1.0  0.04872  0.96141  0.89723  1.0000
  C   C42       1.0  0.95128  0.03859  0.10276  1.0000
  C   C43       1.0  0.84481  0.97470  0.05932  1.0000
  C   C44       1.0  0.15518  0.02531  0.94067  1.0000
  N   N1        1.0  0.53492  0.88734  0.66788  1.0000
  N   N2        1.0  0.46508  0.11265  0.33212  1.0000
  N   N3        1.0  0.32144  0.05887  0.66641  1.0000
  N   N4        1.0  0.67856  0.94112  0.33358  1.0000
  N   N5        1.0  0.89862  0.67969  0.62068  1.0000
  N   N6        1.0  0.10138  0.32030  0.37933  1.0000
  N   N7        1.0  0.05040  0.64122  0.46616  1.0000
  N   N8        1.0  0.94960  0.35878  0.53385  1.0000
  N   N9        1.0  0.57618  0.59677  0.81279  1.0000
  N   N10       1.0  0.42381  0.40324  0.18721  1.0000
  N   N11       1.0  0.45816  0.41145  0.89882  1.0000
  N   N12       1.0  0.54183  0.58857  0.10118  1.0000
  O   O1        1.0  0.64300  0.83151  0.96750  1.0000
  O   O2        1.0  0.35700  0.16849  0.03249  1.0000
  O   O3        1.0  0.83839  0.82832  0.81660  1.0000
  O   O4        1.0  0.16161  0.17169  0.18339  1.0000
