data_image0
_chemical_formula_structural       Ca2H24C8N24O16
_chemical_formula_sum              "Ca2 H24 C8 N24 O16"
_cell_length_a       8.75783
_cell_length_b       8.75785
_cell_length_c       11.6033
_cell_angle_alpha    107.57
_cell_angle_beta     107.569
_cell_angle_gamma    101.362

_space_group_name_H-M_alt    "P 1"
_space_group_IT_number       1

loop_
  _space_group_symop_operation_xyz
  'x, y, z'

loop_
  _atom_site_type_symbol
  _atom_site_label
  _atom_site_symmetry_multiplicity
  _atom_site_fract_x
  _atom_site_fract_y
  _atom_site_fract_z
  _atom_site_occupancy
  Ca  Ca1       1.0  0.74338  0.25662  0.75000  1.0000
  Ca  Ca2       1.0  0.25662  0.74338  0.25000  1.0000
  H   H1        1.0  0.19285  0.30579  0.81076  1.0000
  H   H2        1.0  0.69421  0.80715  0.68924  1.0000
  H   H3        1.0  0.80715  0.69421  0.18924  1.0000
  H   H4        1.0  0.30579  0.19285  0.31076  1.0000
  H   H5        1.0  0.38234  0.30731  0.78941  1.0000
  H   H6        1.0  0.69269  0.61766  0.71059  1.0000
  H   H7        1.0  0.61766  0.69269  0.21059  1.0000
  H   H8        1.0  0.30731  0.38234  0.28941  1.0000
  H   H9        1.0  0.99744  0.10908  0.88920  1.0000
  H   H10       1.0  0.89091  0.00256  0.61080  1.0000
  H   H11       1.0  0.00257  0.89092  0.11080  1.0000
  H   H12       1.0  0.10909  0.99744  0.38920  1.0000
  H   H13       1.0  0.49223  0.37815  0.58248  1.0000
  H   H14       1.0  0.62185  0.50777  0.91752  1.0000
  H   H15       1.0  0.50777  0.62185  0.41752  1.0000
  H   H16       1.0  0.37815  0.49223  0.08248  1.0000
  H   H17       1.0  0.66855  0.42044  0.55388  1.0000
  H   H18       1.0  0.57956  0.33145  0.94612  1.0000
  H   H19       1.0  0.33145  0.57956  0.44612  1.0000
  H   H20       1.0  0.42044  0.66855  0.05388  1.0000
  H   H21       1.0  0.02565  0.29361  0.98487  1.0000
  H   H22       1.0  0.70639  0.97435  0.51513  1.0000
  H   H23       1.0  0.97435  0.70639  0.01513  1.0000
  H   H24       1.0  0.29361  0.02565  0.48487  1.0000
  C   C1        1.0  0.21904  0.37284  0.66256  1.0000
  C   C2        1.0  0.62716  0.78096  0.83743  1.0000
  C   C3        1.0  0.78096  0.62716  0.33744  1.0000
  C   C4        1.0  0.37284  0.21904  0.16257  1.0000
  C   C5        1.0  0.06797  0.47349  0.53164  1.0000
  C   C6        1.0  0.52651  0.93203  0.96836  1.0000
  C   C7        1.0  0.93203  0.52651  0.46835  1.0000
  C   C8        1.0  0.47349  0.06797  0.03165  1.0000
  N   N1        1.0  0.07618  0.42082  0.63392  1.0000
  N   N2        1.0  0.57918  0.92383  0.86608  1.0000
  N   N3        1.0  0.92383  0.57918  0.36608  1.0000
  N   N4        1.0  0.42082  0.07617  0.13392  1.0000
  N   N5        1.0  0.97179  0.41645  0.70153  1.0000
  N   N6        1.0  0.58355  0.02821  0.79847  1.0000
  N   N7        1.0  0.02821  0.58354  0.29847  1.0000
  N   N8        1.0  0.41645  0.97179  0.20153  1.0000
  N   N9        1.0  0.25925  0.30374  0.75194  1.0000
  N   N10       1.0  0.69626  0.74075  0.74806  1.0000
  N   N11       1.0  0.74075  0.69625  0.24806  1.0000
  N   N12       1.0  0.30374  0.25925  0.25194  1.0000
  N   N13       1.0  0.29648  0.39771  0.58362  1.0000
  N   N14       1.0  0.60230  0.70352  0.91638  1.0000
  N   N15       1.0  0.70352  0.60229  0.41637  1.0000
  N   N16       1.0  0.39770  0.29648  0.08362  1.0000
  N   N17       1.0  0.20132  0.46133  0.50255  1.0000
  N   N18       1.0  0.53868  0.79868  0.99745  1.0000
  N   N19       1.0  0.79868  0.53867  0.49745  1.0000
  N   N20       1.0  0.46132  0.20132  0.00255  1.0000
  N   N21       1.0  0.02040  0.56353  0.80425  1.0000
  N   N22       1.0  0.43647  0.97960  0.69575  1.0000
  N   N23       1.0  0.97960  0.43647  0.19575  1.0000
  N   N24       1.0  0.56353  0.02040  0.30425  1.0000
  O   O1        1.0  0.61080  0.37312  0.60360  1.0000
  O   O2        1.0  0.62688  0.38920  0.89641  1.0000
  O   O3        1.0  0.38920  0.62688  0.39640  1.0000
  O   O4        1.0  0.37312  0.61080  0.10360  1.0000
  O   O5        1.0  0.99434  0.22001  0.89084  1.0000
  O   O6        1.0  0.77999  0.00566  0.60915  1.0000
  O   O7        1.0  0.00566  0.77999  0.10916  1.0000
  O   O8        1.0  0.22001  0.99434  0.39085  1.0000
  O   O9        1.0  0.92750  0.55462  0.87164  1.0000
  O   O10       1.0  0.44538  0.07250  0.62837  1.0000
  O   O11       1.0  0.07250  0.44538  0.12836  1.0000
  O   O12       1.0  0.55462  0.92750  0.37163  1.0000
  O   O13       1.0  0.13597  0.69195  0.83251  1.0000
  O   O14       1.0  0.30805  0.86403  0.66749  1.0000
  O   O15       1.0  0.86403  0.30805  0.16749  1.0000
  O   O16       1.0  0.69195  0.13597  0.33251  1.0000
