data_image0
_chemical_formula_structural       Cs8H16C16N48O16
_chemical_formula_sum              "Cs8 H16 C16 N48 O16"
_cell_length_a       4.94515
_cell_length_b       15.3241
_cell_length_c       18.1181
_cell_angle_alpha    89.9999
_cell_angle_beta     90
_cell_angle_gamma    89.9996

_space_group_name_H-M_alt    "P 1"
_space_group_IT_number       1

loop_
  _space_group_symop_operation_xyz
  'x, y, z'

loop_
  _atom_site_type_symbol
  _atom_site_label
  _atom_site_symmetry_multiplicity
  _atom_site_fract_x
  _atom_site_fract_y
  _atom_site_fract_z
  _atom_site_occupancy
  Cs  Cs1       1.0  0.43797  0.68150  0.65761  1.0000
  Cs  Cs2       1.0  0.56202  0.31850  0.15761  1.0000
  Cs  Cs3       1.0  0.43799  0.81850  0.15761  1.0000
  Cs  Cs4       1.0  0.56202  0.18150  0.65761  1.0000
  Cs  Cs5       1.0  0.93794  0.93097  0.81624  1.0000
  Cs  Cs6       1.0  0.06204  0.06903  0.31623  1.0000
  Cs  Cs7       1.0  0.93792  0.56903  0.31623  1.0000
  Cs  Cs8       1.0  0.06205  0.43097  0.81623  1.0000
  H   H1        1.0  0.44913  0.75408  0.87751  1.0000
  H   H2        1.0  0.55086  0.24592  0.37751  1.0000
  H   H3        1.0  0.44912  0.74591  0.37751  1.0000
  H   H4        1.0  0.55087  0.25408  0.87751  1.0000
  H   H5        1.0  0.42640  0.84687  0.93290  1.0000
  H   H6        1.0  0.57359  0.15313  0.43291  1.0000
  H   H7        1.0  0.42641  0.65312  0.43291  1.0000
  H   H8        1.0  0.57359  0.34688  0.93290  1.0000
  H   H9        1.0  0.05691  0.39771  0.04100  1.0000
  H   H10       1.0  0.94309  0.60229  0.54100  1.0000
  H   H11       1.0  0.05692  0.10229  0.54100  1.0000
  H   H12       1.0  0.94309  0.89771  0.04100  1.0000
  H   H13       1.0  0.02219  0.49393  0.09297  1.0000
  H   H14       1.0  0.97782  0.50607  0.59297  1.0000
  H   H15       1.0  0.02219  0.00607  0.59297  1.0000
  H   H16       1.0  0.97782  0.99393  0.09297  1.0000
  C   C1        1.0  0.13566  0.75521  0.95030  1.0000
  C   C2        1.0  0.86434  0.24480  0.45030  1.0000
  C   C3        1.0  0.13565  0.74478  0.45030  1.0000
  C   C4        1.0  0.86435  0.25521  0.95030  1.0000
  C   C5        1.0  0.81842  0.66271  0.98448  1.0000
  C   C6        1.0  0.18158  0.33729  0.48448  1.0000
  C   C7        1.0  0.81842  0.83728  0.48449  1.0000
  C   C8        1.0  0.18159  0.16272  0.98448  1.0000
  C   C9        1.0  0.64761  0.58652  0.98604  1.0000
  C   C10       1.0  0.35239  0.41348  0.48604  1.0000
  C   C11       1.0  0.64761  0.91347  0.48604  1.0000
  C   C12       1.0  0.35239  0.08653  0.98604  1.0000
  C   C13       1.0  0.33730  0.49212  0.02109  1.0000
  C   C14       1.0  0.66271  0.50788  0.52109  1.0000
  C   C15       1.0  0.33731  0.00788  0.52110  1.0000
  C   C16       1.0  0.66271  0.99212  0.02109  1.0000
  N   N1        1.0  0.02319  0.78516  0.01229  1.0000
  N   N2        1.0  0.97680  0.21485  0.51229  1.0000
  N   N3        1.0  0.02320  0.71484  0.51230  1.0000
  N   N4        1.0  0.97680  0.28516  0.01229  1.0000
  N   N5        1.0  0.82403  0.72677  0.03338  1.0000
  N   N6        1.0  0.17597  0.27324  0.53338  1.0000
  N   N7        1.0  0.82403  0.77323  0.53339  1.0000
  N   N8        1.0  0.17597  0.22677  0.03339  1.0000
  N   N9        1.0  0.01211  0.67846  0.93047  1.0000
  N   N10       1.0  0.98790  0.32155  0.43046  1.0000
  N   N11       1.0  0.01209  0.82154  0.43047  1.0000
  N   N12       1.0  0.98792  0.17846  0.93047  1.0000
  N   N13       1.0  0.32994  0.79370  0.90932  1.0000
  N   N14       1.0  0.67006  0.20630  0.40932  1.0000
  N   N15       1.0  0.32992  0.70629  0.40932  1.0000
  N   N16       1.0  0.67007  0.29370  0.90932  1.0000
  N   N17       1.0  0.07321  0.63069  0.86734  1.0000
  N   N18       1.0  0.92679  0.36931  0.36735  1.0000
  N   N19       1.0  0.07321  0.86930  0.36735  1.0000
  N   N20       1.0  0.92681  0.13070  0.86735  1.0000
  N   N21       1.0  0.92050  0.65827  0.81111  1.0000
  N   N22       1.0  0.07950  0.34174  0.31111  1.0000
  N   N23       1.0  0.92051  0.84173  0.31111  1.0000
  N   N24       1.0  0.07951  0.15827  0.81111  1.0000
  N   N25       1.0  0.65275  0.52031  0.93913  1.0000
  N   N26       1.0  0.34726  0.47969  0.43913  1.0000
  N   N27       1.0  0.65276  0.97968  0.43914  1.0000
  N   N28       1.0  0.34725  0.02032  0.93914  1.0000
  N   N29       1.0  0.45861  0.46037  0.96094  1.0000
  N   N30       1.0  0.54139  0.53963  0.46094  1.0000
  N   N31       1.0  0.45863  0.03963  0.46095  1.0000
  N   N32       1.0  0.54138  0.96037  0.96095  1.0000
  N   N33       1.0  0.44981  0.57123  0.03888  1.0000
  N   N34       1.0  0.55019  0.42877  0.53888  1.0000
  N   N35       1.0  0.44981  0.92877  0.53889  1.0000
  N   N36       1.0  0.55020  0.07123  0.03889  1.0000
  N   N37       1.0  0.14417  0.45384  0.06263  1.0000
  N   N38       1.0  0.85583  0.54616  0.56263  1.0000
  N   N39       1.0  0.14418  0.04617  0.56263  1.0000
  N   N40       1.0  0.85583  0.95384  0.06263  1.0000
  N   N41       1.0  0.37358  0.61986  0.10023  1.0000
  N   N42       1.0  0.62641  0.38014  0.60023  1.0000
  N   N43       1.0  0.37358  0.88014  0.60023  1.0000
  N   N44       1.0  0.62643  0.11987  0.10023  1.0000
  N   N45       1.0  0.50171  0.58939  0.15987  1.0000
  N   N46       1.0  0.49826  0.41061  0.65987  1.0000
  N   N47       1.0  0.50172  0.91060  0.65988  1.0000
  N   N48       1.0  0.49828  0.08940  0.15987  1.0000
  O   O1        1.0  0.75323  0.72109  0.81526  1.0000
  O   O2        1.0  0.24676  0.27892  0.31525  1.0000
  O   O3        1.0  0.75324  0.77891  0.31526  1.0000
  O   O4        1.0  0.24677  0.22109  0.81525  1.0000
  O   O5        1.0  0.95294  0.61715  0.75083  1.0000
  O   O6        1.0  0.04705  0.38285  0.25083  1.0000
  O   O7        1.0  0.95297  0.88284  0.25083  1.0000
  O   O8        1.0  0.04706  0.11715  0.75083  1.0000
  O   O9        1.0  0.67494  0.52809  0.15827  1.0000
  O   O10       1.0  0.32503  0.47190  0.65826  1.0000
  O   O11       1.0  0.67495  0.97190  0.65827  1.0000
  O   O12       1.0  0.32505  0.02810  0.15827  1.0000
  O   O13       1.0  0.43986  0.62666  0.22025  1.0000
  O   O14       1.0  0.56010  0.37334  0.72025  1.0000
  O   O15       1.0  0.43988  0.87333  0.72026  1.0000
  O   O16       1.0  0.56012  0.12667  0.22026  1.0000
