data_image0
_chemical_formula_structural       K4H8C8N24O8
_chemical_formula_sum              "K4 H8 C8 N24 O8"
_cell_length_a       4.88384
_cell_length_b       8.8636
_cell_length_c       14.4428
_cell_angle_alpha    105.532
_cell_angle_beta     89.9998
_cell_angle_gamma    90.0003

_space_group_name_H-M_alt    "P 1"
_space_group_IT_number       1

loop_
  _space_group_symop_operation_xyz
  'x, y, z'

loop_
  _atom_site_type_symbol
  _atom_site_label
  _atom_site_symmetry_multiplicity
  _atom_site_fract_x
  _atom_site_fract_y
  _atom_site_fract_z
  _atom_site_occupancy
  K   K1        1.0  0.21393  0.45320  0.61940  1.0000
  K   K2        1.0  0.71392  0.04678  0.88060  1.0000
  K   K3        1.0  0.78607  0.54680  0.38060  1.0000
  K   K4        1.0  0.28608  0.95322  0.11940  1.0000
  H   H1        1.0  0.70100  0.37549  0.74643  1.0000
  H   H2        1.0  0.20100  0.12451  0.75357  1.0000
  H   H3        1.0  0.29900  0.62451  0.25357  1.0000
  H   H4        1.0  0.79900  0.87549  0.24643  1.0000
  H   H5        1.0  0.69477  0.57266  0.81286  1.0000
  H   H6        1.0  0.19477  0.92734  0.68714  1.0000
  H   H7        1.0  0.30523  0.42734  0.18714  1.0000
  H   H8        1.0  0.80523  0.07266  0.31286  1.0000
  C   C1        1.0  0.09010  0.46331  0.96115  1.0000
  C   C2        1.0  0.59010  0.03669  0.53885  1.0000
  C   C3        1.0  0.90990  0.53669  0.03885  1.0000
  C   C4        1.0  0.40990  0.96331  0.46115  1.0000
  C   C5        1.0  0.40726  0.43329  0.84952  1.0000
  C   C6        1.0  0.90726  0.06671  0.65047  1.0000
  C   C7        1.0  0.59274  0.56671  0.15048  1.0000
  C   C8        1.0  0.09274  0.93329  0.34952  1.0000
  N   N1        1.0  0.33309  0.70390  0.94352  1.0000
  N   N2        1.0  0.83309  0.79610  0.55648  1.0000
  N   N3        1.0  0.66691  0.29611  0.05648  1.0000
  N   N4        1.0  0.16691  0.20389  0.44352  1.0000
  N   N5        1.0  0.27379  0.54482  0.91913  1.0000
  N   N6        1.0  0.77379  0.95518  0.58087  1.0000
  N   N7        1.0  0.72621  0.45517  0.08087  1.0000
  N   N8        1.0  0.22621  0.04482  0.41913  1.0000
  N   N9        1.0  0.18315  0.77605  0.89078  1.0000
  N   N10       1.0  0.68316  0.72395  0.60922  1.0000
  N   N11       1.0  0.81684  0.22395  0.10922  1.0000
  N   N12       1.0  0.31684  0.27605  0.39078  1.0000
  N   N13       1.0  0.11007  0.31186  0.91866  1.0000
  N   N14       1.0  0.61007  0.18814  0.58134  1.0000
  N   N15       1.0  0.88993  0.68814  0.08134  1.0000
  N   N16       1.0  0.38993  0.81186  0.41866  1.0000
  N   N17       1.0  0.31133  0.29166  0.84870  1.0000
  N   N18       1.0  0.81134  0.20834  0.65130  1.0000
  N   N19       1.0  0.68867  0.70835  0.15130  1.0000
  N   N20       1.0  0.18866  0.79166  0.34870  1.0000
  N   N21       1.0  0.59228  0.46879  0.78974  1.0000
  N   N22       1.0  0.09228  0.03121  0.71026  1.0000
  N   N23       1.0  0.40772  0.53121  0.21026  1.0000
  N   N24       1.0  0.90772  0.96879  0.28974  1.0000
  O   O1        1.0  0.01736  0.70852  0.82545  1.0000
  O   O2        1.0  0.51736  0.79148  0.67455  1.0000
  O   O3        1.0  0.98265  0.29148  0.17454  1.0000
  O   O4        1.0  0.48264  0.20852  0.32545  1.0000
  O   O5        1.0  0.21790  0.92383  0.91181  1.0000
  O   O6        1.0  0.71791  0.57618  0.58819  1.0000
  O   O7        1.0  0.78209  0.07618  0.08819  1.0000
  O   O8        1.0  0.28209  0.42382  0.41181  1.0000
