data_image0
_chemical_formula_structural       Sr2H28C8N24O18
_chemical_formula_sum              "Sr2 H28 C8 N24 O18"
_cell_length_a       6.51566
_cell_length_b       10.1801
_cell_length_c       13.0097
_cell_angle_alpha    90
_cell_angle_beta     89.9998
_cell_angle_gamma    106.25

_space_group_name_H-M_alt    "P 1"
_space_group_IT_number       1

loop_
  _space_group_symop_operation_xyz
  'x, y, z'

loop_
  _atom_site_type_symbol
  _atom_site_label
  _atom_site_symmetry_multiplicity
  _atom_site_fract_x
  _atom_site_fract_y
  _atom_site_fract_z
  _atom_site_occupancy
  Sr  Sr1       1.0  0.05983  0.64395  0.75000  1.0000
  Sr  Sr2       1.0  0.94017  0.35604  0.25000  1.0000
  H   H1        1.0  0.74752  0.34624  0.68913  1.0000
  H   H2        1.0  0.25247  0.65376  0.18913  1.0000
  H   H3        1.0  0.25247  0.65376  0.31087  1.0000
  H   H4        1.0  0.74752  0.34623  0.81087  1.0000
  H   H5        1.0  0.40210  0.92743  0.69131  1.0000
  H   H6        1.0  0.59789  0.07257  0.19131  1.0000
  H   H7        1.0  0.59790  0.07257  0.30869  1.0000
  H   H8        1.0  0.40210  0.92743  0.80869  1.0000
  H   H9        1.0  0.55881  0.78389  0.09055  1.0000
  H   H10       1.0  0.44119  0.21611  0.59055  1.0000
  H   H11       1.0  0.44119  0.21611  0.90945  1.0000
  H   H12       1.0  0.55881  0.78389  0.40945  1.0000
  H   H13       1.0  0.50210  0.62511  0.83843  1.0000
  H   H14       1.0  0.49790  0.37489  0.33843  1.0000
  H   H15       1.0  0.49790  0.37488  0.16157  1.0000
  H   H16       1.0  0.50210  0.62512  0.66157  1.0000
  H   H17       1.0  0.37149  0.69370  0.00779  1.0000
  H   H18       1.0  0.62851  0.30631  0.50779  1.0000
  H   H19       1.0  0.62850  0.30631  0.99221  1.0000
  H   H20       1.0  0.37150  0.69370  0.49221  1.0000
  H   H21       1.0  0.75818  0.81970  0.68917  1.0000
  H   H22       1.0  0.24181  0.18030  0.18917  1.0000
  H   H23       1.0  0.24182  0.18031  0.31082  1.0000
  H   H24       1.0  0.75818  0.81969  0.81083  1.0000
  H   H25       1.0  0.33399  0.50093  0.89204  1.0000
  H   H26       1.0  0.66602  0.49907  0.39204  1.0000
  H   H27       1.0  0.66600  0.49906  0.10796  1.0000
  H   H28       1.0  0.33400  0.50093  0.60796  1.0000
  C   C1        1.0  0.31580  0.86620  0.06373  1.0000
  C   C2        1.0  0.68420  0.13380  0.56373  1.0000
  C   C3        1.0  0.68419  0.13379  0.93627  1.0000
  C   C4        1.0  0.31581  0.86620  0.43627  1.0000
  C   C5        1.0  0.08878  0.98251  0.02334  1.0000
  C   C6        1.0  0.91121  0.01750  0.52334  1.0000
  C   C7        1.0  0.91120  0.01749  0.97667  1.0000
  C   C8        1.0  0.08879  0.98251  0.47666  1.0000
  N   N1        1.0  0.37845  0.98662  0.11074  1.0000
  N   N2        1.0  0.62154  0.01339  0.61073  1.0000
  N   N3        1.0  0.62154  0.01338  0.88927  1.0000
  N   N4        1.0  0.37846  0.98662  0.38926  1.0000
  N   N5        1.0  0.23499  0.05909  0.08588  1.0000
  N   N6        1.0  0.76501  0.94091  0.58588  1.0000
  N   N7        1.0  0.76500  0.94091  0.91413  1.0000
  N   N8        1.0  0.23499  0.05909  0.41412  1.0000
  N   N9        1.0  0.13366  0.85888  0.00830  1.0000
  N   N10       1.0  0.86634  0.14112  0.50830  1.0000
  N   N11       1.0  0.86632  0.14112  0.99170  1.0000
  N   N12       1.0  0.13367  0.85889  0.49170  1.0000
  N   N13       1.0  0.40130  0.75877  0.07040  1.0000
  N   N14       1.0  0.59870  0.24124  0.57040  1.0000
  N   N15       1.0  0.59868  0.24124  0.92960  1.0000
  N   N16       1.0  0.40130  0.75877  0.42960  1.0000
  N   N17       1.0  0.04200  0.75446  0.94076  1.0000
  N   N18       1.0  0.95801  0.24554  0.44075  1.0000
  N   N19       1.0  0.95800  0.24554  0.05924  1.0000
  N   N20       1.0  0.04200  0.75446  0.55924  1.0000
  N   N21       1.0  0.87898  0.66093  0.98336  1.0000
  N   N22       1.0  0.12104  0.33907  0.48335  1.0000
  N   N23       1.0  0.12102  0.33907  0.01664  1.0000
  N   N24       1.0  0.87899  0.66093  0.51664  1.0000
  O   O1        1.0  0.80737  0.67198  0.07252  1.0000
  O   O2        1.0  0.19263  0.32802  0.57252  1.0000
  O   O3        1.0  0.19262  0.32801  0.92747  1.0000
  O   O4        1.0  0.80738  0.67198  0.42748  1.0000
  O   O5        1.0  0.79878  0.55900  0.92602  1.0000
  O   O6        1.0  0.20127  0.44099  0.42602  1.0000
  O   O7        1.0  0.20124  0.44100  0.07397  1.0000
  O   O8        1.0  0.79881  0.55899  0.57397  1.0000
  O   O9        1.0  0.30783  0.88600  0.75000  1.0000
  O   O10       1.0  0.69216  0.11400  0.25000  1.0000
  O   O11       1.0  0.74577  0.75777  0.75000  1.0000
  O   O12       1.0  0.25423  0.24223  0.25000  1.0000
  O   O13       1.0  0.36011  0.59745  0.87006  1.0000
  O   O14       1.0  0.63989  0.40254  0.37006  1.0000
  O   O15       1.0  0.63988  0.40254  0.12993  1.0000
  O   O16       1.0  0.36011  0.59746  0.62993  1.0000
  O   O17       1.0  0.82292  0.39409  0.75000  1.0000
  O   O18       1.0  0.17707  0.60591  0.25000  1.0000
