data_image0
_chemical_formula_structural       Rb4H8C8N24O8
_chemical_formula_sum              "Rb4 H8 C8 N24 O8"
_cell_length_a       5.07035
_cell_length_b       9.03047
_cell_length_c       14.5215
_cell_angle_alpha    106.832
_cell_angle_beta     89.9997
_cell_angle_gamma    89.9999

_space_group_name_H-M_alt    "P 1"
_space_group_IT_number       1

loop_
  _space_group_symop_operation_xyz
  'x, y, z'

loop_
  _atom_site_type_symbol
  _atom_site_label
  _atom_site_symmetry_multiplicity
  _atom_site_fract_x
  _atom_site_fract_y
  _atom_site_fract_z
  _atom_site_occupancy
  Rb  Rb1       1.0  0.70393  0.46747  0.12954  1.0000
  Rb  Rb2       1.0  0.20393  0.03254  0.37045  1.0000
  Rb  Rb3       1.0  0.29608  0.53254  0.87045  1.0000
  Rb  Rb4       1.0  0.79608  0.96746  0.62955  1.0000
  H   H1        1.0  0.19629  0.37262  0.25275  1.0000
  H   H2        1.0  0.69629  0.12738  0.24725  1.0000
  H   H3        1.0  0.80371  0.62738  0.74725  1.0000
  H   H4        1.0  0.30372  0.87262  0.75275  1.0000
  H   H5        1.0  0.19918  0.56482  0.32481  1.0000
  H   H6        1.0  0.69918  0.93518  0.17518  1.0000
  H   H7        1.0  0.80082  0.43518  0.67518  1.0000
  H   H8        1.0  0.30083  0.06482  0.82482  1.0000
  C   C1        1.0  0.90550  0.43106  0.35363  1.0000
  C   C2        1.0  0.40549  0.06894  0.14637  1.0000
  C   C3        1.0  0.09450  0.56894  0.64637  1.0000
  C   C4        1.0  0.59450  0.93106  0.85363  1.0000
  C   C5        1.0  0.58871  0.46331  0.46142  1.0000
  C   C6        1.0  0.08871  0.03669  0.03859  1.0000
  C   C7        1.0  0.41127  0.53669  0.53859  1.0000
  C   C8        1.0  0.91129  0.96332  0.96141  1.0000
  N   N1        1.0  0.77532  0.54220  0.42357  1.0000
  N   N2        1.0  0.27532  0.95780  0.07644  1.0000
  N   N3        1.0  0.22467  0.45780  0.57644  1.0000
  N   N4        1.0  0.72467  0.04220  0.92356  1.0000
  N   N5        1.0  0.68063  0.76629  0.39454  1.0000
  N   N6        1.0  0.18063  0.73371  0.10546  1.0000
  N   N7        1.0  0.31937  0.23371  0.60546  1.0000
  N   N8        1.0  0.81938  0.26629  0.89454  1.0000
  N   N9        1.0  0.80399  0.29231  0.34833  1.0000
  N   N10       1.0  0.30399  0.20769  0.15167  1.0000
  N   N11       1.0  0.19601  0.70770  0.65167  1.0000
  N   N12       1.0  0.69601  0.79230  0.84833  1.0000
  N   N13       1.0  0.09416  0.46512  0.29767  1.0000
  N   N14       1.0  0.59417  0.03488  0.20233  1.0000
  N   N15       1.0  0.90584  0.53488  0.70233  1.0000
  N   N16       1.0  0.40584  0.96512  0.79767  1.0000
  N   N17       1.0  0.60444  0.31376  0.41614  1.0000
  N   N18       1.0  0.10444  0.18624  0.08386  1.0000
  N   N19       1.0  0.39555  0.68624  0.58386  1.0000
  N   N20       1.0  0.89556  0.81377  0.91614  1.0000
  N   N21       1.0  0.82963  0.69949  0.44734  1.0000
  N   N22       1.0  0.32963  0.80050  0.05266  1.0000
  N   N23       1.0  0.17038  0.30051  0.55266  1.0000
  N   N24       1.0  0.67038  0.19949  0.94734  1.0000
  O   O1        1.0  0.51868  0.69454  0.33036  1.0000
  O   O2        1.0  0.01868  0.80546  0.16964  1.0000
  O   O3        1.0  0.48132  0.30546  0.66964  1.0000
  O   O4        1.0  0.98132  0.19454  0.83036  1.0000
  O   O5        1.0  0.71066  0.91167  0.41355  1.0000
  O   O6        1.0  0.21066  0.58833  0.08645  1.0000
  O   O7        1.0  0.28934  0.08833  0.58645  1.0000
  O   O8        1.0  0.78934  0.41167  0.91355  1.0000
