data_image0
_chemical_formula_structural       Tb4H36C48N4O28
_chemical_formula_sum              "Tb4 H36 C48 N4 O28"
_cell_length_a       8.48883
_cell_length_b       9.14906
_cell_length_c       15.4071
_cell_angle_alpha    90
_cell_angle_beta     89.9999
_cell_angle_gamma    102.752

_space_group_name_H-M_alt    "P 1"
_space_group_IT_number       1

loop_
  _space_group_symop_operation_xyz
  'x, y, z'

loop_
  _atom_site_type_symbol
  _atom_site_label
  _atom_site_symmetry_multiplicity
  _atom_site_fract_x
  _atom_site_fract_y
  _atom_site_fract_z
  _atom_site_occupancy
  Tb  Tb1       1.0  0.98823  0.89632  0.11305  1.0000
  Tb  Tb2       1.0  0.51177  0.10368  0.61304  1.0000
  Tb  Tb3       1.0  0.01177  0.10368  0.88696  1.0000
  Tb  Tb4       1.0  0.48823  0.89632  0.38695  1.0000
  H   H1        1.0  0.34266  0.37133  0.12415  1.0000
  H   H2        1.0  0.15733  0.62867  0.62415  1.0000
  H   H3        1.0  0.65733  0.62867  0.87585  1.0000
  H   H4        1.0  0.84266  0.37133  0.37585  1.0000
  H   H5        1.0  0.55024  0.15145  0.06030  1.0000
  H   H6        1.0  0.94976  0.84855  0.56030  1.0000
  H   H7        1.0  0.44976  0.84855  0.93970  1.0000
  H   H8        1.0  0.05024  0.15145  0.43970  1.0000
  H   H9        1.0  0.46769  0.12605  0.95435  1.0000
  H   H10       1.0  0.03231  0.87395  0.45435  1.0000
  H   H11       1.0  0.53232  0.87395  0.04565  1.0000
  H   H12       1.0  0.96769  0.12605  0.54565  1.0000
  H   H13       1.0  0.61620  0.35361  0.89104  1.0000
  H   H14       1.0  0.88380  0.64639  0.39104  1.0000
  H   H15       1.0  0.38380  0.64639  0.10896  1.0000
  H   H16       1.0  0.11620  0.35361  0.60896  1.0000
  H   H17       1.0  0.90401  0.51790  0.01777  1.0000
  H   H18       1.0  0.59599  0.48210  0.51777  1.0000
  H   H19       1.0  0.09599  0.48210  0.98223  1.0000
  H   H20       1.0  0.40401  0.51790  0.48223  1.0000
  H   H21       1.0  0.63528  0.44546  0.30092  1.0000
  H   H22       1.0  0.86472  0.55454  0.80092  1.0000
  H   H23       1.0  0.36472  0.55454  0.69908  1.0000
  H   H24       1.0  0.13528  0.44546  0.19908  1.0000
  H   H25       1.0  0.72757  0.22594  0.23262  1.0000
  H   H26       1.0  0.77243  0.77406  0.73262  1.0000
  H   H27       1.0  0.27243  0.77406  0.76738  1.0000
  H   H28       1.0  0.22757  0.22594  0.26738  1.0000
  H   H29       1.0  0.94942  0.01316  0.29593  1.0000
  H   H30       1.0  0.55058  0.98684  0.79593  1.0000
  H   H31       1.0  0.05058  0.98684  0.70407  1.0000
  H   H32       1.0  0.44942  0.01316  0.20407  1.0000
  H   H33       1.0  0.12050  0.96301  0.28599  1.0000
  H   H34       1.0  0.37950  0.03700  0.78599  1.0000
  H   H35       1.0  0.87950  0.03699  0.71401  1.0000
  H   H36       1.0  0.62050  0.96301  0.21401  1.0000
  C   C1        1.0  0.47449  0.34259  0.00815  1.0000
  C   C2        1.0  0.02551  0.65741  0.50815  1.0000
  C   C3        1.0  0.52551  0.65741  0.99185  1.0000
  C   C4        1.0  0.97448  0.34259  0.49185  1.0000
  C   C5        1.0  0.41153  0.42741  0.06925  1.0000
  C   C6        1.0  0.08847  0.57260  0.56925  1.0000
  C   C7        1.0  0.58847  0.57260  0.93075  1.0000
  C   C8        1.0  0.91153  0.42741  0.43075  1.0000
  C   C9        1.0  0.29384  0.09255  0.05522  1.0000
  C   C10       1.0  0.20616  0.90745  0.55522  1.0000
  C   C11       1.0  0.70616  0.90745  0.94478  1.0000
  C   C12       1.0  0.79384  0.09255  0.44478  1.0000
  C   C13       1.0  0.45427  0.17532  0.01829  1.0000
  C   C14       1.0  0.04573  0.82469  0.51829  1.0000
  C   C15       1.0  0.54573  0.82469  0.98171  1.0000
  C   C16       1.0  0.95427  0.17532  0.48171  1.0000
  C   C17       1.0  0.56402  0.41749  0.93875  1.0000
  C   C18       1.0  0.93598  0.58251  0.43875  1.0000
  C   C19       1.0  0.43598  0.58251  0.06125  1.0000
  C   C20       1.0  0.06402  0.41749  0.56125  1.0000
  C   C21       1.0  0.73710  0.59414  0.19802  1.0000
  C   C22       1.0  0.76290  0.40586  0.69802  1.0000
  C   C23       1.0  0.26290  0.40586  0.80198  1.0000
  C   C24       1.0  0.23710  0.59414  0.30198  1.0000
  C   C25       1.0  0.84993  0.49784  0.08164  1.0000
  C   C26       1.0  0.65007  0.50216  0.58164  1.0000
  C   C27       1.0  0.15007  0.50216  0.91836  1.0000
  C   C28       1.0  0.34993  0.49784  0.41836  1.0000
  C   C29       1.0  0.70034  0.45571  0.23957  1.0000
  C   C30       1.0  0.79967  0.54428  0.73957  1.0000
  C   C31       1.0  0.29967  0.54428  0.76043  1.0000
  C   C32       1.0  0.20033  0.45571  0.26043  1.0000
  C   C33       1.0  0.68991  0.73108  0.23351  1.0000
  C   C34       1.0  0.81008  0.26892  0.73351  1.0000
  C   C35       1.0  0.31008  0.26892  0.76649  1.0000
  C   C36       1.0  0.18991  0.73108  0.26649  1.0000
  C   C37       1.0  0.82248  0.35517  0.11931  1.0000
  C   C38       1.0  0.67752  0.64483  0.61931  1.0000
  C   C39       1.0  0.17752  0.64483  0.88069  1.0000
  C   C40       1.0  0.32247  0.35517  0.38069  1.0000
  C   C41       1.0  0.74981  0.33533  0.20125  1.0000
  C   C42       1.0  0.75019  0.66467  0.70125  1.0000
  C   C43       1.0  0.25019  0.66467  0.79875  1.0000
  C   C44       1.0  0.24981  0.33533  0.29875  1.0000
  C   C45       1.0  0.87498  0.22826  0.07355  1.0000
  C   C46       1.0  0.62502  0.77174  0.57355  1.0000
  C   C47       1.0  0.12502  0.77174  0.92645  1.0000
  C   C48       1.0  0.37498  0.22826  0.42645  1.0000
  N   N1        1.0  0.81580  0.61639  0.12151  1.0000
  N   N2        1.0  0.68420  0.38361  0.62151  1.0000
  N   N3        1.0  0.18420  0.38361  0.87849  1.0000
  N   N4        1.0  0.31580  0.61639  0.37849  1.0000
  O   O1        1.0  0.89189  0.11978  0.12099  1.0000
  O   O2        1.0  0.60811  0.88022  0.62099  1.0000
  O   O3        1.0  0.10811  0.88022  0.87901  1.0000
  O   O4        1.0  0.39189  0.11978  0.37901  1.0000
  O   O5        1.0  0.89861  0.24014  0.99190  1.0000
  O   O6        1.0  0.60139  0.75986  0.49190  1.0000
  O   O7        1.0  0.10139  0.75986  0.00809  1.0000
  O   O8        1.0  0.39862  0.24014  0.50809  1.0000
  O   O9        1.0  0.60507  0.72193  0.30112  1.0000
  O   O10       1.0  0.89493  0.27806  0.80112  1.0000
  O   O11       1.0  0.39493  0.27806  0.69888  1.0000
  O   O12       1.0  0.10507  0.72193  0.19888  1.0000
  O   O13       1.0  0.16236  0.09458  0.01457  1.0000
  O   O14       1.0  0.33764  0.90542  0.51457  1.0000
  O   O15       1.0  0.83764  0.90542  0.98543  1.0000
  O   O16       1.0  0.66236  0.09458  0.48543  1.0000
  O   O17       1.0  0.28776  0.01735  0.12498  1.0000
  O   O18       1.0  0.21224  0.98265  0.62498  1.0000
  O   O19       1.0  0.71224  0.98265  0.87502  1.0000
  O   O20       1.0  0.78776  0.01735  0.37502  1.0000
  O   O21       1.0  0.73923  0.85118  0.18901  1.0000
  O   O22       1.0  0.76077  0.14881  0.68901  1.0000
  O   O23       1.0  0.26077  0.14882  0.81099  1.0000
  O   O24       1.0  0.23923  0.85119  0.31099  1.0000
  O   O25       1.0  0.03821  0.00753  0.25535  1.0000
  O   O26       1.0  0.46179  0.99247  0.75535  1.0000
  O   O27       1.0  0.96179  0.99247  0.74465  1.0000
  O   O28       1.0  0.53821  0.00753  0.24465  1.0000
