data_image0
_chemical_formula_structural       Sr4H16C24N8O20
_chemical_formula_sum              "Sr4 H16 C24 N8 O20"
_cell_length_a       6.56823
_cell_length_b       7.02136
_cell_length_c       15.9603
_cell_angle_alpha    90
_cell_angle_beta     89.9994
_cell_angle_gamma    93.9672

_space_group_name_H-M_alt    "P 1"
_space_group_IT_number       1

loop_
  _space_group_symop_operation_xyz
  'x, y, z'

loop_
  _atom_site_type_symbol
  _atom_site_label
  _atom_site_symmetry_multiplicity
  _atom_site_fract_x
  _atom_site_fract_y
  _atom_site_fract_z
  _atom_site_occupancy
  Sr  Sr1       1.0  0.74067  0.54205  0.41843  1.0000
  Sr  Sr2       1.0  0.25934  0.95796  0.91843  1.0000
  Sr  Sr3       1.0  0.25934  0.45795  0.58157  1.0000
  Sr  Sr4       1.0  0.74066  0.04204  0.08157  1.0000
  H   H1        1.0  0.60427  0.98034  0.39546  1.0000
  H   H2        1.0  0.39573  0.51968  0.89546  1.0000
  H   H3        1.0  0.39573  0.01967  0.60454  1.0000
  H   H4        1.0  0.60427  0.48032  0.10454  1.0000
  H   H5        1.0  0.29350  0.02833  0.43000  1.0000
  H   H6        1.0  0.70650  0.47167  0.93001  1.0000
  H   H7        1.0  0.70651  0.97167  0.57000  1.0000
  H   H8        1.0  0.29350  0.52832  0.06999  1.0000
  H   H9        1.0  0.24277  0.79176  0.46281  1.0000
  H   H10       1.0  0.75723  0.70825  0.96281  1.0000
  H   H11       1.0  0.75723  0.20824  0.53719  1.0000
  H   H12       1.0  0.24277  0.29175  0.03719  1.0000
  H   H13       1.0  0.44170  0.94516  0.24669  1.0000
  H   H14       1.0  0.55829  0.55484  0.74669  1.0000
  H   H15       1.0  0.55830  0.05484  0.75331  1.0000
  H   H16       1.0  0.44171  0.44516  0.25331  1.0000
  C   C1        1.0  0.31878  0.87941  0.41358  1.0000
  C   C2        1.0  0.68121  0.62059  0.91358  1.0000
  C   C3        1.0  0.68122  0.12059  0.58642  1.0000
  C   C4        1.0  0.31880  0.37941  0.08642  1.0000
  C   C5        1.0  0.19782  0.86700  0.10556  1.0000
  C   C6        1.0  0.80218  0.63300  0.60556  1.0000
  C   C7        1.0  0.80218  0.13301  0.89444  1.0000
  C   C8        1.0  0.19783  0.36700  0.39443  1.0000
  C   C9        1.0  0.15418  0.82514  0.19500  1.0000
  C   C10       1.0  0.84581  0.67485  0.69500  1.0000
  C   C11       1.0  0.84582  0.17486  0.80500  1.0000
  C   C12       1.0  0.15418  0.32515  0.30500  1.0000
  C   C13       1.0  0.98455  0.74352  0.23870  1.0000
  C   C14       1.0  0.01545  0.75647  0.73870  1.0000
  C   C15       1.0  0.01545  0.25648  0.76130  1.0000
  C   C16       1.0  0.98455  0.24353  0.26130  1.0000
  C   C17       1.0  0.78334  0.65453  0.21005  1.0000
  C   C18       1.0  0.21666  0.84545  0.71005  1.0000
  C   C19       1.0  0.21666  0.34547  0.78995  1.0000
  C   C20       1.0  0.78334  0.15455  0.28995  1.0000
  C   C21       1.0  0.21477  0.83065  0.33180  1.0000
  C   C22       1.0  0.78523  0.66935  0.83180  1.0000
  C   C23       1.0  0.78523  0.16935  0.66820  1.0000
  C   C24       1.0  0.21477  0.33065  0.16820  1.0000
  N   N1        1.0  0.29618  0.87700  0.25594  1.0000
  N   N2        1.0  0.70382  0.62299  0.75595  1.0000
  N   N3        1.0  0.70382  0.12300  0.74406  1.0000
  N   N4        1.0  0.29618  0.37700  0.24405  1.0000
  N   N5        1.0  0.02652  0.74711  0.32354  1.0000
  N   N6        1.0  0.97348  0.75289  0.82354  1.0000
  N   N7        1.0  0.97348  0.25289  0.67646  1.0000
  N   N8        1.0  0.02651  0.24710  0.17646  1.0000
  O   O1        1.0  0.37803  0.92928  0.08496  1.0000
  O   O2        1.0  0.62196  0.57071  0.58497  1.0000
  O   O3        1.0  0.62197  0.07073  0.91504  1.0000
  O   O4        1.0  0.37804  0.42928  0.41503  1.0000
  O   O5        1.0  0.53246  0.85458  0.41329  1.0000
  O   O6        1.0  0.46755  0.64543  0.91329  1.0000
  O   O7        1.0  0.46755  0.14542  0.58671  1.0000
  O   O8        1.0  0.53245  0.35457  0.08671  1.0000
  O   O9        1.0  0.68024  0.55640  0.26468  1.0000
  O   O10       1.0  0.31977  0.94359  0.76468  1.0000
  O   O11       1.0  0.31976  0.44360  0.73532  1.0000
  O   O12       1.0  0.68023  0.05641  0.23532  1.0000
  O   O13       1.0  0.05511  0.84454  0.05165  1.0000
  O   O14       1.0  0.94489  0.65545  0.55165  1.0000
  O   O15       1.0  0.94489  0.15546  0.94835  1.0000
  O   O16       1.0  0.05511  0.34455  0.44835  1.0000
  O   O17       1.0  0.72298  0.67756  0.13528  1.0000
  O   O18       1.0  0.27703  0.82243  0.63528  1.0000
  O   O19       1.0  0.27702  0.32244  0.86472  1.0000
  O   O20       1.0  0.72297  0.17757  0.36472  1.0000
