data_image0
_chemical_formula_structural       Cd8H16C16S8Br8N24
_chemical_formula_sum              "Cd8 H16 C16 S8 Br8 N24"
_cell_length_a       7.9756
_cell_length_b       10.8915
_cell_length_c       14.1768
_cell_angle_alpha    90
_cell_angle_beta     89.9999
_cell_angle_gamma    89.9999

_space_group_name_H-M_alt    "P 1"
_space_group_IT_number       1

loop_
  _space_group_symop_operation_xyz
  'x, y, z'

loop_
  _atom_site_type_symbol
  _atom_site_label
  _atom_site_symmetry_multiplicity
  _atom_site_fract_x
  _atom_site_fract_y
  _atom_site_fract_z
  _atom_site_occupancy
  Cd  Cd1       1.0  0.80913  0.31494  0.66261  1.0000
  Cd  Cd2       1.0  0.69087  0.18506  0.16261  1.0000
  Cd  Cd3       1.0  0.80913  0.68506  0.83739  1.0000
  Cd  Cd4       1.0  0.69087  0.81494  0.33739  1.0000
  Cd  Cd5       1.0  0.19087  0.68506  0.33739  1.0000
  Cd  Cd6       1.0  0.30913  0.81494  0.83739  1.0000
  Cd  Cd7       1.0  0.19087  0.31494  0.16261  1.0000
  Cd  Cd8       1.0  0.30913  0.18506  0.66261  1.0000
  H   H1        1.0  0.17369  0.51778  0.54405  1.0000
  H   H2        1.0  0.32631  0.98222  0.04405  1.0000
  H   H3        1.0  0.17369  0.48222  0.95595  1.0000
  H   H4        1.0  0.32631  0.01778  0.45595  1.0000
  H   H5        1.0  0.82631  0.48222  0.45595  1.0000
  H   H6        1.0  0.67368  0.01778  0.95595  1.0000
  H   H7        1.0  0.82631  0.51778  0.04405  1.0000
  H   H8        1.0  0.67369  0.98222  0.54405  1.0000
  H   H9        1.0  0.40580  0.62013  0.64656  1.0000
  H   H10       1.0  0.09420  0.87987  0.14656  1.0000
  H   H11       1.0  0.40580  0.37987  0.85344  1.0000
  H   H12       1.0  0.09420  0.12013  0.35344  1.0000
  H   H13       1.0  0.59420  0.37987  0.35344  1.0000
  H   H14       1.0  0.90580  0.12013  0.85344  1.0000
  H   H15       1.0  0.59420  0.62013  0.14656  1.0000
  H   H16       1.0  0.90580  0.87987  0.64656  1.0000
  C   C1        1.0  0.00156  0.58767  0.64729  1.0000
  C   C2        1.0  0.49844  0.91233  0.14729  1.0000
  C   C3        1.0  0.00156  0.41233  0.85271  1.0000
  C   C4        1.0  0.49844  0.08767  0.35271  1.0000
  C   C5        1.0  0.99844  0.41232  0.35271  1.0000
  C   C6        1.0  0.50156  0.08767  0.85271  1.0000
  C   C7        1.0  0.99844  0.58768  0.14729  1.0000
  C   C8        1.0  0.50156  0.91232  0.64729  1.0000
  C   C9        1.0  0.27216  0.62058  0.66093  1.0000
  C   C10       1.0  0.22784  0.87942  0.16093  1.0000
  C   C11       1.0  0.27216  0.37942  0.83907  1.0000
  C   C12       1.0  0.22784  0.12058  0.33907  1.0000
  C   C13       1.0  0.72784  0.37942  0.33907  1.0000
  C   C14       1.0  0.77216  0.12058  0.83907  1.0000
  C   C15       1.0  0.72784  0.62058  0.16093  1.0000
  C   C16       1.0  0.77216  0.87942  0.66093  1.0000
  S   S1        1.0  0.80747  0.54051  0.60937  1.0000
  S   S2        1.0  0.69252  0.95949  0.10937  1.0000
  S   S3        1.0  0.80748  0.45950  0.89063  1.0000
  S   S4        1.0  0.69253  0.04051  0.39063  1.0000
  S   S5        1.0  0.19253  0.45949  0.39063  1.0000
  S   S6        1.0  0.30747  0.04051  0.89063  1.0000
  S   S7        1.0  0.19253  0.54051  0.10937  1.0000
  S   S8        1.0  0.30747  0.95949  0.60937  1.0000
  Br  Br1       1.0  0.01021  0.18115  0.55464  1.0000
  Br  Br2       1.0  0.48978  0.31885  0.05464  1.0000
  Br  Br3       1.0  0.01022  0.81885  0.94536  1.0000
  Br  Br4       1.0  0.48979  0.68115  0.44537  1.0000
  Br  Br5       1.0  0.98978  0.81885  0.44536  1.0000
  Br  Br6       1.0  0.51021  0.68115  0.94536  1.0000
  Br  Br7       1.0  0.98978  0.18115  0.05464  1.0000
  Br  Br8       1.0  0.51021  0.31885  0.55464  1.0000
  N   N1        1.0  0.19724  0.67678  0.73205  1.0000
  N   N2        1.0  0.30276  0.82322  0.23205  1.0000
  N   N3        1.0  0.19724  0.32322  0.76795  1.0000
  N   N4        1.0  0.30276  0.17678  0.26795  1.0000
  N   N5        1.0  0.80276  0.32322  0.26795  1.0000
  N   N6        1.0  0.69724  0.17678  0.76795  1.0000
  N   N7        1.0  0.80276  0.67678  0.23205  1.0000
  N   N8        1.0  0.69724  0.82322  0.73205  1.0000
  N   N9        1.0  0.02782  0.65665  0.72391  1.0000
  N   N10       1.0  0.47218  0.84335  0.22391  1.0000
  N   N11       1.0  0.02782  0.34335  0.77609  1.0000
  N   N12       1.0  0.47218  0.15665  0.27609  1.0000
  N   N13       1.0  0.97218  0.34335  0.27609  1.0000
  N   N14       1.0  0.52782  0.15665  0.77609  1.0000
  N   N15       1.0  0.97218  0.65665  0.22391  1.0000
  N   N16       1.0  0.52782  0.84335  0.72391  1.0000
  N   N17       1.0  0.15490  0.56378  0.60728  1.0000
  N   N18       1.0  0.34510  0.93622  0.10728  1.0000
  N   N19       1.0  0.15490  0.43622  0.89272  1.0000
  N   N20       1.0  0.34510  0.06378  0.39272  1.0000
  N   N21       1.0  0.84510  0.43622  0.39272  1.0000
  N   N22       1.0  0.65490  0.06378  0.89272  1.0000
  N   N23       1.0  0.84510  0.56378  0.10728  1.0000
  N   N24       1.0  0.65490  0.93622  0.60728  1.0000
