data_image0
_chemical_formula_structural       Cd8H16C16S8I8N24
_chemical_formula_sum              "Cd8 H16 C16 S8 I8 N24"
_cell_length_a       8.28468
_cell_length_b       11.0895
_cell_length_c       14.3318
_cell_angle_alpha    90.0001
_cell_angle_beta     90
_cell_angle_gamma    89.9998

_space_group_name_H-M_alt    "P 1"
_space_group_IT_number       1

loop_
  _space_group_symop_operation_xyz
  'x, y, z'

loop_
  _atom_site_type_symbol
  _atom_site_label
  _atom_site_symmetry_multiplicity
  _atom_site_fract_x
  _atom_site_fract_y
  _atom_site_fract_z
  _atom_site_occupancy
  Cd  Cd1       1.0  0.80495  0.18162  0.67013  1.0000
  Cd  Cd2       1.0  0.69505  0.31838  0.17013  1.0000
  Cd  Cd3       1.0  0.80495  0.81837  0.82987  1.0000
  Cd  Cd4       1.0  0.69505  0.68163  0.32987  1.0000
  Cd  Cd5       1.0  0.19505  0.81838  0.32987  1.0000
  Cd  Cd6       1.0  0.30495  0.68162  0.82987  1.0000
  Cd  Cd7       1.0  0.19505  0.18162  0.17013  1.0000
  Cd  Cd8       1.0  0.30495  0.31838  0.67013  1.0000
  H   H1        1.0  0.16924  0.98311  0.54721  1.0000
  H   H2        1.0  0.33076  0.51689  0.04721  1.0000
  H   H3        1.0  0.16924  0.01688  0.95279  1.0000
  H   H4        1.0  0.33076  0.48311  0.45279  1.0000
  H   H5        1.0  0.83076  0.01689  0.45279  1.0000
  H   H6        1.0  0.66924  0.48311  0.95279  1.0000
  H   H7        1.0  0.83076  0.98311  0.04721  1.0000
  H   H8        1.0  0.66924  0.51688  0.54721  1.0000
  H   H9        1.0  0.38974  0.87513  0.64592  1.0000
  H   H10       1.0  0.11026  0.62488  0.14592  1.0000
  H   H11       1.0  0.38973  0.12488  0.85408  1.0000
  H   H12       1.0  0.11027  0.37513  0.35408  1.0000
  H   H13       1.0  0.61026  0.12488  0.35408  1.0000
  H   H14       1.0  0.88973  0.37513  0.85408  1.0000
  H   H15       1.0  0.61027  0.87512  0.14592  1.0000
  H   H16       1.0  0.88974  0.62487  0.64592  1.0000
  C   C1        1.0  0.00158  0.91244  0.64734  1.0000
  C   C2        1.0  0.49842  0.58755  0.14734  1.0000
  C   C3        1.0  0.00158  0.08755  0.85266  1.0000
  C   C4        1.0  0.49842  0.41245  0.35266  1.0000
  C   C5        1.0  0.99842  0.08756  0.35266  1.0000
  C   C6        1.0  0.50158  0.41245  0.85266  1.0000
  C   C7        1.0  0.99842  0.91244  0.14734  1.0000
  C   C8        1.0  0.50158  0.58755  0.64734  1.0000
  C   C9        1.0  0.26111  0.87597  0.65995  1.0000
  C   C10       1.0  0.23889  0.62403  0.15995  1.0000
  C   C11       1.0  0.26111  0.12403  0.84005  1.0000
  C   C12       1.0  0.23889  0.37597  0.34005  1.0000
  C   C13       1.0  0.73889  0.12403  0.34005  1.0000
  C   C14       1.0  0.76111  0.37597  0.84005  1.0000
  C   C15       1.0  0.73889  0.87597  0.15995  1.0000
  C   C16       1.0  0.76111  0.62403  0.65995  1.0000
  S   S1        1.0  0.81570  0.96203  0.61105  1.0000
  S   S2        1.0  0.68430  0.53797  0.11105  1.0000
  S   S3        1.0  0.81570  0.03797  0.88895  1.0000
  S   S4        1.0  0.68430  0.46203  0.38895  1.0000
  S   S5        1.0  0.18430  0.03797  0.38895  1.0000
  S   S6        1.0  0.31570  0.46203  0.88895  1.0000
  S   S7        1.0  0.18430  0.96203  0.11105  1.0000
  S   S8        1.0  0.31571  0.53797  0.61105  1.0000
  I   I1        1.0  0.99998  0.32825  0.55550  1.0000
  I   I2        1.0  0.50001  0.17175  0.05550  1.0000
  I   I3        1.0  0.99998  0.67175  0.94450  1.0000
  I   I4        1.0  0.50001  0.82825  0.44450  1.0000
  I   I5        1.0  0.00001  0.67175  0.44451  1.0000
  I   I6        1.0  0.49998  0.82825  0.94450  1.0000
  I   I7        1.0  0.00002  0.32825  0.05550  1.0000
  I   I8        1.0  0.49998  0.17175  0.55550  1.0000
  N   N1        1.0  0.02488  0.84030  0.72095  1.0000
  N   N2        1.0  0.47512  0.65970  0.22095  1.0000
  N   N3        1.0  0.02488  0.15970  0.77905  1.0000
  N   N4        1.0  0.47512  0.34030  0.27905  1.0000
  N   N5        1.0  0.97512  0.15970  0.27905  1.0000
  N   N6        1.0  0.52488  0.34030  0.77905  1.0000
  N   N7        1.0  0.97512  0.84030  0.22095  1.0000
  N   N8        1.0  0.52488  0.65970  0.72094  1.0000
  N   N9        1.0  0.18757  0.81781  0.72827  1.0000
  N   N10       1.0  0.31243  0.68219  0.22828  1.0000
  N   N11       1.0  0.18757  0.18219  0.77173  1.0000
  N   N12       1.0  0.31243  0.31781  0.27173  1.0000
  N   N13       1.0  0.81243  0.18219  0.27172  1.0000
  N   N14       1.0  0.68757  0.31781  0.77173  1.0000
  N   N15       1.0  0.81243  0.81781  0.22828  1.0000
  N   N16       1.0  0.68758  0.68218  0.72827  1.0000
  N   N17       1.0  0.14985  0.93608  0.60851  1.0000
  N   N18       1.0  0.35015  0.56393  0.10852  1.0000
  N   N19       1.0  0.14985  0.06392  0.89149  1.0000
  N   N20       1.0  0.35015  0.43608  0.39149  1.0000
  N   N21       1.0  0.85015  0.06393  0.39149  1.0000
  N   N22       1.0  0.64985  0.43608  0.89149  1.0000
  N   N23       1.0  0.85015  0.93608  0.10851  1.0000
  N   N24       1.0  0.64985  0.56392  0.60851  1.0000
