data_image0
_chemical_formula_structural       Cd8H16C16S12N24O16
_chemical_formula_sum              "Cd8 H16 C16 S12 N24 O16"
_cell_length_a       7.12904
_cell_length_b       12.4778
_cell_length_c       13.196
_cell_angle_alpha    90
_cell_angle_beta     101.61
_cell_angle_gamma    90

_space_group_name_H-M_alt    "P 1"
_space_group_IT_number       1

loop_
  _space_group_symop_operation_xyz
  'x, y, z'

loop_
  _atom_site_type_symbol
  _atom_site_label
  _atom_site_symmetry_multiplicity
  _atom_site_fract_x
  _atom_site_fract_y
  _atom_site_fract_z
  _atom_site_occupancy
  Cd  Cd1       1.0  0.21733  0.38645  0.48824  1.0000
  Cd  Cd2       1.0  0.28267  0.88645  0.01176  1.0000
  Cd  Cd3       1.0  0.78267  0.61355  0.51176  1.0000
  Cd  Cd4       1.0  0.71733  0.11354  0.98824  1.0000
  Cd  Cd5       1.0  0.37655  0.38552  0.80270  1.0000
  Cd  Cd6       1.0  0.12345  0.88552  0.69730  1.0000
  Cd  Cd7       1.0  0.62345  0.61448  0.19730  1.0000
  Cd  Cd8       1.0  0.87655  0.11448  0.30270  1.0000
  H   H1        1.0  0.99543  0.19852  0.62122  1.0000
  H   H2        1.0  0.50457  0.69851  0.87878  1.0000
  H   H3        1.0  0.00457  0.80149  0.37878  1.0000
  H   H4        1.0  0.49543  0.30148  0.12122  1.0000
  H   H5        1.0  0.66631  0.22658  0.66605  1.0000
  H   H6        1.0  0.83369  0.72658  0.83395  1.0000
  H   H7        1.0  0.33369  0.77342  0.33395  1.0000
  H   H8        1.0  0.16631  0.27342  0.16605  1.0000
  H   H9        1.0  0.45322  0.01376  0.35436  1.0000
  H   H10       1.0  0.04679  0.51375  0.14564  1.0000
  H   H11       1.0  0.54678  0.98624  0.64564  1.0000
  H   H12       1.0  0.95322  0.48624  0.85436  1.0000
  H   H13       1.0  0.63095  0.32878  0.38790  1.0000
  H   H14       1.0  0.86905  0.82877  0.11210  1.0000
  H   H15       1.0  0.36905  0.67123  0.61210  1.0000
  H   H16       1.0  0.13095  0.17123  0.88790  1.0000
  C   C1        1.0  0.91638  0.27337  0.61353  1.0000
  C   C2        1.0  0.58361  0.77337  0.88647  1.0000
  C   C3        1.0  0.08361  0.72663  0.38647  1.0000
  C   C4        1.0  0.41639  0.22663  0.11353  1.0000
  C   C5        1.0  0.69322  0.39317  0.61769  1.0000
  C   C6        1.0  0.80678  0.89317  0.88231  1.0000
  C   C7        1.0  0.30677  0.60683  0.38231  1.0000
  C   C8        1.0  0.19323  0.10682  0.11770  1.0000
  C   C9        1.0  0.32738  0.14747  0.41963  1.0000
  C   C10       1.0  0.17263  0.64747  0.08037  1.0000
  C   C11       1.0  0.67263  0.85253  0.58037  1.0000
  C   C12       1.0  0.82737  0.35253  0.91963  1.0000
  C   C13       1.0  0.54744  0.25687  0.39192  1.0000
  C   C14       1.0  0.95257  0.75686  0.10809  1.0000
  C   C15       1.0  0.45256  0.74314  0.60808  1.0000
  C   C16       1.0  0.04744  0.24313  0.89191  1.0000
  S   S1        1.0  0.49546  0.46383  0.63639  1.0000
  S   S2        1.0  0.00454  0.96383  0.86361  1.0000
  S   S3        1.0  0.50453  0.53617  0.36361  1.0000
  S   S4        1.0  0.99546  0.03617  0.13639  1.0000
  S   S5        1.0  0.90280  0.36106  0.24215  1.0000
  S   S6        1.0  0.59721  0.86106  0.25785  1.0000
  S   S7        1.0  0.09720  0.63894  0.75785  1.0000
  S   S8        1.0  0.40280  0.13894  0.74215  1.0000
  S   S9        1.0  0.13634  0.08865  0.45897  1.0000
  S   S10       1.0  0.36367  0.58864  0.04103  1.0000
  S   S11       1.0  0.86367  0.91135  0.54103  1.0000
  S   S12       1.0  0.63633  0.41135  0.95896  1.0000
  N   N1        1.0  0.97296  0.36381  0.57698  1.0000
  N   N2        1.0  0.52704  0.86381  0.92302  1.0000
  N   N3        1.0  0.02703  0.63619  0.42302  1.0000
  N   N4        1.0  0.47297  0.13619  0.07698  1.0000
  N   N5        1.0  0.83273  0.43919  0.57868  1.0000
  N   N6        1.0  0.66727  0.93919  0.92132  1.0000
  N   N7        1.0  0.16727  0.56081  0.42132  1.0000
  N   N8        1.0  0.33273  0.06080  0.07868  1.0000
  N   N9        1.0  0.74395  0.28829  0.63983  1.0000
  N   N10       1.0  0.75606  0.78829  0.86017  1.0000
  N   N11       1.0  0.25605  0.71171  0.36017  1.0000
  N   N12       1.0  0.24395  0.21171  0.13983  1.0000
  N   N13       1.0  0.59879  0.16180  0.36119  1.0000
  N   N14       1.0  0.90122  0.66180  0.13882  1.0000
  N   N15       1.0  0.40121  0.83820  0.63881  1.0000
  N   N16       1.0  0.09878  0.33820  0.86118  1.0000
  N   N17       1.0  0.45974  0.09391  0.37928  1.0000
  N   N18       1.0  0.04027  0.59390  0.12072  1.0000
  N   N19       1.0  0.54026  0.90609  0.62072  1.0000
  N   N20       1.0  0.95973  0.40609  0.87927  1.0000
  N   N21       1.0  0.38249  0.25240  0.42815  1.0000
  N   N22       1.0  0.11751  0.75240  0.07185  1.0000
  N   N23       1.0  0.61751  0.74760  0.57185  1.0000
  N   N24       1.0  0.88249  0.24760  0.92815  1.0000
  O   O1        1.0  0.82839  0.25803  0.19075  1.0000
  O   O2        1.0  0.67161  0.75802  0.30925  1.0000
  O   O3        1.0  0.17161  0.74198  0.80925  1.0000
  O   O4        1.0  0.32839  0.24198  0.69075  1.0000
  O   O5        1.0  0.07669  0.39303  0.20166  1.0000
  O   O6        1.0  0.42331  0.89303  0.29834  1.0000
  O   O7        1.0  0.92331  0.60697  0.79834  1.0000
  O   O8        1.0  0.57669  0.10697  0.70166  1.0000
  O   O9        1.0  0.95268  0.34090  0.35561  1.0000
  O   O10       1.0  0.54733  0.84089  0.14439  1.0000
  O   O11       1.0  0.04732  0.65911  0.64439  1.0000
  O   O12       1.0  0.45267  0.15911  0.85561  1.0000
  O   O13       1.0  0.75322  0.44413  0.21830  1.0000
  O   O14       1.0  0.74679  0.94412  0.28170  1.0000
  O   O15       1.0  0.24679  0.55587  0.78170  1.0000
  O   O16       1.0  0.25321  0.05588  0.71830  1.0000
