data_image0
_chemical_formula_structural       Cd2H12C8S4N12Cl4
_chemical_formula_sum              "Cd2 H12 C8 S4 N12 Cl4"
_cell_length_a       7.63112
_cell_length_b       8.38832
_cell_length_c       9.92546
_cell_angle_alpha    105.113
_cell_angle_beta     97.0745
_cell_angle_gamma    115.35

_space_group_name_H-M_alt    "P 1"
_space_group_IT_number       1

loop_
  _space_group_symop_operation_xyz
  'x, y, z'

loop_
  _atom_site_type_symbol
  _atom_site_label
  _atom_site_symmetry_multiplicity
  _atom_site_fract_x
  _atom_site_fract_y
  _atom_site_fract_z
  _atom_site_occupancy
  Cd  Cd1       1.0  0.43791  0.45304  0.68568  1.0000
  Cd  Cd2       1.0  0.56209  0.54696  0.31433  1.0000
  H   H1        1.0  0.75109  0.22230  0.94435  1.0000
  H   H2        1.0  0.24891  0.77770  0.05566  1.0000
  H   H3        1.0  0.81218  0.30671  0.52835  1.0000
  H   H4        1.0  0.18782  0.69330  0.47165  1.0000
  H   H5        1.0  0.91224  0.92261  0.66580  1.0000
  H   H6        1.0  0.08775  0.07738  0.33420  1.0000
  H   H7        1.0  0.00914  0.35874  0.19207  1.0000
  H   H8        1.0  0.99086  0.64126  0.80793  1.0000
  H   H9        1.0  0.58145  0.97529  0.33306  1.0000
  H   H10       1.0  0.41855  0.02473  0.66694  1.0000
  H   H11       1.0  0.75335  0.78333  0.05740  1.0000
  H   H12       1.0  0.24665  0.21667  0.94260  1.0000
  C   C1        1.0  0.92696  0.17071  0.64024  1.0000
  C   C2        1.0  0.07304  0.82929  0.35976  1.0000
  C   C3        1.0  0.69709  0.95067  0.94458  1.0000
  C   C4        1.0  0.30291  0.04933  0.05543  1.0000
  C   C5        1.0  0.91799  0.21040  0.12787  1.0000
  C   C6        1.0  0.08201  0.78959  0.87213  1.0000
  C   C7        1.0  0.68719  0.00740  0.43266  1.0000
  C   C8        1.0  0.31281  0.99260  0.56734  1.0000
  S   S1        1.0  0.10547  0.34740  0.78857  1.0000
  S   S2        1.0  0.89453  0.65260  0.21143  1.0000
  S   S3        1.0  0.52151  0.80962  0.78476  1.0000
  S   S4        1.0  0.47849  0.19038  0.21524  1.0000
  N   N1        1.0  0.78753  0.14337  0.99534  1.0000
  N   N2        1.0  0.21247  0.85662  0.00467  1.0000
  N   N3        1.0  0.81235  0.18342  0.52996  1.0000
  N   N4        1.0  0.18765  0.81658  0.47004  1.0000
  N   N5        1.0  0.86238  0.98369  0.60256  1.0000
  N   N6        1.0  0.13761  0.01631  0.39744  1.0000
  N   N7        1.0  0.71441  0.88163  0.47504  1.0000
  N   N8        1.0  0.28559  0.11838  0.52495  1.0000
  N   N9        1.0  0.91902  0.07132  0.16495  1.0000
  N   N10       1.0  0.08098  0.92868  0.83506  1.0000
  N   N11       1.0  0.78193  0.91202  0.05090  1.0000
  N   N12       1.0  0.21807  0.08797  0.94910  1.0000
  Cl  Cl1       1.0  0.25121  0.46973  0.44871  1.0000
  Cl  Cl2       1.0  0.74880  0.53028  0.55130  1.0000
  Cl  Cl3       1.0  0.63445  0.38770  0.86922  1.0000
  Cl  Cl4       1.0  0.36555  0.61229  0.13078  1.0000
