data_image0
_chemical_formula_structural       Cd4H4C8S4N12
_chemical_formula_sum              "Cd4 H4 C8 S4 N12"
_cell_length_a       6.02575
_cell_length_b       6.70051
_cell_length_c       11.3826
_cell_angle_alpha    90.0004
_cell_angle_beta     90
_cell_angle_gamma    112.449

_space_group_name_H-M_alt    "P 1"
_space_group_IT_number       1

loop_
  _space_group_symop_operation_xyz
  'x, y, z'

loop_
  _atom_site_type_symbol
  _atom_site_label
  _atom_site_symmetry_multiplicity
  _atom_site_fract_x
  _atom_site_fract_y
  _atom_site_fract_z
  _atom_site_occupancy
  Cd  Cd1       1.0  0.25175  0.74488  0.38920  1.0000
  Cd  Cd2       1.0  0.74825  0.75512  0.88920  1.0000
  Cd  Cd3       1.0  0.74825  0.25513  0.61080  1.0000
  Cd  Cd4       1.0  0.25175  0.24488  0.11080  1.0000
  H   H1        1.0  0.84817  0.53989  0.16065  1.0000
  H   H2        1.0  0.15182  0.96010  0.66064  1.0000
  H   H3        1.0  0.15181  0.46009  0.83936  1.0000
  H   H4        1.0  0.84818  0.03989  0.33936  1.0000
  C   C1        1.0  0.76421  0.46802  0.24270  1.0000
  C   C2        1.0  0.23579  0.03197  0.74271  1.0000
  C   C3        1.0  0.23578  0.53197  0.75729  1.0000
  C   C4        1.0  0.76421  0.96803  0.25730  1.0000
  C   C5        1.0  0.50818  0.28133  0.37123  1.0000
  C   C6        1.0  0.49183  0.21868  0.87123  1.0000
  C   C7        1.0  0.49183  0.71869  0.62877  1.0000
  C   C8        1.0  0.50818  0.78132  0.12877  1.0000
  S   S1        1.0  0.25233  0.11556  0.44258  1.0000
  S   S2        1.0  0.74768  0.38445  0.94258  1.0000
  S   S3        1.0  0.74767  0.88446  0.55742  1.0000
  S   S4        1.0  0.25232  0.61555  0.05742  1.0000
  N   N1        1.0  0.71798  0.38178  0.42730  1.0000
  N   N2        1.0  0.28203  0.11822  0.92730  1.0000
  N   N3        1.0  0.28203  0.61823  0.57271  1.0000
  N   N4        1.0  0.71797  0.88178  0.07270  1.0000
  N   N5        1.0  0.53206  0.33240  0.25422  1.0000
  N   N6        1.0  0.46794  0.16760  0.75422  1.0000
  N   N7        1.0  0.46793  0.66759  0.74576  1.0000
  N   N8        1.0  0.53206  0.83240  0.24578  1.0000
  N   N9        1.0  0.88157  0.50054  0.34447  1.0000
  N   N10       1.0  0.11844  0.99946  0.84447  1.0000
  N   N11       1.0  0.11843  0.49945  0.65553  1.0000
  N   N12       1.0  0.88157  0.00053  0.15553  1.0000
