data_image0
_chemical_formula_structural       Na4H24C32N12O8
_chemical_formula_sum              "Na4 H24 C32 N12 O8"
_cell_length_a       3.68806
_cell_length_b       8.08484
_cell_length_c       25.925
_cell_angle_alpha    97.2783
_cell_angle_beta     89.9991
_cell_angle_gamma    89.9999

_space_group_name_H-M_alt    "P 1"
_space_group_IT_number       1

loop_
  _space_group_symop_operation_xyz
  'x, y, z'

loop_
  _atom_site_type_symbol
  _atom_site_label
  _atom_site_symmetry_multiplicity
  _atom_site_fract_x
  _atom_site_fract_y
  _atom_site_fract_z
  _atom_site_occupancy
  Na  Na1       1.0  0.75638  0.88132  0.95279  1.0000
  Na  Na2       1.0  0.25639  0.11869  0.54721  1.0000
  Na  Na3       1.0  0.24361  0.11866  0.04721  1.0000
  Na  Na4       1.0  0.74361  0.88135  0.45280  1.0000
  H   H1        1.0  0.14952  0.58479  0.97581  1.0000
  H   H2        1.0  0.64951  0.41521  0.52419  1.0000
  H   H3        1.0  0.85045  0.41518  0.02419  1.0000
  H   H4        1.0  0.35047  0.58482  0.47581  1.0000
  H   H5        1.0  0.71315  0.63572  0.83312  1.0000
  H   H6        1.0  0.21313  0.36427  0.66688  1.0000
  H   H7        1.0  0.28683  0.36425  0.16688  1.0000
  H   H8        1.0  0.78686  0.63574  0.33312  1.0000
  H   H9        1.0  0.94297  0.54081  0.77842  1.0000
  H   H10       1.0  0.44295  0.45918  0.72157  1.0000
  H   H11       1.0  0.05704  0.45916  0.22158  1.0000
  H   H12       1.0  0.55705  0.54084  0.27843  1.0000
  H   H13       1.0  0.89632  0.24686  0.75193  1.0000
  H   H14       1.0  0.39635  0.75314  0.74807  1.0000
  H   H15       1.0  0.10368  0.75312  0.24808  1.0000
  H   H16       1.0  0.60367  0.24688  0.25193  1.0000
  H   H17       1.0  0.77163  0.96992  0.77887  1.0000
  H   H18       1.0  0.27168  0.03008  0.72112  1.0000
  H   H19       1.0  0.22836  0.03006  0.22113  1.0000
  H   H20       1.0  0.72838  0.96994  0.27888  1.0000
  H   H21       1.0  0.46262  0.94593  0.86369  1.0000
  H   H22       1.0  0.96263  0.05407  0.63631  1.0000
  H   H23       1.0  0.53739  0.05404  0.13631  1.0000
  H   H24       1.0  0.03739  0.94596  0.36370  1.0000
  C   C1        1.0  0.27873  0.19877  0.93624  1.0000
  C   C2        1.0  0.77872  0.80124  0.56376  1.0000
  C   C3        1.0  0.72128  0.80122  0.06377  1.0000
  C   C4        1.0  0.22128  0.19879  0.43624  1.0000
  C   C5        1.0  0.40997  0.51811  0.90587  1.0000
  C   C6        1.0  0.90996  0.48189  0.59413  1.0000
  C   C7        1.0  0.58998  0.48185  0.09413  1.0000
  C   C8        1.0  0.09001  0.51815  0.40588  1.0000
  C   C9        1.0  0.50721  0.37190  0.87000  1.0000
  C   C10       1.0  0.00721  0.62810  0.63000  1.0000
  C   C11       1.0  0.49281  0.62807  0.13001  1.0000
  C   C12       1.0  0.99281  0.37194  0.37000  1.0000
  C   C13       1.0  0.67390  0.38471  0.82101  1.0000
  C   C14       1.0  0.17389  0.61529  0.67898  1.0000
  C   C15       1.0  0.32610  0.61527  0.17899  1.0000
  C   C16       1.0  0.82612  0.38474  0.32101  1.0000
  C   C17       1.0  0.76466  0.23698  0.78907  1.0000
  C   C18       1.0  0.26469  0.76301  0.71093  1.0000
  C   C19       1.0  0.23534  0.76298  0.21093  1.0000
  C   C20       1.0  0.73535  0.23701  0.28907  1.0000
  C   C21       1.0  0.69388  0.08148  0.80456  1.0000
  C   C22       1.0  0.19389  0.91853  0.69543  1.0000
  C   C23       1.0  0.30611  0.91849  0.19544  1.0000
  C   C24       1.0  0.80614  0.08150  0.30457  1.0000
  C   C25       1.0  0.52842  0.06715  0.85200  1.0000
  C   C26       1.0  0.02844  0.93285  0.64800  1.0000
  C   C27       1.0  0.47156  0.93282  0.14800  1.0000
  C   C28       1.0  0.97160  0.06717  0.35200  1.0000
  C   C29       1.0  0.43885  0.21195  0.88506  1.0000
  C   C30       1.0  0.93886  0.78805  0.61494  1.0000
  C   C31       1.0  0.56117  0.78802  0.11494  1.0000
  C   C32       1.0  0.06117  0.21197  0.38506  1.0000
  N   N1        1.0  0.17346  0.33512  0.96671  1.0000
  N   N2        1.0  0.67345  0.66489  0.53329  1.0000
  N   N3        1.0  0.82653  0.66486  0.03330  1.0000
  N   N4        1.0  0.32654  0.33515  0.46670  1.0000
  N   N5        1.0  0.24001  0.48613  0.94977  1.0000
  N   N6        1.0  0.74000  0.51387  0.55023  1.0000
  N   N7        1.0  0.75996  0.51384  0.05023  1.0000
  N   N8        1.0  0.25998  0.48616  0.44977  1.0000
  N   N9        1.0  0.73649  0.53746  0.80429  1.0000
  N   N10       1.0  0.23648  0.46254  0.69571  1.0000
  N   N11       1.0  0.26352  0.46251  0.19571  1.0000
  N   N12       1.0  0.76352  0.53749  0.30429  1.0000
  O   O1        1.0  0.24385  0.05532  0.95305  1.0000
  O   O2        1.0  0.74386  0.94469  0.54696  1.0000
  O   O3        1.0  0.75613  0.94465  0.04696  1.0000
  O   O4        1.0  0.25613  0.05534  0.45304  1.0000
  O   O5        1.0  0.47045  0.66958  0.89908  1.0000
  O   O6        1.0  0.97043  0.33042  0.60092  1.0000
  O   O7        1.0  0.52951  0.33038  0.10092  1.0000
  O   O8        1.0  0.02955  0.66962  0.39908  1.0000
