data_image0
_chemical_formula_structural       Na4H24C32N12O8
_chemical_formula_sum              "Na4 H24 C32 N12 O8"
_cell_length_a       3.48642
_cell_length_b       8.23349
_cell_length_c       27.0984
_cell_angle_alpha    89.9998
_cell_angle_beta     90.0018
_cell_angle_gamma    90.0004

_space_group_name_H-M_alt    "P 1"
_space_group_IT_number       1

loop_
  _space_group_symop_operation_xyz
  'x, y, z'

loop_
  _atom_site_type_symbol
  _atom_site_label
  _atom_site_symmetry_multiplicity
  _atom_site_fract_x
  _atom_site_fract_y
  _atom_site_fract_z
  _atom_site_occupancy
  Na  Na1       1.0  0.91812  0.99843  0.05275  1.0000
  Na  Na2       1.0  0.08188  0.49843  0.94725  1.0000
  Na  Na3       1.0  0.41813  0.49842  0.44725  1.0000
  Na  Na4       1.0  0.58185  0.99844  0.55275  1.0000
  H   H1        1.0  0.52367  0.68736  0.01150  1.0000
  H   H2        1.0  0.47635  0.18736  0.98850  1.0000
  H   H3        1.0  0.02366  0.18737  0.48851  1.0000
  H   H4        1.0  0.97633  0.68737  0.51150  1.0000
  H   H5        1.0  0.13829  0.81952  0.21793  1.0000
  H   H6        1.0  0.86169  0.31952  0.78207  1.0000
  H   H7        1.0  0.63831  0.31951  0.28207  1.0000
  H   H8        1.0  0.36170  0.81953  0.71793  1.0000
  H   H9        1.0  0.30967  0.85691  0.15840  1.0000
  H   H10       1.0  0.69032  0.35691  0.84160  1.0000
  H   H11       1.0  0.80970  0.35690  0.34160  1.0000
  H   H12       1.0  0.19032  0.85692  0.65840  1.0000
  H   H13       1.0  0.14346  0.53996  0.25054  1.0000
  H   H14       1.0  0.85652  0.03995  0.74946  1.0000
  H   H15       1.0  0.64349  0.03995  0.24946  1.0000
  H   H16       1.0  0.35653  0.53997  0.75054  1.0000
  H   H17       1.0  0.14614  0.24874  0.22990  1.0000
  H   H18       1.0  0.85385  0.74874  0.77010  1.0000
  H   H19       1.0  0.64615  0.74873  0.27010  1.0000
  H   H20       1.0  0.35383  0.24875  0.72990  1.0000
  H   H21       1.0  0.28880  0.15567  0.14359  1.0000
  H   H22       1.0  0.71120  0.65568  0.85641  1.0000
  H   H23       1.0  0.78881  0.65567  0.35641  1.0000
  H   H24       1.0  0.21119  0.15569  0.64359  1.0000
  C   C1        1.0  0.41817  0.34602  0.06521  1.0000
  C   C2        1.0  0.58184  0.84602  0.93479  1.0000
  C   C3        1.0  0.91817  0.84602  0.43479  1.0000
  C   C4        1.0  0.08182  0.34603  0.56521  1.0000
  C   C5        1.0  0.42274  0.68141  0.08758  1.0000
  C   C6        1.0  0.57726  0.18142  0.91242  1.0000
  C   C7        1.0  0.92275  0.18142  0.41242  1.0000
  C   C8        1.0  0.07724  0.68142  0.58758  1.0000
  C   C9        1.0  0.35768  0.56721  0.12750  1.0000
  C   C10       1.0  0.64231  0.06720  0.87250  1.0000
  C   C11       1.0  0.85770  0.06720  0.37250  1.0000
  C   C12       1.0  0.14230  0.56722  0.62750  1.0000
  C   C13       1.0  0.28284  0.62019  0.17680  1.0000
  C   C14       1.0  0.71716  0.12020  0.82320  1.0000
  C   C15       1.0  0.78286  0.12020  0.32320  1.0000
  C   C16       1.0  0.21715  0.62021  0.67680  1.0000
  C   C17       1.0  0.20639  0.50150  0.21283  1.0000
  C   C18       1.0  0.79361  0.00149  0.78717  1.0000
  C   C19       1.0  0.70640  0.00149  0.28717  1.0000
  C   C20       1.0  0.29361  0.50150  0.71283  1.0000
  C   C21       1.0  0.20878  0.33686  0.20094  1.0000
  C   C22       1.0  0.79123  0.83686  0.79906  1.0000
  C   C23       1.0  0.70879  0.83685  0.29906  1.0000
  C   C24       1.0  0.29120  0.33688  0.70094  1.0000
  C   C25       1.0  0.28602  0.28397  0.15326  1.0000
  C   C26       1.0  0.71398  0.78397  0.84674  1.0000
  C   C27       1.0  0.78603  0.78397  0.34674  1.0000
  C   C28       1.0  0.21397  0.28399  0.65326  1.0000
  C   C29       1.0  0.35677  0.39882  0.11633  1.0000
  C   C30       1.0  0.64323  0.89882  0.88367  1.0000
  C   C31       1.0  0.85677  0.89882  0.38367  1.0000
  C   C32       1.0  0.14322  0.39883  0.61633  1.0000
  N   N1        1.0  0.47710  0.45438  0.02961  1.0000
  N   N2        1.0  0.52293  0.95438  0.97039  1.0000
  N   N3        1.0  0.97709  0.95438  0.47039  1.0000
  N   N4        1.0  0.02290  0.45439  0.52961  1.0000
  N   N5        1.0  0.48169  0.61506  0.04265  1.0000
  N   N6        1.0  0.51833  0.11505  0.95734  1.0000
  N   N7        1.0  0.98169  0.11506  0.45735  1.0000
  N   N8        1.0  0.01830  0.61506  0.54266  1.0000
  N   N9        1.0  0.29513  0.78211  0.18854  1.0000
  N   N10       1.0  0.70486  0.28211  0.81146  1.0000
  N   N11       1.0  0.79516  0.28211  0.31146  1.0000
  N   N12       1.0  0.20486  0.78213  0.68854  1.0000
  O   O1        1.0  0.41048  0.19322  0.05387  1.0000
  O   O2        1.0  0.58954  0.69323  0.94613  1.0000
  O   O3        1.0  0.91047  0.69322  0.44613  1.0000
  O   O4        1.0  0.08952  0.19323  0.55387  1.0000
  O   O5        1.0  0.42365  0.83701  0.09189  1.0000
  O   O6        1.0  0.57635  0.33701  0.90811  1.0000
  O   O7        1.0  0.92368  0.33701  0.40811  1.0000
  O   O8        1.0  0.07632  0.83702  0.59189  1.0000
