data_image0
_chemical_formula_structural       Na4H24C32N12O8
_chemical_formula_sum              "Na4 H24 C32 N12 O8"
_cell_length_a       3.68715
_cell_length_b       14.438
_cell_length_c       16.0673
_cell_angle_alpha    116.962
_cell_angle_beta     90.0001
_cell_angle_gamma    90.0002

_space_group_name_H-M_alt    "P 1"
_space_group_IT_number       1

loop_
  _space_group_symop_operation_xyz
  'x, y, z'

loop_
  _atom_site_type_symbol
  _atom_site_label
  _atom_site_symmetry_multiplicity
  _atom_site_fract_x
  _atom_site_fract_y
  _atom_site_fract_z
  _atom_site_occupancy
  Na  Na1       1.0  0.73059  0.59449  0.23756  1.0000
  Na  Na2       1.0  0.23059  0.40550  0.26244  1.0000
  Na  Na3       1.0  0.26940  0.40551  0.76244  1.0000
  Na  Na4       1.0  0.76942  0.59449  0.73756  1.0000
  H   H1        1.0  0.15264  0.54847  0.56756  1.0000
  H   H2        1.0  0.65264  0.45153  0.93245  1.0000
  H   H3        1.0  0.84735  0.45153  0.43244  1.0000
  H   H4        1.0  0.34735  0.54847  0.06756  1.0000
  H   H5        1.0  0.71424  0.83380  0.73658  1.0000
  H   H6        1.0  0.21425  0.16621  0.76343  1.0000
  H   H7        1.0  0.28577  0.16620  0.26342  1.0000
  H   H8        1.0  0.78575  0.83380  0.23657  1.0000
  H   H9        1.0  0.94518  0.94307  0.74418  1.0000
  H   H10       1.0  0.44518  0.05693  0.75582  1.0000
  H   H11       1.0  0.05483  0.05693  0.25582  1.0000
  H   H12       1.0  0.55482  0.94307  0.24417  1.0000
  H   H13       1.0  0.89699  0.99505  0.62204  1.0000
  H   H14       1.0  0.39701  0.00496  0.87796  1.0000
  H   H15       1.0  0.10302  0.00495  0.37796  1.0000
  H   H16       1.0  0.60300  0.99504  0.12204  1.0000
  H   H17       1.0  0.75510  0.94133  0.45565  1.0000
  H   H18       1.0  0.25510  0.05867  0.04435  1.0000
  H   H19       1.0  0.24490  0.05867  0.54435  1.0000
  H   H20       1.0  0.74490  0.94133  0.95565  1.0000
  H   H21       1.0  0.44023  0.77299  0.35918  1.0000
  H   H22       1.0  0.94022  0.22700  0.14081  1.0000
  H   H23       1.0  0.55975  0.22701  0.64082  1.0000
  H   H24       1.0  0.05978  0.77299  0.85918  1.0000
  C   C1        1.0  0.26727  0.62744  0.41319  1.0000
  C   C2        1.0  0.76727  0.37256  0.08681  1.0000
  C   C3        1.0  0.73272  0.37256  0.58681  1.0000
  C   C4        1.0  0.23273  0.62744  0.91319  1.0000
  C   C5        1.0  0.41213  0.68840  0.60431  1.0000
  C   C6        1.0  0.91214  0.31161  0.89569  1.0000
  C   C7        1.0  0.58787  0.31160  0.39569  1.0000
  C   C8        1.0  0.08786  0.68840  0.10431  1.0000
  C   C9        1.0  0.50663  0.75959  0.56651  1.0000
  C   C10       1.0  0.00664  0.24041  0.93349  1.0000
  C   C11       1.0  0.49337  0.24041  0.43349  1.0000
  C   C12       1.0  0.99336  0.75959  0.06651  1.0000
  C   C13       1.0  0.67528  0.85744  0.62216  1.0000
  C   C14       1.0  0.17529  0.14257  0.87784  1.0000
  C   C15       1.0  0.32472  0.14256  0.37784  1.0000
  C   C16       1.0  0.82471  0.85744  0.12216  1.0000
  C   C17       1.0  0.76325  0.92090  0.57976  1.0000
  C   C18       1.0  0.26326  0.07910  0.92024  1.0000
  C   C19       1.0  0.23675  0.07910  0.42024  1.0000
  C   C20       1.0  0.73675  0.92090  0.07976  1.0000
  C   C21       1.0  0.68549  0.88982  0.48601  1.0000
  C   C22       1.0  0.18550  0.11018  0.01398  1.0000
  C   C23       1.0  0.31450  0.11018  0.51399  1.0000
  C   C24       1.0  0.81450  0.88982  0.98601  1.0000
  C   C25       1.0  0.51584  0.79548  0.43141  1.0000
  C   C26       1.0  0.01585  0.20452  0.06859  1.0000
  C   C27       1.0  0.48414  0.20452  0.56860  1.0000
  C   C28       1.0  0.98416  0.79548  0.93140  1.0000
  C   C29       1.0  0.43070  0.72954  0.47104  1.0000
  C   C30       1.0  0.93070  0.27046  0.02896  1.0000
  C   C31       1.0  0.56929  0.27046  0.52896  1.0000
  C   C32       1.0  0.06930  0.72954  0.97104  1.0000
  N   N1        1.0  0.16800  0.56659  0.45132  1.0000
  N   N2        1.0  0.66800  0.43341  0.04868  1.0000
  N   N3        1.0  0.83199  0.43341  0.54868  1.0000
  N   N4        1.0  0.33201  0.56659  0.95132  1.0000
  N   N5        1.0  0.24117  0.60049  0.54422  1.0000
  N   N6        1.0  0.74118  0.39951  0.95578  1.0000
  N   N7        1.0  0.75882  0.39951  0.45578  1.0000
  N   N8        1.0  0.25882  0.60049  0.04422  1.0000
  N   N9        1.0  0.74055  0.89089  0.71589  1.0000
  N   N10       1.0  0.24056  0.10912  0.78411  1.0000
  N   N11       1.0  0.25945  0.10911  0.28411  1.0000
  N   N12       1.0  0.75944  0.89089  0.21589  1.0000
  O   O1        1.0  0.22399  0.59396  0.32418  1.0000
  O   O2        1.0  0.72400  0.40604  0.17582  1.0000
  O   O3        1.0  0.77600  0.40604  0.67582  1.0000
  O   O4        1.0  0.27601  0.59396  0.82418  1.0000
  O   O5        1.0  0.47565  0.70266  0.68756  1.0000
  O   O6        1.0  0.97565  0.29734  0.81244  1.0000
  O   O7        1.0  0.52437  0.29733  0.31244  1.0000
  O   O8        1.0  0.02434  0.70266  0.18755  1.0000
