data_image0
_chemical_formula_structural       Na4H32C32N12O12
_chemical_formula_sum              "Na4 H32 C32 N12 O12"
_cell_length_a       5.16257
_cell_length_b       8.20938
_cell_length_c       21.9895
_cell_angle_alpha    90.003
_cell_angle_beta     89.9991
_cell_angle_gamma    101.956

_space_group_name_H-M_alt    "P 1"
_space_group_IT_number       1

loop_
  _space_group_symop_operation_xyz
  'x, y, z'

loop_
  _atom_site_type_symbol
  _atom_site_label
  _atom_site_symmetry_multiplicity
  _atom_site_fract_x
  _atom_site_fract_y
  _atom_site_fract_z
  _atom_site_occupancy
  Na  Na1       1.0  0.25455  0.02878  0.46011  1.0000
  Na  Na2       1.0  0.24545  0.97123  0.96010  1.0000
  Na  Na3       1.0  0.74547  0.97123  0.53990  1.0000
  Na  Na4       1.0  0.75452  0.02877  0.03989  1.0000
  H   H1        1.0  0.24611  0.65249  0.47034  1.0000
  H   H2        1.0  0.25389  0.34748  0.97034  1.0000
  H   H3        1.0  0.75391  0.34751  0.52967  1.0000
  H   H4        1.0  0.74609  0.65253  0.02965  1.0000
  H   H5        1.0  0.30520  0.81952  0.28913  1.0000
  H   H6        1.0  0.19481  0.18046  0.78912  1.0000
  H   H7        1.0  0.69485  0.18049  0.71088  1.0000
  H   H8        1.0  0.80515  0.81951  0.21088  1.0000
  H   H9        1.0  0.26327  0.51812  0.27500  1.0000
  H   H10       1.0  0.23679  0.48187  0.77500  1.0000
  H   H11       1.0  0.73676  0.48189  0.72500  1.0000
  H   H12       1.0  0.76315  0.51810  0.22499  1.0000
  H   H13       1.0  0.90243  0.31477  0.32775  1.0000
  H   H14       1.0  0.59761  0.68520  0.82776  1.0000
  H   H15       1.0  0.09758  0.68524  0.67224  1.0000
  H   H16       1.0  0.40234  0.31478  0.17224  1.0000
  H   H17       1.0  0.84619  0.00538  0.37906  1.0000
  H   H18       1.0  0.65378  0.99460  0.87906  1.0000
  H   H19       1.0  0.15383  0.99462  0.62094  1.0000
  H   H20       1.0  0.34620  0.00539  0.12093  1.0000
  H   H21       1.0  0.13884  0.04538  0.33538  1.0000
  H   H22       1.0  0.36114  0.95461  0.83538  1.0000
  H   H23       1.0  0.86117  0.95461  0.66463  1.0000
  H   H24       1.0  0.63885  0.04538  0.16462  1.0000
  H   H25       1.0  0.09363  0.30948  0.46331  1.0000
  H   H26       1.0  0.40640  0.69052  0.96331  1.0000
  H   H27       1.0  0.90640  0.69055  0.53670  1.0000
  H   H28       1.0  0.59358  0.30948  0.03669  1.0000
  H   H29       1.0  0.79888  0.21483  0.44588  1.0000
  H   H30       1.0  0.70115  0.78517  0.94588  1.0000
  H   H31       1.0  0.20116  0.78519  0.55412  1.0000
  H   H32       1.0  0.29883  0.21483  0.05411  1.0000
  C   C1        1.0  0.53561  0.38940  0.40319  1.0000
  C   C2        1.0  0.96440  0.61058  0.90320  1.0000
  C   C3        1.0  0.46439  0.61061  0.59681  1.0000
  C   C4        1.0  0.03556  0.38941  0.09679  1.0000
  C   C5        1.0  0.57818  0.73460  0.42054  1.0000
  C   C6        1.0  0.92181  0.26537  0.92054  1.0000
  C   C7        1.0  0.42185  0.26540  0.57947  1.0000
  C   C8        1.0  0.07817  0.73463  0.07946  1.0000
  C   C9        1.0  0.76514  0.68094  0.37986  1.0000
  C   C10       1.0  0.73485  0.31904  0.87987  1.0000
  C   C11       1.0  0.23487  0.31907  0.62014  1.0000
  C   C12       1.0  0.26512  0.68096  0.12013  1.0000
  C   C13       1.0  0.96990  0.79661  0.34967  1.0000
  C   C14       1.0  0.53009  0.20337  0.84967  1.0000
  C   C15       1.0  0.03013  0.20339  0.65034  1.0000
  C   C16       1.0  0.46988  0.79661  0.15033  1.0000
  C   C17       1.0  0.14562  0.73305  0.31197  1.0000
  C   C18       1.0  0.35438  0.26694  0.81196  1.0000
  C   C19       1.0  0.85442  0.26695  0.68804  1.0000
  C   C20       1.0  0.64561  0.73306  0.18803  1.0000
  C   C21       1.0  0.12208  0.56213  0.30433  1.0000
  C   C22       1.0  0.37796  0.43785  0.80432  1.0000
  C   C23       1.0  0.87795  0.43787  0.69568  1.0000
  C   C24       1.0  0.62201  0.56214  0.19568  1.0000
  C   C25       1.0  0.92258  0.44857  0.33331  1.0000
  C   C26       1.0  0.57746  0.55142  0.83331  1.0000
  C   C27       1.0  0.07745  0.55144  0.66669  1.0000
  C   C28       1.0  0.42253  0.44857  0.16668  1.0000
  C   C29       1.0  0.74393  0.50737  0.37110  1.0000
  C   C30       1.0  0.75608  0.49262  0.87111  1.0000
  C   C31       1.0  0.25609  0.49265  0.62890  1.0000
  C   C32       1.0  0.24388  0.50737  0.12889  1.0000
  N   N1        1.0  0.35667  0.44560  0.43643  1.0000
  N   N2        1.0  0.14335  0.55438  0.93644  1.0000
  N   N3        1.0  0.64334  0.55441  0.56357  1.0000
  N   N4        1.0  0.85663  0.44562  0.06356  1.0000
  N   N5        1.0  0.38247  0.61351  0.44241  1.0000
  N   N6        1.0  0.11752  0.38647  0.94241  1.0000
  N   N7        1.0  0.61756  0.38651  0.55760  1.0000
  N   N8        1.0  0.88244  0.61353  0.05758  1.0000
  N   N9        1.0  0.99918  0.96472  0.35887  1.0000
  N   N10       1.0  0.50079  0.03526  0.85887  1.0000
  N   N11       1.0  0.00088  0.03528  0.64113  1.0000
  N   N12       1.0  0.49921  0.96473  0.14113  1.0000
  O   O1        1.0  0.52774  0.23091  0.40050  1.0000
  O   O2        1.0  0.97229  0.76907  0.90052  1.0000
  O   O3        1.0  0.47227  0.76909  0.59950  1.0000
  O   O4        1.0  0.02769  0.23093  0.09948  1.0000
  O   O5        1.0  0.58741  0.88549  0.43682  1.0000
  O   O6        1.0  0.91257  0.11448  0.93682  1.0000
  O   O7        1.0  0.41263  0.11451  0.56319  1.0000
  O   O8        1.0  0.08741  0.88552  0.06318  1.0000
  O   O9        1.0  0.93864  0.21956  0.47779  1.0000
  O   O10       1.0  0.56138  0.78044  0.97779  1.0000
  O   O11       1.0  0.06138  0.78047  0.52222  1.0000
  O   O12       1.0  0.43860  0.21956  0.02221  1.0000
