data_image0
_chemical_formula_structural       Cd2H18C14I4N2
_chemical_formula_sum              "Cd2 H18 C14 I4 N2"
_cell_length_a       7.61191
_cell_length_b       8.63079
_cell_length_c       8.63055
_cell_angle_alpha    71.4643
_cell_angle_beta     89.9601
_cell_angle_gamma    89.9615

_space_group_name_H-M_alt    "P 1"
_space_group_IT_number       1

loop_
  _space_group_symop_operation_xyz
  'x, y, z'

loop_
  _atom_site_type_symbol
  _atom_site_label
  _atom_site_symmetry_multiplicity
  _atom_site_fract_x
  _atom_site_fract_y
  _atom_site_fract_z
  _atom_site_occupancy
  Cd  Cd1       1.0  0.25000  0.57683  0.42318  1.0000
  Cd  Cd2       1.0  0.75000  0.42317  0.57683  1.0000
  H   H1        1.0  0.10292  0.54954  0.16054  1.0000
  H   H2        1.0  0.39708  0.83947  0.45046  1.0000
  H   H3        1.0  0.89707  0.45045  0.83947  1.0000
  H   H4        1.0  0.60291  0.16054  0.54954  1.0000
  H   H5        1.0  0.17385  0.60113  0.95399  1.0000
  H   H6        1.0  0.32615  0.04601  0.39886  1.0000
  H   H7        1.0  0.82615  0.39886  0.04601  1.0000
  H   H8        1.0  0.67384  0.95399  0.60113  1.0000
  H   H9        1.0  0.96535  0.66634  0.99981  1.0000
  H   H10       1.0  0.53466  0.00020  0.33365  1.0000
  H   H11       1.0  0.03465  0.33366  0.00019  1.0000
  H   H12       1.0  0.46533  0.99980  0.66635  1.0000
  H   H13       1.0  0.12399  0.92931  0.79505  1.0000
  H   H14       1.0  0.37601  0.20495  0.07066  1.0000
  H   H15       1.0  0.87600  0.07068  0.20495  1.0000
  H   H16       1.0  0.62400  0.79505  0.92932  1.0000
  H   H17       1.0  0.25000  0.19399  0.80599  1.0000
  H   H18       1.0  0.75000  0.80600  0.19400  1.0000
  C   C1        1.0  0.10217  0.64612  0.04181  1.0000
  C   C2        1.0  0.39783  0.95819  0.35387  1.0000
  C   C3        1.0  0.89783  0.35389  0.95819  1.0000
  C   C4        1.0  0.60217  0.04182  0.64614  1.0000
  C   C5        1.0  0.18092  0.80233  0.04791  1.0000
  C   C6        1.0  0.31908  0.95208  0.19767  1.0000
  C   C7        1.0  0.81907  0.19766  0.95210  1.0000
  C   C8        1.0  0.68091  0.04791  0.80232  1.0000
  C   C9        1.0  0.18093  0.93910  0.90751  1.0000
  C   C10       1.0  0.31907  0.09249  0.06088  1.0000
  C   C11       1.0  0.81907  0.06089  0.09250  1.0000
  C   C12       1.0  0.68093  0.90752  0.93910  1.0000
  C   C13       1.0  0.25000  0.08578  0.91419  1.0000
  C   C14       1.0  0.75001  0.91421  0.08580  1.0000
  I   I1        1.0  0.06688  0.27361  0.46651  1.0000
  I   I2        1.0  0.43313  0.53351  0.72640  1.0000
  I   I3        1.0  0.93313  0.72639  0.53351  1.0000
  I   I4        1.0  0.56688  0.46651  0.27360  1.0000
  N   N1        1.0  0.25001  0.80992  0.19008  1.0000
  N   N2        1.0  0.74999  0.19007  0.80991  1.0000
