data_image0
_chemical_formula_structural       CdH18C10S2N4O2
_chemical_formula_sum              "Cd1 H18 C10 S2 N4 O2"
_cell_length_a       5.90714
_cell_length_b       6.60142
_cell_length_c       9.99576
_cell_angle_alpha    84.7632
_cell_angle_beta     82.4948
_cell_angle_gamma    70.592

_space_group_name_H-M_alt    "P 1"
_space_group_IT_number       1

loop_
  _space_group_symop_operation_xyz
  'x, y, z'

loop_
  _atom_site_type_symbol
  _atom_site_label
  _atom_site_symmetry_multiplicity
  _atom_site_fract_x
  _atom_site_fract_y
  _atom_site_fract_z
  _atom_site_occupancy
  Cd  Cd1       1.0  0.49999  0.00001  0.49999  1.0000
  H   H1        1.0  0.16947  0.30097  0.67335  1.0000
  H   H2        1.0  0.83052  0.69902  0.32666  1.0000
  H   H3        1.0  0.44810  0.93278  0.83951  1.0000
  H   H4        1.0  0.55192  0.06723  0.16049  1.0000
  H   H5        1.0  0.14969  0.98397  0.79813  1.0000
  H   H6        1.0  0.85032  0.01603  0.20188  1.0000
  H   H7        1.0  0.00048  0.31110  0.93203  1.0000
  H   H8        1.0  0.99953  0.68888  0.06798  1.0000
  H   H9        1.0  0.16773  0.08817  0.03522  1.0000
  H   H10       1.0  0.83229  0.91182  0.96478  1.0000
  H   H11       1.0  0.49721  0.52453  0.88282  1.0000
  H   H12       1.0  0.50279  0.47547  0.11718  1.0000
  H   H13       1.0  0.20105  0.56552  0.83768  1.0000
  H   H14       1.0  0.79894  0.43448  0.16233  1.0000
  H   H15       1.0  0.50609  0.42188  0.64363  1.0000
  H   H16       1.0  0.49389  0.57813  0.35636  1.0000
  H   H17       1.0  0.66243  0.19939  0.74668  1.0000
  H   H18       1.0  0.33756  0.80061  0.25331  1.0000
  C   C1        1.0  0.06213  0.75754  0.59349  1.0000
  C   C2        1.0  0.93785  0.24242  0.40650  1.0000
  C   C3        1.0  0.27873  0.06046  0.82047  1.0000
  C   C4        1.0  0.72128  0.93954  0.17953  1.0000
  C   C5        1.0  0.18123  0.19338  0.94485  1.0000
  C   C6        1.0  0.81878  0.80661  0.05516  1.0000
  C   C7        1.0  0.37609  0.44297  0.85614  1.0000
  C   C8        1.0  0.62391  0.55704  0.14386  1.0000
  C   C9        1.0  0.48335  0.31526  0.73119  1.0000
  C   C10       1.0  0.51665  0.68474  0.26881  1.0000
  S   S1        1.0  0.82533  0.68739  0.64916  1.0000
  S   S2        1.0  0.17466  0.31260  0.35083  1.0000
  N   N1        1.0  0.76178  0.19717  0.44434  1.0000
  N   N2        1.0  0.23822  0.80286  0.55565  1.0000
  N   N3        1.0  0.32976  0.19222  0.69956  1.0000
  N   N4        1.0  0.67024  0.80778  0.30044  1.0000
  O   O1        1.0  0.34029  0.30504  0.97100  1.0000
  O   O2        1.0  0.65973  0.69496  0.02901  1.0000
