data_image0
_chemical_formula_structural       Zn4H36C52N4O20
_chemical_formula_sum              "Zn4 H36 C52 N4 O20"
_cell_length_a       7.11973
_cell_length_b       9.65266
_cell_length_c       18.8754
_cell_angle_alpha    89.9993
_cell_angle_beta     91.6412
_cell_angle_gamma    89.9998

_space_group_name_H-M_alt    "P 1"
_space_group_IT_number       1

loop_
  _space_group_symop_operation_xyz
  'x, y, z'

loop_
  _atom_site_type_symbol
  _atom_site_label
  _atom_site_symmetry_multiplicity
  _atom_site_fract_x
  _atom_site_fract_y
  _atom_site_fract_z
  _atom_site_occupancy
  Zn  Zn1       1.0  0.23065  0.93158  0.22526  1.0000
  Zn  Zn2       1.0  0.76936  0.43158  0.27474  1.0000
  Zn  Zn3       1.0  0.76934  0.06842  0.77475  1.0000
  Zn  Zn4       1.0  0.23066  0.56842  0.72525  1.0000
  H   H1        1.0  0.42369  0.25979  0.00923  1.0000
  H   H2        1.0  0.57631  0.75978  0.49077  1.0000
  H   H3        1.0  0.57629  0.74022  0.99077  1.0000
  H   H4        1.0  0.42370  0.24022  0.50923  1.0000
  H   H5        1.0  0.45658  0.68679  0.07911  1.0000
  H   H6        1.0  0.54341  0.18679  0.42089  1.0000
  H   H7        1.0  0.54340  0.31322  0.92089  1.0000
  H   H8        1.0  0.45660  0.81322  0.57911  1.0000
  H   H9        1.0  0.28440  0.36919  0.22131  1.0000
  H   H10       1.0  0.71561  0.86919  0.27869  1.0000
  H   H11       1.0  0.71559  0.63081  0.77869  1.0000
  H   H12       1.0  0.28440  0.13081  0.72131  1.0000
  H   H13       1.0  0.04008  0.21174  0.43577  1.0000
  H   H14       1.0  0.95991  0.71174  0.06423  1.0000
  H   H15       1.0  0.95991  0.78825  0.56423  1.0000
  H   H16       1.0  0.04009  0.28825  0.93577  1.0000
  H   H17       1.0  0.15667  0.17168  0.31651  1.0000
  H   H18       1.0  0.84333  0.67168  0.18349  1.0000
  H   H19       1.0  0.84332  0.82831  0.68350  1.0000
  H   H20       1.0  0.15667  0.32831  0.81650  1.0000
  H   H21       1.0  0.06433  0.76655  0.46872  1.0000
  H   H22       1.0  0.93568  0.26655  0.03128  1.0000
  H   H23       1.0  0.93567  0.23344  0.53129  1.0000
  H   H24       1.0  0.06431  0.73344  0.96871  1.0000
  H   H25       1.0  0.18230  0.74702  0.34690  1.0000
  H   H26       1.0  0.81770  0.24702  0.15310  1.0000
  H   H27       1.0  0.81770  0.25298  0.65310  1.0000
  H   H28       1.0  0.18230  0.75298  0.84690  1.0000
  H   H29       1.0  0.02969  0.98972  0.12764  1.0000
  H   H30       1.0  0.97030  0.48972  0.37237  1.0000
  H   H31       1.0  0.97030  0.01028  0.87236  1.0000
  H   H32       1.0  0.02969  0.51027  0.62763  1.0000
  H   H33       1.0  0.89037  0.99726  0.19366  1.0000
  H   H34       1.0  0.10964  0.49725  0.30635  1.0000
  H   H35       1.0  0.10963  0.00274  0.80634  1.0000
  H   H36       1.0  0.89037  0.50274  0.69365  1.0000
  C   C1        1.0  0.36524  0.53934  0.15420  1.0000
  C   C2        1.0  0.63477  0.03934  0.34580  1.0000
  C   C3        1.0  0.63475  0.46067  0.84580  1.0000
  C   C4        1.0  0.36524  0.96066  0.65420  1.0000
  C   C5        1.0  0.28806  0.15576  0.13101  1.0000
  C   C6        1.0  0.71196  0.65575  0.36899  1.0000
  C   C7        1.0  0.71194  0.84425  0.86899  1.0000
  C   C8        1.0  0.28805  0.34425  0.63100  1.0000
  C   C9        1.0  0.03785  0.99165  0.46424  1.0000
  C   C10       1.0  0.96215  0.49164  0.03576  1.0000
  C   C11       1.0  0.96215  0.00834  0.53576  1.0000
  C   C12       1.0  0.03785  0.50835  0.96424  1.0000
  C   C13       1.0  0.41515  0.34001  0.04959  1.0000
  C   C14       1.0  0.58485  0.84000  0.45041  1.0000
  C   C15       1.0  0.58483  0.66000  0.95041  1.0000
  C   C16       1.0  0.41516  0.16000  0.54959  1.0000
  C   C17       1.0  0.43288  0.57699  0.08805  1.0000
  C   C18       1.0  0.56712  0.07699  0.41195  1.0000
  C   C19       1.0  0.56710  0.42302  0.91195  1.0000
  C   C20       1.0  0.43289  0.92301  0.58804  1.0000
  C   C21       1.0  0.31227  0.65002  0.20549  1.0000
  C   C22       1.0  0.68774  0.15003  0.29452  1.0000
  C   C23       1.0  0.68772  0.34997  0.79452  1.0000
  C   C24       1.0  0.31228  0.84997  0.70548  1.0000
  C   C25       1.0  0.33262  0.40013  0.16943  1.0000
  C   C26       1.0  0.66739  0.90013  0.33057  1.0000
  C   C27       1.0  0.66737  0.59987  0.83058  1.0000
  C   C28       1.0  0.33263  0.09987  0.66942  1.0000
  C   C29       1.0  0.35282  0.30080  0.11621  1.0000
  C   C30       1.0  0.64718  0.80080  0.38379  1.0000
  C   C31       1.0  0.64716  0.69920  0.88379  1.0000
  C   C32       1.0  0.35283  0.19920  0.61621  1.0000
  C   C33       1.0  0.06772  0.10572  0.41957  1.0000
  C   C34       1.0  0.93227  0.60572  0.08044  1.0000
  C   C35       1.0  0.93228  0.89427  0.58044  1.0000
  C   C36       1.0  0.06773  0.39427  0.91956  1.0000
  C   C37       1.0  0.13371  0.08492  0.35210  1.0000
  C   C38       1.0  0.86629  0.58492  0.14790  1.0000
  C   C39       1.0  0.86630  0.91508  0.64791  1.0000
  C   C40       1.0  0.13371  0.41508  0.85210  1.0000
  C   C41       1.0  0.08329  0.86050  0.43804  1.0000
  C   C42       1.0  0.91672  0.36051  0.06196  1.0000
  C   C43       1.0  0.91672  0.13949  0.56197  1.0000
  C   C44       1.0  0.08328  0.63949  0.93803  1.0000
  C   C45       1.0  0.14848  0.84709  0.36995  1.0000
  C   C46       1.0  0.85152  0.34709  0.13005  1.0000
  C   C47       1.0  0.85152  0.15291  0.63005  1.0000
  C   C48       1.0  0.14848  0.65291  0.86995  1.0000
  C   C49       1.0  0.46340  0.47867  0.03487  1.0000
  C   C50       1.0  0.53660  0.97867  0.46513  1.0000
  C   C51       1.0  0.53659  0.52135  0.96514  1.0000
  C   C52       1.0  0.46341  0.02133  0.53486  1.0000
  N   N1        1.0  0.17033  0.95701  0.32707  1.0000
  N   N2        1.0  0.82967  0.45702  0.17294  1.0000
  N   N3        1.0  0.82966  0.04299  0.67294  1.0000
  N   N4        1.0  0.17034  0.54298  0.82706  1.0000
  O   O1        1.0  0.97691  0.93451  0.16763  1.0000
  O   O2        1.0  0.02309  0.43450  0.33237  1.0000
  O   O3        1.0  0.02309  0.06549  0.83237  1.0000
  O   O4        1.0  0.97691  0.56549  0.66763  1.0000
  O   O5        1.0  0.36105  0.77403  0.18776  1.0000
  O   O6        1.0  0.63894  0.27404  0.31224  1.0000
  O   O7        1.0  0.63893  0.22597  0.81225  1.0000
  O   O8        1.0  0.36107  0.72596  0.68775  1.0000
  O   O9        1.0  0.32928  0.11126  0.19416  1.0000
  O   O10       1.0  0.67074  0.61127  0.30583  1.0000
  O   O11       1.0  0.67071  0.88875  0.80584  1.0000
  O   O12       1.0  0.32928  0.38874  0.69416  1.0000
  O   O13       1.0  0.19213  0.09164  0.08440  1.0000
  O   O14       1.0  0.80785  0.59164  0.41560  1.0000
  O   O15       1.0  0.80786  0.90836  0.91560  1.0000
  O   O16       1.0  0.19214  0.40835  0.58440  1.0000
  O   O17       1.0  0.21781  0.62132  0.25887  1.0000
  O   O18       1.0  0.78223  0.12134  0.24114  1.0000
  O   O19       1.0  0.78221  0.37867  0.74114  1.0000
  O   O20       1.0  0.21778  0.87867  0.75886  1.0000
