data_image0
_chemical_formula_structural       ZnMo6H20C16N6O22
_chemical_formula_sum              "Zn1 Mo6 H20 C16 N6 O22"
_cell_length_a       7.6585
_cell_length_b       10.0917
_cell_length_c       10.2786
_cell_angle_alpha    106.265
_cell_angle_beta     92.3677
_cell_angle_gamma    98.7163

_space_group_name_H-M_alt    "P 1"
_space_group_IT_number       1

loop_
  _space_group_symop_operation_xyz
  'x, y, z'

loop_
  _atom_site_type_symbol
  _atom_site_label
  _atom_site_symmetry_multiplicity
  _atom_site_fract_x
  _atom_site_fract_y
  _atom_site_fract_z
  _atom_site_occupancy
  Zn  Zn1       1.0  0.50000  0.50000  0.50000  1.0000
  Mo  Mo1       1.0  0.19696  0.30591  0.85965  1.0000
  Mo  Mo2       1.0  0.80304  0.69409  0.14035  1.0000
  Mo  Mo3       1.0  0.49297  0.59453  0.88073  1.0000
  Mo  Mo4       1.0  0.50703  0.40548  0.11927  1.0000
  Mo  Mo5       1.0  0.99128  0.57345  0.85744  1.0000
  Mo  Mo6       1.0  0.00872  0.42655  0.14256  1.0000
  H   H1        1.0  0.42442  0.68214  0.31682  1.0000
  H   H2        1.0  0.57558  0.31786  0.68318  1.0000
  H   H3        1.0  0.15799  0.10554  0.06792  1.0000
  H   H4        1.0  0.84201  0.89446  0.93208  1.0000
  H   H5        1.0  0.14791  0.44050  0.44863  1.0000
  H   H6        1.0  0.85209  0.55949  0.55137  1.0000
  H   H7        1.0  0.19562  0.36323  0.56107  1.0000
  H   H8        1.0  0.80438  0.63677  0.43894  1.0000
  H   H9        1.0  0.33841  0.77196  0.71813  1.0000
  H   H10       1.0  0.66159  0.22804  0.28187  1.0000
  H   H11       1.0  0.22685  0.97985  0.62992  1.0000
  H   H12       1.0  0.77315  0.02015  0.37008  1.0000
  H   H13       1.0  0.32320  0.92726  0.00287  1.0000
  H   H14       1.0  0.67680  0.07274  0.99713  1.0000
  H   H15       1.0  0.40480  0.80238  0.16667  1.0000
  H   H16       1.0  0.59520  0.19762  0.83333  1.0000
  H   H17       1.0  0.14222  0.08221  0.46800  1.0000
  H   H18       1.0  0.85777  0.91778  0.53199  1.0000
  H   H19       1.0  0.06175  0.18803  0.28575  1.0000
  H   H20       1.0  0.93825  0.81196  0.71425  1.0000
  C   C1        1.0  0.33879  0.78571  0.61732  1.0000
  C   C2        1.0  0.66121  0.21430  0.38268  1.0000
  C   C3        1.0  0.28147  0.89103  0.57091  1.0000
  C   C4        1.0  0.71853  0.10897  0.42908  1.0000
  C   C5        1.0  0.31388  0.85939  0.43326  1.0000
  C   C6        1.0  0.68611  0.14061  0.56674  1.0000
  C   C7        1.0  0.28539  0.95492  0.10629  1.0000
  C   C8        1.0  0.71461  0.04508  0.89371  1.0000
  C   C9        1.0  0.32962  0.88751  0.19951  1.0000
  C   C10       1.0  0.67038  0.11249  0.80049  1.0000
  C   C11       1.0  0.27625  0.92924  0.33220  1.0000
  C   C12       1.0  0.72375  0.07076  0.66780  1.0000
  C   C13       1.0  0.18143  0.04150  0.36574  1.0000
  C   C14       1.0  0.81856  0.95850  0.63426  1.0000
  C   C15       1.0  0.13766  0.10331  0.26780  1.0000
  C   C16       1.0  0.86234  0.89669  0.73220  1.0000
  N   N1        1.0  0.38840  0.74136  0.40642  1.0000
  N   N2        1.0  0.61160  0.25863  0.59357  1.0000
  N   N3        1.0  0.40315  0.69487  0.51596  1.0000
  N   N4        1.0  0.59685  0.30513  0.48403  1.0000
  N   N5        1.0  0.18907  0.05856  0.14144  1.0000
  N   N6        1.0  0.81092  0.94144  0.85855  1.0000
  O   O1        1.0  0.24712  0.54079  0.88038  1.0000
  O   O2        1.0  0.75288  0.45921  0.11962  1.0000
  O   O3        1.0  0.45310  0.37247  0.90767  1.0000
  O   O4        1.0  0.54690  0.62753  0.09234  1.0000
  O   O5        1.0  0.98261  0.37503  0.90378  1.0000
  O   O6        1.0  0.01739  0.62497  0.09622  1.0000
  O   O7        1.0  0.18767  0.26469  0.68350  1.0000
  O   O8        1.0  0.81234  0.73531  0.31650  1.0000
  O   O9        1.0  0.24057  0.41148  0.09048  1.0000
  O   O10       1.0  0.75943  0.58852  0.90952  1.0000
  O   O11       1.0  0.16622  0.14676  0.89578  1.0000
  O   O12       1.0  0.83378  0.85324  0.10422  1.0000
  O   O13       1.0  0.51399  0.52256  0.70668  1.0000
  O   O14       1.0  0.48601  0.47744  0.29332  1.0000
  O   O15       1.0  0.49985  0.76921  0.90047  1.0000
  O   O16       1.0  0.50015  0.23080  0.09953  1.0000
  O   O17       1.0  0.95067  0.49765  0.68386  1.0000
  O   O18       1.0  0.04933  0.50235  0.31614  1.0000
  O   O19       1.0  0.07416  0.74638  0.87359  1.0000
  O   O20       1.0  0.92585  0.25362  0.12641  1.0000
  O   O21       1.0  0.23551  0.39242  0.48145  1.0000
  O   O22       1.0  0.76449  0.60757  0.51855  1.0000
