data_image0
_chemical_formula_structural       CuMo6H20C16N6O22
_chemical_formula_sum              "Cu1 Mo6 H20 C16 N6 O22"
_cell_length_a       7.65766
_cell_length_b       9.94821
_cell_length_c       10.4113
_cell_angle_alpha    105.469
_cell_angle_beta     92.8037
_cell_angle_gamma    98.5003

_space_group_name_H-M_alt    "P 1"
_space_group_IT_number       1

loop_
  _space_group_symop_operation_xyz
  'x, y, z'

loop_
  _atom_site_type_symbol
  _atom_site_label
  _atom_site_symmetry_multiplicity
  _atom_site_fract_x
  _atom_site_fract_y
  _atom_site_fract_z
  _atom_site_occupancy
  Cu  Cu1       1.0  0.50000  0.00000  0.00000  1.0000
  Mo  Mo1       1.0  0.19450  0.80602  0.35995  1.0000
  Mo  Mo2       1.0  0.80550  0.19398  0.64005  1.0000
  Mo  Mo3       1.0  0.50809  0.90132  0.61491  1.0000
  Mo  Mo4       1.0  0.49192  0.09868  0.38509  1.0000
  Mo  Mo5       1.0  0.98985  0.07754  0.35826  1.0000
  Mo  Mo6       1.0  0.01015  0.92247  0.64174  1.0000
  H   H1        1.0  0.42300  0.16691  0.81734  1.0000
  H   H2        1.0  0.57700  0.83308  0.18265  1.0000
  H   H3        1.0  0.15707  0.60248  0.57241  1.0000
  H   H4        1.0  0.84293  0.39752  0.42759  1.0000
  H   H5        1.0  0.15982  0.93653  0.94628  1.0000
  H   H6        1.0  0.84018  0.06347  0.05372  1.0000
  H   H7        1.0  0.20930  0.86303  0.06382  1.0000
  H   H8        1.0  0.79070  0.13697  0.93618  1.0000
  H   H9        1.0  0.34047  0.25508  0.21256  1.0000
  H   H10       1.0  0.65953  0.74492  0.78744  1.0000
  H   H11       1.0  0.23106  0.46827  0.12670  1.0000
  H   H12       1.0  0.76894  0.53173  0.87330  1.0000
  H   H13       1.0  0.32533  0.42376  0.50916  1.0000
  H   H14       1.0  0.67468  0.57625  0.49084  1.0000
  H   H15       1.0  0.40869  0.29580  0.67110  1.0000
  H   H16       1.0  0.59131  0.70420  0.32889  1.0000
  H   H17       1.0  0.14436  0.57464  0.96620  1.0000
  H   H18       1.0  0.85562  0.42534  0.03379  1.0000
  H   H19       1.0  0.06175  0.68348  0.78573  1.0000
  H   H20       1.0  0.93824  0.31651  0.21427  1.0000
  C   C1        1.0  0.34031  0.27036  0.11339  1.0000
  C   C2        1.0  0.65969  0.72964  0.88661  1.0000
  C   C3        1.0  0.28446  0.37865  0.06793  1.0000
  C   C4        1.0  0.71554  0.62134  0.93207  1.0000
  C   C5        1.0  0.31662  0.34904  0.93259  1.0000
  C   C6        1.0  0.68338  0.65096  0.06741  1.0000
  C   C7        1.0  0.28748  0.45044  0.61074  1.0000
  C   C8        1.0  0.71253  0.54956  0.38926  1.0000
  C   C9        1.0  0.33262  0.38128  0.70296  1.0000
  C   C10       1.0  0.66738  0.61872  0.29704  1.0000
  C   C11       1.0  0.27908  0.42171  0.83308  1.0000
  C   C12       1.0  0.72092  0.57829  0.16692  1.0000
  C   C13       1.0  0.18367  0.53487  0.86576  1.0000
  C   C14       1.0  0.81632  0.46512  0.13424  1.0000
  C   C15       1.0  0.13888  0.59838  0.76893  1.0000
  C   C16       1.0  0.86111  0.40161  0.23107  1.0000
  N   N1        1.0  0.39008  0.22926  0.90536  1.0000
  N   N2        1.0  0.60992  0.77074  0.09464  1.0000
  N   N3        1.0  0.40351  0.18004  0.01294  1.0000
  N   N4        1.0  0.59649  0.81996  0.98706  1.0000
  N   N5        1.0  0.19020  0.55453  0.64484  1.0000
  N   N6        1.0  0.80980  0.44547  0.35516  1.0000
  O   O1        1.0  0.45111  0.87179  0.40982  1.0000
  O   O2        1.0  0.54890  0.12821  0.59018  1.0000
  O   O3        1.0  0.23820  0.90756  0.58538  1.0000
  O   O4        1.0  0.76180  0.09245  0.41461  1.0000
  O   O5        1.0  0.24495  0.04405  0.38064  1.0000
  O   O6        1.0  0.75505  0.95595  0.61936  1.0000
  O   O7        1.0  0.98026  0.87503  0.40200  1.0000
  O   O8        1.0  0.01975  0.12497  0.59800  1.0000
  O   O9        1.0  0.16444  0.64335  0.39366  1.0000
  O   O10       1.0  0.83556  0.35666  0.60634  1.0000
  O   O11       1.0  0.18869  0.76978  0.18640  1.0000
  O   O12       1.0  0.81131  0.23022  0.81360  1.0000
  O   O13       1.0  0.48073  0.97615  0.78318  1.0000
  O   O14       1.0  0.51926  0.02385  0.21682  1.0000
  O   O15       1.0  0.50074  0.72484  0.60019  1.0000
  O   O16       1.0  0.49926  0.27516  0.39981  1.0000
  O   O17       1.0  0.07236  0.25340  0.37725  1.0000
  O   O18       1.0  0.92764  0.74661  0.62275  1.0000
  O   O19       1.0  0.94436  0.00736  0.18697  1.0000
  O   O20       1.0  0.05564  0.99265  0.81303  1.0000
  O   O21       1.0  0.24729  0.88850  0.98194  1.0000
  O   O22       1.0  0.75271  0.11150  0.01806  1.0000
