data_image0
_chemical_formula_structural       MnMo6H18C16N6O22
_chemical_formula_sum              "Mn1 Mo6 H18 C16 N6 O22"
_cell_length_a       7.67985
_cell_length_b       10.1206
_cell_length_c       10.0702
_cell_angle_alpha    105.278
_cell_angle_beta     93.0609
_cell_angle_gamma    99.0254

_space_group_name_H-M_alt    "P 1"
_space_group_IT_number       1

loop_
  _space_group_symop_operation_xyz
  'x, y, z'

loop_
  _atom_site_type_symbol
  _atom_site_label
  _atom_site_symmetry_multiplicity
  _atom_site_fract_x
  _atom_site_fract_y
  _atom_site_fract_z
  _atom_site_occupancy
  Mn  Mn1       1.0  0.00706  0.50271  0.50033  1.0000
  Mo  Mo1       1.0  0.69632  0.30925  0.85739  1.0000
  Mo  Mo2       1.0  0.30293  0.69006  0.14281  1.0000
  Mo  Mo3       1.0  0.99628  0.59188  0.87614  1.0000
  Mo  Mo4       1.0  0.00320  0.40800  0.12354  1.0000
  Mo  Mo5       1.0  0.48980  0.57250  0.85082  1.0000
  Mo  Mo6       1.0  0.50991  0.42830  0.14896  1.0000
  H   H1        1.0  0.66374  0.09959  0.06712  1.0000
  H   H2        1.0  0.33576  0.90038  0.93326  1.0000
  H   H3        1.0  0.65245  0.43518  0.44878  1.0000
  H   H4        1.0  0.34448  0.56540  0.55449  1.0000
  H   H5        1.0  0.71007  0.34968  0.55770  1.0000
  H   H6        1.0  0.28577  0.64877  0.43985  1.0000
  H   H7        1.0  0.83336  0.73828  0.71487  1.0000
  H   H8        1.0  0.17052  0.26210  0.28515  1.0000
  H   H9        1.0  0.72615  0.95164  0.63664  1.0000
  H   H10       1.0  0.27163  0.04632  0.36270  1.0000
  H   H11       1.0  0.56068  0.17185  0.28551  1.0000
  H   H12       1.0  0.43866  0.82759  0.71494  1.0000
  H   H13       1.0  0.64121  0.06216  0.47050  1.0000
  H   H14       1.0  0.35835  0.93710  0.52953  1.0000
  H   H15       1.0  0.91085  0.79604  0.17105  1.0000
  H   H16       1.0  0.09007  0.20445  0.82901  1.0000
  H   H17       1.0  0.83295  0.92714  0.00247  1.0000
  H   H18       1.0  0.16752  0.07351  0.99785  1.0000
  C   C1        1.0  0.83617  0.75947  0.61543  1.0000
  C   C2        1.0  0.16691  0.24082  0.38454  1.0000
  C   C3        1.0  0.78105  0.86652  0.57362  1.0000
  C   C4        1.0  0.21907  0.13261  0.42606  1.0000
  C   C5        1.0  0.81872  0.84158  0.43307  1.0000
  C   C6        1.0  0.18250  0.15853  0.56691  1.0000
  C   C7        1.0  0.63958  0.09005  0.26845  1.0000
  C   C8        1.0  0.35950  0.90926  0.73166  1.0000
  C   C9        1.0  0.68340  0.02635  0.36768  1.0000
  C   C10       1.0  0.31600  0.97290  0.63231  1.0000
  C   C11       1.0  0.78070  0.91693  0.33446  1.0000
  C   C12       1.0  0.21936  0.08285  0.66547  1.0000
  C   C13       1.0  0.83614  0.88032  0.20046  1.0000
  C   C14       1.0  0.16427  0.11985  0.79958  1.0000
  C   C15       1.0  0.79307  0.94997  0.10655  1.0000
  C   C16       1.0  0.20706  0.05025  0.89366  1.0000
  N   N1        1.0  0.89344  0.72621  0.39470  1.0000
  N   N2        1.0  0.11106  0.27557  0.60572  1.0000
  N   N3        1.0  0.90321  0.67679  0.50502  1.0000
  N   N4        1.0  0.10222  0.32490  0.49532  1.0000
  N   N5        1.0  0.69426  0.05084  0.14125  1.0000
  N   N6        1.0  0.30515  0.94889  0.85899  1.0000
  O   O1        1.0  0.75046  0.54165  0.87153  1.0000
  O   O2        1.0  0.24874  0.45736  0.12474  1.0000
  O   O3        1.0  0.95018  0.37816  0.91108  1.0000
  O   O4        1.0  0.04877  0.62144  0.08805  1.0000
  O   O5        1.0  0.48614  0.38079  0.90314  1.0000
  O   O6        1.0  0.51395  0.62088  0.09727  1.0000
  O   O7        1.0  0.68045  0.26694  0.67869  1.0000
  O   O8        1.0  0.31666  0.72868  0.32183  1.0000
  O   O9        1.0  0.74453  0.41877  0.10320  1.0000
  O   O10       1.0  0.25630  0.58283  0.89835  1.0000
  O   O11       1.0  0.66510  0.15293  0.89893  1.0000
  O   O12       1.0  0.33315  0.84758  0.10371  1.0000
  O   O13       1.0  0.00323  0.53755  0.68879  1.0000
  O   O14       1.0  0.00188  0.46405  0.31136  1.0000
  O   O15       1.0  0.00717  0.76646  0.90606  1.0000
  O   O16       1.0  0.99163  0.23343  0.09429  1.0000
  O   O17       1.0  0.57248  0.74618  0.87692  1.0000
  O   O18       1.0  0.42821  0.25467  0.12469  1.0000
  O   O19       1.0  0.45685  0.50884  0.67271  1.0000
  O   O20       1.0  0.53874  0.49506  0.32640  1.0000
  O   O21       1.0  0.74004  0.38073  0.47346  1.0000
  O   O22       1.0  0.25276  0.61370  0.52248  1.0000
