data_image0
_chemical_formula_structural       NiMo6H20C16N6O22
_chemical_formula_sum              "Ni1 Mo6 H20 C16 N6 O22"
_cell_length_a       7.64066
_cell_length_b       10.0438
_cell_length_c       10.1953
_cell_angle_alpha    105.783
_cell_angle_beta     92.3449
_cell_angle_gamma    98.9514

_space_group_name_H-M_alt    "P 1"
_space_group_IT_number       1

loop_
  _space_group_symop_operation_xyz
  'x, y, z'

loop_
  _atom_site_type_symbol
  _atom_site_label
  _atom_site_symmetry_multiplicity
  _atom_site_fract_x
  _atom_site_fract_y
  _atom_site_fract_z
  _atom_site_occupancy
  Ni  Ni1       1.0  0.00000  0.00000  0.00000  1.0000
  Mo  Mo1       1.0  0.30419  0.19353  0.64126  1.0000
  Mo  Mo2       1.0  0.69581  0.80648  0.35874  1.0000
  Mo  Mo3       1.0  0.99549  0.09512  0.37943  1.0000
  Mo  Mo4       1.0  0.00451  0.90488  0.62056  1.0000
  Mo  Mo5       1.0  0.50594  0.92431  0.64313  1.0000
  Mo  Mo6       1.0  0.49406  0.07569  0.35687  1.0000
  H   H1        1.0  0.06922  0.82448  0.18899  1.0000
  H   H2        1.0  0.93078  0.17552  0.81101  1.0000
  H   H3        1.0  0.34240  0.39409  0.42873  1.0000
  H   H4        1.0  0.65760  0.60591  0.57127  1.0000
  H   H5        1.0  0.29952  0.13723  0.94015  1.0000
  H   H6        1.0  0.70048  0.86277  0.05985  1.0000
  H   H7        1.0  0.34633  0.05854  0.05358  1.0000
  H   H8        1.0  0.65367  0.94146  0.94642  1.0000
  H   H9        1.0  0.15651  0.74639  0.78502  1.0000
  H   H10       1.0  0.84348  0.25361  0.21498  1.0000
  H   H11       1.0  0.26802  0.53526  0.86853  1.0000
  H   H12       1.0  0.73198  0.46474  0.13147  1.0000
  H   H13       1.0  0.17554  0.57047  0.49763  1.0000
  H   H14       1.0  0.82446  0.42954  0.50237  1.0000
  H   H15       1.0  0.09128  0.70007  0.33628  1.0000
  H   H16       1.0  0.90872  0.29994  0.66372  1.0000
  H   H17       1.0  0.35367  0.42696  0.02808  1.0000
  H   H18       1.0  0.64633  0.57303  0.97192  1.0000
  H   H19       1.0  0.43709  0.31656  0.20837  1.0000
  H   H20       1.0  0.56291  0.68343  0.79163  1.0000
  C   C1        1.0  0.15605  0.73029  0.88563  1.0000
  C   C2        1.0  0.84395  0.26970  0.11437  1.0000
  C   C3        1.0  0.21324  0.62283  0.92984  1.0000
  C   C4        1.0  0.78676  0.37717  0.07016  1.0000
  C   C5        1.0  0.18076  0.65036  0.06807  1.0000
  C   C6        1.0  0.81924  0.34964  0.93192  1.0000
  C   C7        1.0  0.21277  0.54558  0.39340  1.0000
  C   C8        1.0  0.78723  0.45442  0.60660  1.0000
  C   C9        1.0  0.16693  0.61554  0.30147  1.0000
  C   C10       1.0  0.83307  0.38446  0.69853  1.0000
  C   C11       1.0  0.21951  0.57719  0.16762  1.0000
  C   C12       1.0  0.78049  0.42281  0.83237  1.0000
  C   C13       1.0  0.31515  0.46545  0.13141  1.0000
  C   C14       1.0  0.68485  0.53455  0.86860  1.0000
  C   C15       1.0  0.36068  0.40114  0.22826  1.0000
  C   C16       1.0  0.63932  0.59886  0.77175  1.0000
  N   N1        1.0  0.10597  0.76849  0.09787  1.0000
  N   N2        1.0  0.89403  0.23151  0.90213  1.0000
  N   N3        1.0  0.09157  0.81868  0.98914  1.0000
  N   N4        1.0  0.90842  0.18132  0.01086  1.0000
  N   N5        1.0  0.31003  0.44280  0.35586  1.0000
  N   N6        1.0  0.68997  0.55719  0.64414  1.0000
  O   O1        1.0  0.25893  0.08881  0.40828  1.0000
  O   O2        1.0  0.74107  0.91119  0.59172  1.0000
  O   O3        1.0  0.04693  0.12586  0.59554  1.0000
  O   O4        1.0  0.95307  0.87414  0.40446  1.0000
  O   O5        1.0  0.25396  0.95859  0.62018  1.0000
  O   O6        1.0  0.74604  0.04141  0.37982  1.0000
  O   O7        1.0  0.51893  0.12601  0.59507  1.0000
  O   O8        1.0  0.48107  0.87400  0.40493  1.0000
  O   O9        1.0  0.31585  0.23432  0.81865  1.0000
  O   O10       1.0  0.68415  0.76568  0.18135  1.0000
  O   O11       1.0  0.33276  0.35337  0.60385  1.0000
  O   O12       1.0  0.66724  0.64663  0.39615  1.0000
  O   O13       1.0  0.01059  0.03031  0.20262  1.0000
  O   O14       1.0  0.98941  0.96969  0.79738  1.0000
  O   O15       1.0  0.00006  0.27127  0.40472  1.0000
  O   O16       1.0  0.99994  0.72873  0.59528  1.0000
  O   O17       1.0  0.54882  0.00180  0.81733  1.0000
  O   O18       1.0  0.45118  0.99820  0.18266  1.0000
  O   O19       1.0  0.42625  0.75056  0.62944  1.0000
  O   O20       1.0  0.57375  0.24944  0.37056  1.0000
  O   O21       1.0  0.26021  0.10957  0.02203  1.0000
  O   O22       1.0  0.73979  0.89043  0.97797  1.0000
