data_image0
_chemical_formula_structural       ErH8C3N9O5
_chemical_formula_sum              "Er1 H8 C3 N9 O5"
_cell_length_a       6.8129
_cell_length_b       6.32343
_cell_length_c       8.10235
_cell_angle_alpha    103.245
_cell_angle_beta     106.299
_cell_angle_gamma    119.921

_space_group_name_H-M_alt    "P 1"
_space_group_IT_number       1

loop_
  _space_group_symop_operation_xyz
  'x, y, z'

loop_
  _atom_site_type_symbol
  _atom_site_label
  _atom_site_symmetry_multiplicity
  _atom_site_fract_x
  _atom_site_fract_y
  _atom_site_fract_z
  _atom_site_occupancy
  Er  Er1       1.0  0.51585  0.52141  0.07224  1.0000
  H   H1        1.0  0.39418  0.26586  0.64783  1.0000
  H   H2        1.0  0.26290  0.41320  0.65140  1.0000
  H   H3        1.0  0.20621  0.68719  0.85951  1.0000
  H   H4        1.0  0.78298  0.29563  0.09517  1.0000
  H   H5        1.0  0.29395  0.78387  0.09124  1.0000
  H   H6        1.0  0.67006  0.20544  0.86165  1.0000
  H   H7        1.0  0.96548  0.98901  0.78044  1.0000
  H   H8        1.0  0.95841  0.74840  0.95103  1.0000
  C   C1        1.0  0.67506  0.90389  0.54718  1.0000
  C   C2        1.0  0.89548  0.69768  0.55108  1.0000
  C   C3        1.0  0.00362  0.93958  0.04758  1.0000
  N   N1        1.0  0.53872  0.80374  0.35685  1.0000
  N   N2        1.0  0.79655  0.55569  0.36127  1.0000
  N   N3        1.0  0.40382  0.90690  0.33826  1.0000
  N   N4        1.0  0.90434  0.42414  0.34642  1.0000
  N   N5        1.0  0.45828  0.05846  0.50792  1.0000
  N   N6        1.0  0.05755  0.48571  0.51719  1.0000
  N   N7        1.0  0.62838  0.06103  0.64422  1.0000
  N   N8        1.0  0.05799  0.65873  0.65105  1.0000
  N   N9        1.0  0.84312  0.86065  0.63782  1.0000
  O   O1        1.0  0.17093  0.15975  0.04952  1.0000
  O   O2        1.0  0.88010  0.92158  0.13977  1.0000
  O   O3        1.0  0.37354  0.38225  0.73698  1.0000
  O   O4        1.0  0.28968  0.67346  0.97873  1.0000
  O   O5        1.0  0.67641  0.30035  0.98484  1.0000
