data_image0
_chemical_formula_structural       GdH8C3N9O5
_chemical_formula_sum              "Gd1 H8 C3 N9 O5"
_cell_length_a       6.55563
_cell_length_b       6.55541
_cell_length_c       7.39566
_cell_angle_alpha    99.0585
_cell_angle_beta     99.0614
_cell_angle_gamma    119.185

_space_group_name_H-M_alt    "P 1"
_space_group_IT_number       1

loop_
  _space_group_symop_operation_xyz
  'x, y, z'

loop_
  _atom_site_type_symbol
  _atom_site_label
  _atom_site_symmetry_multiplicity
  _atom_site_fract_x
  _atom_site_fract_y
  _atom_site_fract_z
  _atom_site_occupancy
  Gd  Gd1       1.0  0.90890  0.90889  0.78314  1.0000
  H   H1        1.0  0.74404  0.60413  0.35526  1.0000
  H   H2        1.0  0.60413  0.74403  0.35526  1.0000
  H   H3        1.0  0.65165  0.15254  0.80351  1.0000
  H   H4        1.0  0.00793  0.52598  0.57281  1.0000
  H   H5        1.0  0.52599  0.00793  0.57281  1.0000
  H   H6        1.0  0.15254  0.65164  0.80351  1.0000
  H   H7        1.0  0.14300  0.14297  0.48568  1.0000
  H   H8        1.0  0.44754  0.44766  0.59436  1.0000
  C   C1        1.0  0.00046  0.21572  0.25721  1.0000
  C   C2        1.0  0.21567  0.00045  0.25721  1.0000
  C   C3        1.0  0.43092  0.43096  0.73923  1.0000
  N   N1        1.0  0.91495  0.17275  0.06922  1.0000
  N   N2        1.0  0.17275  0.91492  0.06923  1.0000
  N   N3        1.0  0.79654  0.29456  0.05429  1.0000
  N   N4        1.0  0.29459  0.79654  0.05429  1.0000
  N   N5        1.0  0.81232  0.40271  0.22421  1.0000
  N   N6        1.0  0.40275  0.81231  0.22421  1.0000
  N   N7        1.0  0.94092  0.35867  0.35686  1.0000
  N   N8        1.0  0.35865  0.94087  0.35683  1.0000
  N   N9        1.0  0.12915  0.12918  0.34343  1.0000
  O   O1        1.0  0.59771  0.59770  0.87804  1.0000
  O   O2        1.0  0.23985  0.23986  0.74490  1.0000
  O   O3        1.0  0.71567  0.71566  0.44294  1.0000
  O   O4        1.0  0.64669  0.03837  0.69448  1.0000
  O   O5        1.0  0.03838  0.64668  0.69447  1.0000
