data_image0
_chemical_formula_structural       Cu3H16C24N8O14
_chemical_formula_sum              "Cu3 H16 C24 N8 O14"
_cell_length_a       8.41045
_cell_length_b       8.43988
_cell_length_c       10.0943
_cell_angle_alpha    71.4946
_cell_angle_beta     87.6071
_cell_angle_gamma    83.0075

_space_group_name_H-M_alt    "P 1"
_space_group_IT_number       1

loop_
  _space_group_symop_operation_xyz
  'x, y, z'

loop_
  _atom_site_type_symbol
  _atom_site_label
  _atom_site_symmetry_multiplicity
  _atom_site_fract_x
  _atom_site_fract_y
  _atom_site_fract_z
  _atom_site_occupancy
  Cu  Cu1       1.0  0.50001  0.49999  0.00001  1.0000
  Cu  Cu2       1.0  0.02238  0.50157  0.34920  1.0000
  Cu  Cu3       1.0  0.97764  0.49838  0.65082  1.0000
  H   H1        1.0  0.57903  0.74006  0.26973  1.0000
  H   H2        1.0  0.42097  0.25996  0.73027  1.0000
  H   H3        1.0  0.12564  0.39868  0.07907  1.0000
  H   H4        1.0  0.87439  0.60132  0.92093  1.0000
  H   H5        1.0  0.49103  0.77934  0.68239  1.0000
  H   H6        1.0  0.50895  0.22067  0.31761  1.0000
  H   H7        1.0  0.57120  0.10987  0.08052  1.0000
  H   H8        1.0  0.42881  0.89008  0.91949  1.0000
  H   H9        1.0  0.95087  0.16240  0.15222  1.0000
  H   H10       1.0  0.04913  0.83762  0.84776  1.0000
  H   H11       1.0  0.05576  0.98547  0.27614  1.0000
  H   H12       1.0  0.94422  0.01455  0.72385  1.0000
  H   H13       1.0  0.90514  0.88965  0.12107  1.0000
  H   H14       1.0  0.09486  0.11035  0.87893  1.0000
  H   H15       1.0  0.11095  0.84776  0.08762  1.0000
  H   H16       1.0  0.88905  0.15224  0.91239  1.0000
  C   C1        1.0  0.36262  0.65146  0.36773  1.0000
  C   C2        1.0  0.63739  0.34856  0.63226  1.0000
  C   C3        1.0  0.50341  0.72428  0.36189  1.0000
  C   C4        1.0  0.49659  0.27574  0.63810  1.0000
  C   C5        1.0  0.31228  0.67349  0.60426  1.0000
  C   C6        1.0  0.68770  0.32652  0.39574  1.0000
  C   C7        1.0  0.26282  0.62705  0.48909  1.0000
  C   C8        1.0  0.73717  0.37296  0.51088  1.0000
  C   C9        1.0  0.21915  0.29606  0.08737  1.0000
  C   C10       1.0  0.78087  0.70392  0.91263  1.0000
  C   C11       1.0  0.45372  0.74699  0.59323  1.0000
  C   C12       1.0  0.54626  0.25302  0.40676  1.0000
  C   C13       1.0  0.23027  0.63863  0.74472  1.0000
  C   C14       1.0  0.76975  0.36136  0.25530  1.0000
  C   C15       1.0  0.54822  0.77187  0.47348  1.0000
  C   C16       1.0  0.45177  0.22816  0.52653  1.0000
  C   C17       1.0  0.44407  0.14450  0.09049  1.0000
  C   C18       1.0  0.55593  0.85547  0.90952  1.0000
  C   C19       1.0  0.04663  0.05827  0.16477  1.0000
  C   C20       1.0  0.95337  0.94173  0.83523  1.0000
  C   C21       1.0  0.01284  0.94947  0.07680  1.0000
  C   C22       1.0  0.98716  0.05053  0.92320  1.0000
  C   C23       1.0  0.33118  0.59633  0.24488  1.0000
  C   C24       1.0  0.66882  0.40367  0.75513  1.0000
  N   N1        1.0  0.37650  0.30681  0.06704  1.0000
  N   N2        1.0  0.62351  0.69317  0.93296  1.0000
  N   N3        1.0  0.19557  0.13374  0.12310  1.0000
  N   N4        1.0  0.80443  0.86625  0.87690  1.0000
  N   N5        1.0  0.70183  0.83623  0.46793  1.0000
  N   N6        1.0  0.29815  0.16380  0.53208  1.0000
  N   N7        1.0  0.33716  0.03521  0.12533  1.0000
  N   N8        1.0  0.66283  0.96477  0.87467  1.0000
  O   O1        1.0  0.19491  0.55567  0.22302  1.0000
  O   O2        1.0  0.80508  0.44425  0.77700  1.0000
  O   O3        1.0  0.12749  0.55702  0.49580  1.0000
  O   O4        1.0  0.87251  0.44301  0.50412  1.0000
  O   O5        1.0  0.28812  0.68434  0.83705  1.0000
  O   O6        1.0  0.71185  0.31573  0.16294  1.0000
  O   O7        1.0  0.10289  0.55998  0.77236  1.0000
  O   O8        1.0  0.89721  0.43991  0.22767  1.0000
  O   O9        1.0  0.44824  0.59331  0.16228  1.0000
  O   O10       1.0  0.55172  0.40674  0.83771  1.0000
  O   O11       1.0  0.74922  0.85973  0.57478  1.0000
  O   O12       1.0  0.25080  0.14025  0.42524  1.0000
  O   O13       1.0  0.78066  0.86116  0.35723  1.0000
  O   O14       1.0  0.21929  0.13894  0.64276  1.0000
