data_image0
_chemical_formula_structural       Cu4H28C44N4O12
_chemical_formula_sum              "Cu4 H28 C44 N4 O12"
_cell_length_a       9.89182
_cell_length_b       10.0154
_cell_length_c       10.7891
_cell_angle_alpha    75.6185
_cell_angle_beta     76.031
_cell_angle_gamma    87.0038

_space_group_name_H-M_alt    "P 1"
_space_group_IT_number       1

loop_
  _space_group_symop_operation_xyz
  'x, y, z'

loop_
  _atom_site_type_symbol
  _atom_site_label
  _atom_site_symmetry_multiplicity
  _atom_site_fract_x
  _atom_site_fract_y
  _atom_site_fract_z
  _atom_site_occupancy
  Cu  Cu1       1.0  0.32864  0.91764  0.12357  1.0000
  Cu  Cu2       1.0  0.67132  0.08234  0.87645  1.0000
  Cu  Cu3       1.0  0.50349  0.72758  0.13150  1.0000
  Cu  Cu4       1.0  0.49649  0.27247  0.86848  1.0000
  H   H1        1.0  0.57081  0.66187  0.74435  1.0000
  H   H2        1.0  0.42921  0.33816  0.25564  1.0000
  H   H3        1.0  0.57167  0.66468  0.51300  1.0000
  H   H4        1.0  0.42837  0.33535  0.48697  1.0000
  H   H5        1.0  0.27249  0.99168  0.50433  1.0000
  H   H6        1.0  0.72752  0.00834  0.49565  1.0000
  H   H7        1.0  0.27344  0.99173  0.73588  1.0000
  H   H8        1.0  0.72657  0.00829  0.26411  1.0000
  H   H9        1.0  0.22293  0.38730  0.42059  1.0000
  H   H10       1.0  0.77706  0.61270  0.57939  1.0000
  H   H11       1.0  0.95494  0.73725  0.37816  1.0000
  H   H12       1.0  0.04505  0.26275  0.62180  1.0000
  H   H13       1.0  0.21882  0.11442  0.29219  1.0000
  H   H14       1.0  0.78123  0.88560  0.70782  1.0000
  H   H15       1.0  0.03588  0.29224  0.30580  1.0000
  H   H16       1.0  0.96413  0.70778  0.69419  1.0000
  H   H17       1.0  0.96345  0.23025  0.94230  1.0000
  H   H18       1.0  0.03657  0.76973  0.05770  1.0000
  H   H19       1.0  0.15264  0.05936  0.94471  1.0000
  H   H20       1.0  0.84740  0.94062  0.05527  1.0000
  H   H21       1.0  0.69264  0.60250  0.30693  1.0000
  H   H22       1.0  0.30730  0.39747  0.69311  1.0000
  H   H23       1.0  0.87920  0.42921  0.31413  1.0000
  H   H24       1.0  0.12080  0.57078  0.68587  1.0000
  H   H25       1.0  0.82014  0.37126  0.94549  1.0000
  H   H26       1.0  0.17988  0.62872  0.05451  1.0000
  H   H27       1.0  0.63902  0.54888  0.95357  1.0000
  H   H28       1.0  0.36096  0.45108  0.04642  1.0000
  C   C1        1.0  0.42464  0.82967  0.75323  1.0000
  C   C2        1.0  0.57536  0.17035  0.24677  1.0000
  C   C3        1.0  0.50759  0.73601  0.69104  1.0000
  C   C4        1.0  0.49242  0.26400  0.30896  1.0000
  C   C5        1.0  0.50770  0.73700  0.56200  1.0000
  C   C6        1.0  0.49234  0.26302  0.43798  1.0000
  C   C7        1.0  0.42506  0.83097  0.49333  1.0000
  C   C8        1.0  0.57497  0.16905  0.50666  1.0000
  C   C9        1.0  0.33771  0.92029  0.55763  1.0000
  C   C10       1.0  0.66230  0.07972  0.44236  1.0000
  C   C11       1.0  0.33807  0.92018  0.68633  1.0000
  C   C12       1.0  0.66194  0.07982  0.31366  1.0000
  C   C13       1.0  0.42847  0.83369  0.88924  1.0000
  C   C14       1.0  0.57153  0.16631  0.11077  1.0000
  C   C15       1.0  0.20486  0.64381  0.27047  1.0000
  C   C16       1.0  0.79513  0.35619  0.72955  1.0000
  C   C17       1.0  0.09842  0.56872  0.38852  1.0000
  C   C18       1.0  0.90153  0.43125  0.61152  1.0000
  C   C19       1.0  0.12469  0.43514  0.45664  1.0000
  C   C20       1.0  0.87529  0.56483  0.54339  1.0000
  C   C21       1.0  0.97299  0.63331  0.43268  1.0000
  C   C22       1.0  0.02696  0.36669  0.56734  1.0000
  C   C23       1.0  0.15937  0.14482  0.21689  1.0000
  C   C24       1.0  0.84064  0.85521  0.78310  1.0000
  C   C25       1.0  0.05596  0.24367  0.22348  1.0000
  C   C26       1.0  0.94404  0.75638  0.77649  1.0000
  C   C27       1.0  0.98088  0.27921  0.12497  1.0000
  C   C28       1.0  0.01909  0.72083  0.87502  1.0000
  C   C29       1.0  0.01659  0.21079  0.02259  1.0000
  C   C30       1.0  0.98341  0.78923  0.97744  1.0000
  C   C31       1.0  0.12202  0.11364  0.02298  1.0000
  C   C32       1.0  0.87800  0.88636  0.97703  1.0000
  C   C33       1.0  0.43329  0.83844  0.35224  1.0000
  C   C34       1.0  0.56673  0.16156  0.64774  1.0000
  C   C35       1.0  0.72595  0.54908  0.22831  1.0000
  C   C36       1.0  0.27401  0.45090  0.77169  1.0000
  C   C37       1.0  0.83061  0.45130  0.23091  1.0000
  C   C38       1.0  0.16937  0.54868  0.76906  1.0000
  C   C39       1.0  0.87011  0.38399  0.12804  1.0000
  C   C40       1.0  0.12992  0.61596  0.87196  1.0000
  C   C41       1.0  0.79864  0.42071  0.02710  1.0000
  C   C42       1.0  0.20137  0.57927  0.97293  1.0000
  C   C43       1.0  0.69533  0.51974  0.03127  1.0000
  C   C44       1.0  0.30465  0.48025  0.96874  1.0000
  N   N1        1.0  0.19250  0.07998  0.11840  1.0000
  N   N2        1.0  0.80752  0.92003  0.88160  1.0000
  N   N3        1.0  0.65920  0.58419  0.12990  1.0000
  N   N4        1.0  0.34076  0.41578  0.87010  1.0000
  O   O1        1.0  0.35485  0.92456  0.93921  1.0000
  O   O2        1.0  0.64511  0.07541  0.06082  1.0000
  O   O3        1.0  0.50559  0.74707  0.94827  1.0000
  O   O4        1.0  0.49444  0.25292  0.05171  1.0000
  O   O5        1.0  0.16669  0.75695  0.20340  1.0000
  O   O6        1.0  0.83327  0.24306  0.79659  1.0000
  O   O7        1.0  0.32491  0.59024  0.24657  1.0000
  O   O8        1.0  0.67511  0.40977  0.75347  1.0000
  O   O9        1.0  0.34869  0.91867  0.29693  1.0000
  O   O10       1.0  0.65129  0.08131  0.70307  1.0000
  O   O11       1.0  0.52506  0.76619  0.29371  1.0000
  O   O12       1.0  0.47499  0.23381  0.70629  1.0000
