data_image0
_chemical_formula_structural       Zn2Ge2P6H30C12N4O24
_chemical_formula_sum              "Zn2 Ge2 P6 H30 C12 N4 O24"
_cell_length_a       9.28921
_cell_length_b       10.4401
_cell_length_c       9.74252
_cell_angle_alpha    105.564
_cell_angle_beta     96.2332
_cell_angle_gamma    120.351

_space_group_name_H-M_alt    "P 1"
_space_group_IT_number       1

loop_
  _space_group_symop_operation_xyz
  'x, y, z'

loop_
  _atom_site_type_symbol
  _atom_site_label
  _atom_site_symmetry_multiplicity
  _atom_site_fract_x
  _atom_site_fract_y
  _atom_site_fract_z
  _atom_site_occupancy
  Zn  Zn1       1.0  0.20899  0.73939  0.32772  1.0000
  Zn  Zn2       1.0  0.79101  0.26062  0.67229  1.0000
  Ge  Ge1       1.0  0.86623  0.04676  0.12811  1.0000
  Ge  Ge2       1.0  0.13376  0.95324  0.87188  1.0000
  P   P1        1.0  0.20061  0.38987  0.22941  1.0000
  P   P2        1.0  0.79939  0.61013  0.77059  1.0000
  P   P3        1.0  0.34346  0.01020  0.64010  1.0000
  P   P4        1.0  0.65654  0.98980  0.35989  1.0000
  P   P5        1.0  0.17236  0.99266  0.19684  1.0000
  P   P6        1.0  0.82764  0.00735  0.80315  1.0000
  H   H1        1.0  0.26779  0.10496  0.48976  1.0000
  H   H2        1.0  0.73221  0.89503  0.51023  1.0000
  H   H3        1.0  0.29161  0.29665  0.36740  1.0000
  H   H4        1.0  0.70837  0.70334  0.63259  1.0000
  H   H5        1.0  0.44923  0.34339  0.15134  1.0000
  H   H6        1.0  0.55077  0.65660  0.84866  1.0000
  H   H7        1.0  0.11500  0.45892  0.53326  1.0000
  H   H8        1.0  0.88500  0.54108  0.46674  1.0000
  H   H9        1.0  0.08310  0.59533  0.65830  1.0000
  H   H10       1.0  0.91691  0.40468  0.34172  1.0000
  H   H11       1.0  0.41354  0.66569  0.63053  1.0000
  H   H12       1.0  0.58646  0.33430  0.36948  1.0000
  H   H13       1.0  0.38301  0.77287  0.78665  1.0000
  H   H14       1.0  0.61700  0.22713  0.21335  1.0000
  H   H15       1.0  0.41393  0.73106  0.01861  1.0000
  H   H16       1.0  0.58607  0.26894  0.98139  1.0000
  H   H17       1.0  0.38464  0.54582  0.00942  1.0000
  H   H18       1.0  0.61536  0.45418  0.99060  1.0000
  H   H19       1.0  0.08774  0.43507  0.95039  1.0000
  H   H20       1.0  0.91227  0.56493  0.04962  1.0000
  H   H21       1.0  0.10993  0.60134  0.91344  1.0000
  H   H22       1.0  0.89007  0.39866  0.08656  1.0000
  H   H23       1.0  0.08717  0.23870  0.57858  1.0000
  H   H24       1.0  0.91283  0.76130  0.42141  1.0000
  H   H25       1.0  0.11619  0.24748  0.76454  1.0000
  H   H26       1.0  0.88380  0.75251  0.23545  1.0000
  H   H27       1.0  0.41530  0.39015  0.79789  1.0000
  H   H28       1.0  0.58470  0.60985  0.20212  1.0000
  H   H29       1.0  0.39302  0.42201  0.62888  1.0000
  H   H30       1.0  0.60698  0.57798  0.37112  1.0000
  C   C1        1.0  0.14767  0.53192  0.65016  1.0000
  C   C2        1.0  0.85233  0.46808  0.34986  1.0000
  C   C3        1.0  0.34682  0.65359  0.71659  1.0000
  C   C4        1.0  0.65319  0.34641  0.28343  1.0000
  C   C5        1.0  0.34842  0.60434  0.94829  1.0000
  C   C6        1.0  0.65158  0.39566  0.05171  1.0000
  C   C7        1.0  0.14885  0.51660  0.89311  1.0000
  C   C8        1.0  0.85114  0.48339  0.10689  1.0000
  C   C9        1.0  0.15094  0.31929  0.69595  1.0000
  C   C10       1.0  0.84906  0.68071  0.30405  1.0000
  C   C11       1.0  0.34977  0.42352  0.72887  1.0000
  C   C12       1.0  0.65023  0.57649  0.27114  1.0000
  N   N1        1.0  0.41313  0.59409  0.81424  1.0000
  N   N2        1.0  0.58687  0.40592  0.18577  1.0000
  N   N3        1.0  0.08138  0.42089  0.73027  1.0000
  N   N4        1.0  0.91864  0.57911  0.26973  1.0000
  O   O1        1.0  0.21729  0.54587  0.25748  1.0000
  O   O2        1.0  0.78271  0.45413  0.74252  1.0000
  O   O3        1.0  0.28908  0.39596  0.38255  1.0000
  O   O4        1.0  0.71091  0.60404  0.61745  1.0000
  O   O5        1.0  0.99141  0.25735  0.19626  1.0000
  O   O6        1.0  0.00858  0.74265  0.80372  1.0000
  O   O7        1.0  0.26124  0.33175  0.10483  1.0000
  O   O8        1.0  0.73876  0.66825  0.89517  1.0000
  O   O9        1.0  0.24421  0.83190  0.54560  1.0000
  O   O10       1.0  0.75580  0.16810  0.45441  1.0000
  O   O11       1.0  0.31456  0.02577  0.80352  1.0000
  O   O12       1.0  0.68544  0.97423  0.19647  1.0000
  O   O13       1.0  0.53668  0.11033  0.66841  1.0000
  O   O14       1.0  0.46332  0.88968  0.33159  1.0000
  O   O15       1.0  0.24851  0.08577  0.58484  1.0000
  O   O16       1.0  0.75149  0.91422  0.41515  1.0000
  O   O17       1.0  0.14981  0.83878  0.19186  1.0000
  O   O18       1.0  0.85019  0.16121  0.80814  1.0000
  O   O19       1.0  0.28667  0.13881  0.34023  1.0000
  O   O20       1.0  0.71333  0.86119  0.65976  1.0000
  O   O21       1.0  0.24802  0.03745  0.06460  1.0000
  O   O22       1.0  0.75197  0.96254  0.93539  1.0000
  O   O23       1.0  0.98086  0.95877  0.15678  1.0000
  O   O24       1.0  0.01914  0.04124  0.84322  1.0000
