data_image0
_chemical_formula_structural       ZnH16C14N14
_chemical_formula_sum              "Zn1 H16 C14 N14"
_cell_length_a       6.9853
_cell_length_b       9.22679
_cell_length_c       9.19296
_cell_angle_alpha    120.121
_cell_angle_beta     108.139
_cell_angle_gamma    90.0004

_space_group_name_H-M_alt    "P 1"
_space_group_IT_number       1

loop_
  _space_group_symop_operation_xyz
  'x, y, z'

loop_
  _atom_site_type_symbol
  _atom_site_label
  _atom_site_symmetry_multiplicity
  _atom_site_fract_x
  _atom_site_fract_y
  _atom_site_fract_z
  _atom_site_occupancy
  Zn  Zn1       1.0  0.00000  0.50000  0.00000  1.0000
  H   H1        1.0  0.37799  0.55131  0.86535  1.0000
  H   H2        1.0  0.62202  0.68597  0.13468  1.0000
  H   H3        1.0  0.62200  0.44869  0.13465  1.0000
  H   H4        1.0  0.37798  0.31403  0.86532  1.0000
  H   H5        1.0  0.34014  0.69496  0.65685  1.0000
  H   H6        1.0  0.65987  0.03810  0.34317  1.0000
  H   H7        1.0  0.65985  0.30504  0.34315  1.0000
  H   H8        1.0  0.34014  0.96190  0.65683  1.0000
  H   H9        1.0  0.78650  0.67094  0.74984  1.0000
  H   H10       1.0  0.21350  0.92111  0.25015  1.0000
  H   H11       1.0  0.21351  0.32907  0.25017  1.0000
  H   H12       1.0  0.78651  0.07890  0.74986  1.0000
  H   H13       1.0  0.99253  0.72644  0.45288  1.0000
  H   H14       1.0  0.00747  0.27356  0.54712  1.0000
  H   H15       1.0  0.78916  0.77035  0.54070  1.0000
  H   H16       1.0  0.21084  0.22965  0.45930  1.0000
  C   C1        1.0  0.24896  0.59792  0.81220  1.0000
  C   C2        1.0  0.75105  0.78571  0.18781  1.0000
  C   C3        1.0  0.75104  0.40208  0.18780  1.0000
  C   C4        1.0  0.24895  0.21429  0.81218  1.0000
  C   C5        1.0  0.23513  0.67010  0.71118  1.0000
  C   C6        1.0  0.76488  0.95893  0.28884  1.0000
  C   C7        1.0  0.76487  0.32990  0.28882  1.0000
  C   C8        1.0  0.23513  0.04108  0.71116  1.0000
  C   C9        1.0  0.94301  0.65764  0.75704  1.0000
  C   C10       1.0  0.05699  0.90061  0.24296  1.0000
  C   C11       1.0  0.05699  0.34236  0.24297  1.0000
  C   C12       1.0  0.94302  0.09939  0.75704  1.0000
  C   C13       1.0  0.95641  0.78799  0.57598  1.0000
  C   C14       1.0  0.04359  0.21201  0.42402  1.0000
  N   N1        1.0  0.06596  0.58987  0.83905  1.0000
  N   N2        1.0  0.93405  0.75082  0.16096  1.0000
  N   N3        1.0  0.93404  0.41013  0.16095  1.0000
  N   N4        1.0  0.06596  0.24918  0.83904  1.0000
  N   N5        1.0  0.04027  0.70798  0.67765  1.0000
  N   N6        1.0  0.95973  0.03033  0.32235  1.0000
  N   N7        1.0  0.95973  0.29202  0.32235  1.0000
  N   N8        1.0  0.04027  0.96967  0.67765  1.0000
  N   N9        1.0  0.32628  0.58543  0.17086  1.0000
  N   N10       1.0  0.67372  0.41457  0.82913  1.0000
  N   N11       1.0  0.39524  0.66569  0.33138  1.0000
  N   N12       1.0  0.60476  0.33431  0.66861  1.0000
  N   N13       1.0  0.46927  0.74528  0.49055  1.0000
  N   N14       1.0  0.53073  0.25472  0.50945  1.0000
