data_image0
_chemical_formula_structural       Ag2P2H38C46I2N2
_chemical_formula_sum              "Ag2 P2 H38 C46 I2 N2"
_cell_length_a       9.14226
_cell_length_b       9.64579
_cell_length_c       12.9621
_cell_angle_alpha    105.462
_cell_angle_beta     109.315
_cell_angle_gamma    92.1876

_space_group_name_H-M_alt    "P 1"
_space_group_IT_number       1

loop_
  _space_group_symop_operation_xyz
  'x, y, z'

loop_
  _atom_site_type_symbol
  _atom_site_label
  _atom_site_symmetry_multiplicity
  _atom_site_fract_x
  _atom_site_fract_y
  _atom_site_fract_z
  _atom_site_occupancy
  Ag  Ag1       1.0  0.04573  0.98616  0.89659  1.0000
  Ag  Ag2       1.0  0.95427  0.01384  0.10341  1.0000
  P   P1        1.0  0.00193  0.78391  0.72948  1.0000
  P   P2        1.0  0.99807  0.21609  0.27052  1.0000
  H   H1        1.0  0.05185  0.30634  0.86445  1.0000
  H   H2        1.0  0.94815  0.69366  0.13555  1.0000
  H   H3        1.0  0.23432  0.52574  0.90507  1.0000
  H   H4        1.0  0.76568  0.47426  0.09493  1.0000
  H   H5        1.0  0.61073  0.30034  0.05707  1.0000
  H   H6        1.0  0.38927  0.69966  0.94294  1.0000
  H   H7        1.0  0.41203  0.09180  0.00826  1.0000
  H   H8        1.0  0.58797  0.90820  0.99174  1.0000
  H   H9        1.0  0.29417  0.94596  0.77103  1.0000
  H   H10       1.0  0.70583  0.05404  0.22897  1.0000
  H   H11       1.0  0.54621  0.87900  0.75385  1.0000
  H   H12       1.0  0.45379  0.12100  0.24615  1.0000
  H   H13       1.0  0.58234  0.61809  0.69785  1.0000
  H   H14       1.0  0.41766  0.38191  0.30216  1.0000
  H   H15       1.0  0.36621  0.42567  0.66159  1.0000
  H   H16       1.0  0.63379  0.57433  0.33841  1.0000
  H   H17       1.0  0.11171  0.49273  0.67199  1.0000
  H   H18       1.0  0.88829  0.50727  0.32801  1.0000
  H   H19       1.0  0.95311  0.66850  0.90165  1.0000
  H   H20       1.0  0.04689  0.33149  0.09835  1.0000
  H   H21       1.0  0.81058  0.43586  0.89104  1.0000
  H   H22       1.0  0.18942  0.56414  0.10896  1.0000
  H   H23       1.0  0.66314  0.25790  0.70403  1.0000
  H   H24       1.0  0.33685  0.74210  0.29597  1.0000
  H   H25       1.0  0.65243  0.31185  0.52278  1.0000
  H   H26       1.0  0.34757  0.68815  0.47722  1.0000
  H   H27       1.0  0.79795  0.53925  0.53280  1.0000
  H   H28       1.0  0.20205  0.46074  0.46720  1.0000
  H   H29       1.0  0.71345  0.89478  0.64169  1.0000
  H   H30       1.0  0.28655  0.10522  0.35831  1.0000
  H   H31       1.0  0.56768  0.93096  0.45327  1.0000
  H   H32       1.0  0.43232  0.06904  0.54673  1.0000
  H   H33       1.0  0.68028  0.87906  0.29897  1.0000
  H   H34       1.0  0.31972  0.12094  0.70103  1.0000
  H   H35       1.0  0.94370  0.79789  0.33538  1.0000
  H   H36       1.0  0.05630  0.20211  0.66462  1.0000
  H   H37       1.0  0.08446  0.75315  0.51958  1.0000
  H   H38       1.0  0.91554  0.24685  0.48042  1.0000
  C   C1        1.0  0.17763  0.30936  0.90578  1.0000
  C   C2        1.0  0.82237  0.69064  0.09422  1.0000
  C   C3        1.0  0.28125  0.43258  0.92967  1.0000
  C   C4        1.0  0.71875  0.56742  0.07034  1.0000
  C   C5        1.0  0.44257  0.43543  0.98573  1.0000
  C   C6        1.0  0.55743  0.56458  0.01427  1.0000
  C   C7        1.0  0.48894  0.30914  0.01379  1.0000
  C   C8        1.0  0.51106  0.69087  0.98621  1.0000
  C   C9        1.0  0.37769  0.19011  0.98592  1.0000
  C   C10       1.0  0.62231  0.80989  0.01408  1.0000
  C   C11       1.0  0.18501  0.72403  0.72023  1.0000
  C   C12       1.0  0.81499  0.27597  0.27977  1.0000
  C   C13       1.0  0.30921  0.83188  0.74402  1.0000
  C   C14       1.0  0.69079  0.16812  0.25598  1.0000
  C   C15       1.0  0.45038  0.79388  0.73392  1.0000
  C   C16       1.0  0.54962  0.20612  0.26609  1.0000
  C   C17       1.0  0.47115  0.64765  0.70394  1.0000
  C   C18       1.0  0.52885  0.35235  0.29606  1.0000
  C   C19       1.0  0.35014  0.53992  0.68376  1.0000
  C   C20       1.0  0.64985  0.46008  0.31624  1.0000
  C   C21       1.0  0.20680  0.57764  0.69054  1.0000
  C   C22       1.0  0.79320  0.42236  0.30946  1.0000
  C   C23       1.0  0.88695  0.61790  0.71787  1.0000
  C   C24       1.0  0.11305  0.38210  0.28213  1.0000
  C   C25       1.0  0.88875  0.58901  0.81886  1.0000
  C   C26       1.0  0.11125  0.41099  0.18114  1.0000
  C   C27       1.0  0.80866  0.45933  0.81292  1.0000
  C   C28       1.0  0.19134  0.54068  0.18708  1.0000
  C   C29       1.0  0.72473  0.35868  0.70690  1.0000
  C   C30       1.0  0.27527  0.64132  0.29310  1.0000
  C   C31       1.0  0.72000  0.38820  0.60613  1.0000
  C   C32       1.0  0.28000  0.61180  0.39387  1.0000
  C   C33       1.0  0.80157  0.51701  0.61161  1.0000
  C   C34       1.0  0.19843  0.48299  0.38839  1.0000
  C   C35       1.0  0.90650  0.81694  0.59190  1.0000
  C   C36       1.0  0.09350  0.18306  0.40809  1.0000
  C   C37       1.0  0.76188  0.87028  0.57331  1.0000
  C   C38       1.0  0.23812  0.12972  0.42669  1.0000
  C   C39       1.0  0.68111  0.89189  0.46813  1.0000
  C   C40       1.0  0.31889  0.10810  0.53187  1.0000
  C   C41       1.0  0.74494  0.86395  0.38150  1.0000
  C   C42       1.0  0.25506  0.13605  0.61849  1.0000
  C   C43       1.0  0.89137  0.81680  0.40136  1.0000
  C   C44       1.0  0.10863  0.18320  0.59864  1.0000
  C   C45       1.0  0.97139  0.79229  0.50569  1.0000
  C   C46       1.0  0.02861  0.20771  0.49431  1.0000
  I   I1        1.0  0.77905  0.11907  0.91113  1.0000
  I   I2        1.0  0.22095  0.88093  0.08886  1.0000
  N   N1        1.0  0.22385  0.18875  0.93297  1.0000
  N   N2        1.0  0.77615  0.81125  0.06703  1.0000
