data_image0
_chemical_formula_structural       Cu4P4H16C16S4Br4O16
_chemical_formula_sum              "Cu4 P4 H16 C16 S4 Br4 O16"
_cell_length_a       7.37031
_cell_length_b       7.54786
_cell_length_c       15.8555
_cell_angle_alpha    90.0183
_cell_angle_beta     100.573
_cell_angle_gamma    90.0224

_space_group_name_H-M_alt    "P 1"
_space_group_IT_number       1

loop_
  _space_group_symop_operation_xyz
  'x, y, z'

loop_
  _atom_site_type_symbol
  _atom_site_label
  _atom_site_symmetry_multiplicity
  _atom_site_fract_x
  _atom_site_fract_y
  _atom_site_fract_z
  _atom_site_occupancy
  Cu  Cu1       1.0  0.55318  0.68944  0.97772  1.0000
  Cu  Cu2       1.0  0.94699  0.18981  0.02208  1.0000
  Cu  Cu3       1.0  0.44712  0.31054  0.02221  1.0000
  Cu  Cu4       1.0  0.05273  0.81030  0.97799  1.0000
  P   P1        1.0  0.60466  0.04539  0.89837  1.0000
  P   P2        1.0  0.89442  0.54556  0.10150  1.0000
  P   P3        1.0  0.39550  0.95444  0.10165  1.0000
  P   P4        1.0  0.10539  0.45430  0.89849  1.0000
  H   H1        1.0  0.58084  0.44407  0.88034  1.0000
  H   H2        1.0  0.91890  0.94445  0.11945  1.0000
  H   H3        1.0  0.41912  0.55587  0.11943  1.0000
  H   H4        1.0  0.08125  0.05563  0.88077  1.0000
  H   H5        1.0  0.74862  0.57700  0.88078  1.0000
  H   H6        1.0  0.75174  0.07788  0.11910  1.0000
  H   H7        1.0  0.25145  0.42287  0.11911  1.0000
  H   H8        1.0  0.24829  0.92206  0.88104  1.0000
  H   H9        1.0  0.44978  0.79865  0.75039  1.0000
  H   H10       1.0  0.04913  0.29852  0.24914  1.0000
  H   H11       1.0  0.55037  0.20129  0.24959  1.0000
  H   H12       1.0  0.95064  0.70142  0.75084  1.0000
  H   H13       1.0  0.53903  0.82138  0.59629  1.0000
  H   H14       1.0  0.96053  0.32116  0.40342  1.0000
  H   H15       1.0  0.46068  0.17896  0.40362  1.0000
  H   H16       1.0  0.03976  0.67915  0.59666  1.0000
  C   C1        1.0  0.62291  0.02908  0.78795  1.0000
  C   C2        1.0  0.87634  0.52914  0.21190  1.0000
  C   C3        1.0  0.37741  0.97070  0.21207  1.0000
  C   C4        1.0  0.12327  0.47064  0.78806  1.0000
  C   C5        1.0  0.53986  0.89969  0.73159  1.0000
  C   C6        1.0  0.95930  0.39957  0.26812  1.0000
  C   C7        1.0  0.46030  0.10029  0.26840  1.0000
  C   C8        1.0  0.04048  0.60038  0.73186  1.0000
  C   C9        1.0  0.58899  0.91032  0.64943  1.0000
  C   C10       1.0  0.91054  0.41016  0.35035  1.0000
  C   C11       1.0  0.41096  0.08982  0.35053  1.0000
  C   C12       1.0  0.08950  0.58997  0.64968  1.0000
  C   C13       1.0  0.70915  0.04885  0.64515  1.0000
  C   C14       1.0  0.79076  0.54882  0.35483  1.0000
  C   C15       1.0  0.29084  0.95128  0.35482  1.0000
  C   C16       1.0  0.20927  0.45129  0.64521  1.0000
  S   S1        1.0  0.76148  0.16567  0.73946  1.0000
  S   S2        1.0  0.73834  0.66586  0.26063  1.0000
  S   S3        1.0  0.23881  0.83417  0.26058  1.0000
  S   S4        1.0  0.26135  0.33400  0.73934  1.0000
  Br  Br1       1.0  0.81940  0.11117  0.55158  1.0000
  Br  Br2       1.0  0.68125  0.61125  0.44860  1.0000
  Br  Br3       1.0  0.18019  0.88930  0.44830  1.0000
  Br  Br4       1.0  0.31930  0.38922  0.55154  1.0000
  O   O1        1.0  0.46550  0.89896  0.91147  1.0000
  O   O2        1.0  0.03415  0.39979  0.08838  1.0000
  O   O3        1.0  0.53465  0.10089  0.08852  1.0000
  O   O4        1.0  0.96574  0.60018  0.91163  1.0000
  O   O5        1.0  0.52893  0.23061  0.91479  1.0000
  O   O6        1.0  0.96891  0.73132  0.08505  1.0000
  O   O7        1.0  0.47113  0.76922  0.08515  1.0000
  O   O8        1.0  0.03083  0.26859  0.91498  1.0000
  O   O9        1.0  0.79578  0.00765  0.95374  1.0000
  O   O10       1.0  0.70358  0.50686  0.04600  1.0000
  O   O11       1.0  0.20426  0.99225  0.04643  1.0000
  O   O12       1.0  0.29635  0.49294  0.95387  1.0000
  O   O13       1.0  0.60961  0.57123  0.87202  1.0000
  O   O14       1.0  0.89075  0.07177  0.12776  1.0000
  O   O15       1.0  0.39044  0.42869  0.12782  1.0000
  O   O16       1.0  0.10931  0.92828  0.87242  1.0000
