data_image0
_chemical_formula_structural       H16W2C20N4O6
_chemical_formula_sum              "H16 W2 C20 N4 O6"
_cell_length_a       7.36529
_cell_length_b       8.5329
_cell_length_c       8.5329
_cell_angle_alpha    67.2954
_cell_angle_beta     79.8986
_cell_angle_gamma    79.8985

_space_group_name_H-M_alt    "P 1"
_space_group_IT_number       1

loop_
  _space_group_symop_operation_xyz
  'x, y, z'

loop_
  _atom_site_type_symbol
  _atom_site_label
  _atom_site_symmetry_multiplicity
  _atom_site_fract_x
  _atom_site_fract_y
  _atom_site_fract_z
  _atom_site_occupancy
  H   H1        1.0  0.37668  0.55359  0.94633  1.0000
  H   H2        1.0  0.87667  0.94634  0.55359  1.0000
  H   H3        1.0  0.39387  0.70177  0.62554  1.0000
  H   H4        1.0  0.89386  0.62555  0.70177  1.0000
  H   H5        1.0  0.47957  0.51637  0.44532  1.0000
  H   H6        1.0  0.97958  0.44532  0.51638  1.0000
  H   H7        1.0  0.56555  0.20818  0.58575  1.0000
  H   H8        1.0  0.06555  0.58575  0.20819  1.0000
  H   H9        1.0  0.60140  0.95169  0.71800  1.0000
  H   H10       1.0  0.10140  0.71799  0.95169  1.0000
  H   H11       1.0  0.68788  0.64385  0.89792  1.0000
  H   H12       1.0  0.18788  0.89791  0.64385  1.0000
  H   H13       1.0  0.67337  0.55768  0.21241  1.0000
  H   H14       1.0  0.17338  0.21241  0.55768  1.0000
  H   H15       1.0  0.57635  0.78758  0.34015  1.0000
  H   H16       1.0  0.07635  0.34015  0.78759  1.0000
  W   W1        1.0  0.46696  0.18871  0.23633  1.0000
  W   W2        1.0  0.96696  0.23633  0.18870  1.0000
  C   C1        1.0  0.41836  0.48340  0.86058  1.0000
  C   C2        1.0  0.91836  0.86059  0.48340  1.0000
  C   C3        1.0  0.42620  0.56343  0.68341  1.0000
  C   C4        1.0  0.92620  0.68342  0.56344  1.0000
  C   C5        1.0  0.47827  0.46287  0.58356  1.0000
  C   C6        1.0  0.97827  0.58357  0.46287  1.0000
  C   C7        1.0  0.52469  0.28748  0.66287  1.0000
  C   C8        1.0  0.02469  0.66287  0.28749  1.0000
  C   C9        1.0  0.51473  0.21602  0.84121  1.0000
  C   C10       1.0  0.01473  0.84121  0.21602  1.0000
  C   C11       1.0  0.55662  0.03114  0.93582  1.0000
  C   C12       1.0  0.05662  0.93582  0.03114  1.0000
  C   C13       1.0  0.60263  0.91143  0.85569  1.0000
  C   C14       1.0  0.10263  0.85568  0.91144  1.0000
  C   C15       1.0  0.64679  0.74015  0.95565  1.0000
  C   C16       1.0  0.14679  0.95564  0.74016  1.0000
  C   C17       1.0  0.63872  0.69070  0.13224  1.0000
  C   C18       1.0  0.13873  0.13223  0.69070  1.0000
  C   C19       1.0  0.58584  0.81606  0.20323  1.0000
  C   C20       1.0  0.08584  0.20322  0.81606  1.0000
  N   N1        1.0  0.46217  0.31423  0.93748  1.0000
  N   N2        1.0  0.96217  0.93749  0.31423  1.0000
  N   N3        1.0  0.54739  0.98187  0.10753  1.0000
  N   N4        1.0  0.04739  0.10754  0.98187  1.0000
  O   O1        1.0  0.22452  0.14728  0.22093  1.0000
  O   O2        1.0  0.72452  0.22094  0.14727  1.0000
  O   O3        1.0  0.50280  0.03029  0.43930  1.0000
  O   O4        1.0  0.00281  0.43930  0.03028  1.0000
  O   O5        1.0  0.40128  0.38367  0.26792  1.0000
  O   O6        1.0  0.90128  0.26793  0.38366  1.0000
