data_image0
_chemical_formula_structural       Mn6H18C18N18Cl6O6
_chemical_formula_sum              "Mn6 H18 C18 N18 Cl6 O6"
_cell_length_a       8.27667
_cell_length_b       14.2855
_cell_length_c       14.2805
_cell_angle_alpha    116.543
_cell_angle_beta     101.472
_cell_angle_gamma    101.463

_space_group_name_H-M_alt    "P 1"
_space_group_IT_number       1

loop_
  _space_group_symop_operation_xyz
  'x, y, z'

loop_
  _atom_site_type_symbol
  _atom_site_label
  _atom_site_symmetry_multiplicity
  _atom_site_fract_x
  _atom_site_fract_y
  _atom_site_fract_z
  _atom_site_occupancy
  Mn  Mn1       1.0  0.71369  0.70768  0.43355  1.0000
  Mn  Mn2       1.0  0.99414  0.70500  0.28247  1.0000
  Mn  Mn3       1.0  0.28081  0.56652  0.27791  1.0000
  Mn  Mn4       1.0  0.28070  0.27765  0.56650  1.0000
  Mn  Mn5       1.0  0.99411  0.28231  0.70508  1.0000
  Mn  Mn6       1.0  0.71361  0.43320  0.70769  1.0000
  H   H1        1.0  0.75618  0.87537  0.64738  1.0000
  H   H2        1.0  0.93352  0.85486  0.24495  1.0000
  H   H3        1.0  0.09745  0.35846  0.20441  1.0000
  H   H4        1.0  0.10829  0.85200  0.22176  1.0000
  H   H5        1.0  0.94002  0.87164  0.64133  1.0000
  H   H6        1.0  0.29734  0.37838  0.23194  1.0000
  H   H7        1.0  0.29716  0.23151  0.37831  1.0000
  H   H8        1.0  0.10824  0.22173  0.85230  1.0000
  H   H9        1.0  0.93936  0.64276  0.86993  1.0000
  H   H10       1.0  0.93347  0.24494  0.85507  1.0000
  H   H11       1.0  0.09724  0.20395  0.35832  1.0000
  H   H12       1.0  0.75499  0.64783  0.87342  1.0000
  H   H13       1.0  0.79910  0.99190  0.56293  1.0000
  H   H14       1.0  0.79897  0.56318  0.99195  1.0000
  H   H15       1.0  0.23442  0.41434  0.41441  1.0000
  H   H16       1.0  0.17982  0.99203  0.42600  1.0000
  H   H17       1.0  0.78841  0.57361  0.57381  1.0000
  H   H18       1.0  0.17992  0.42593  0.99219  1.0000
  C   C1        1.0  0.52408  0.89399  0.46830  1.0000
  C   C2        1.0  0.62640  0.56305  0.08911  1.0000
  C   C3        1.0  0.06894  0.51672  0.41901  1.0000
  C   C4        1.0  0.35030  0.89272  0.42625  1.0000
  C   C5        1.0  0.94601  0.56232  0.46593  1.0000
  C   C6        1.0  0.45216  0.52350  0.08820  1.0000
  C   C7        1.0  0.45206  0.08802  0.52358  1.0000
  C   C8        1.0  0.35032  0.42619  0.89282  1.0000
  C   C9        1.0  0.94597  0.46573  0.56238  1.0000
  C   C10       1.0  0.62636  0.08896  0.56309  1.0000
  C   C11       1.0  0.06889  0.41883  0.51674  1.0000
  C   C12       1.0  0.52404  0.46829  0.89407  1.0000
  C   C13       1.0  0.66615  0.99138  0.53671  1.0000
  C   C14       1.0  0.66611  0.53675  0.99149  1.0000
  C   C15       1.0  0.13238  0.44315  0.44323  1.0000
  C   C16       1.0  0.31064  0.99024  0.45328  1.0000
  C   C17       1.0  0.88193  0.53866  0.53881  1.0000
  C   C18       1.0  0.31072  0.45321  0.99039  1.0000
  N   N1        1.0  0.51867  0.78624  0.42792  1.0000
  N   N2        1.0  0.73061  0.62614  0.19830  1.0000
  N   N3        1.0  0.10385  0.56073  0.35345  1.0000
  N   N4        1.0  0.24705  0.78282  0.35979  1.0000
  N   N5        1.0  0.91026  0.63050  0.42758  1.0000
  N   N6        1.0  0.45974  0.56649  0.19706  1.0000
  N   N7        1.0  0.45960  0.19683  0.56657  1.0000
  N   N8        1.0  0.24705  0.35967  0.78290  1.0000
  N   N9        1.0  0.91016  0.42730  0.63050  1.0000
  N   N10       1.0  0.73054  0.19810  0.62617  1.0000
  N   N11       1.0  0.10372  0.35320  0.56067  1.0000
  N   N12       1.0  0.51858  0.42788  0.78627  1.0000
  N   N13       1.0  0.35432  0.72139  0.36141  1.0000
  N   N14       1.0  0.62636  0.62607  0.25876  1.0000
  N   N15       1.0  0.00225  0.62700  0.35915  1.0000
  N   N16       1.0  0.62624  0.25853  0.62612  1.0000
  N   N17       1.0  0.35425  0.36129  0.72142  1.0000
  N   N18       1.0  0.00212  0.35887  0.62695  1.0000
  Cl  Cl1       1.0  0.47962  0.54625  0.40318  1.0000
  Cl  Cl2       1.0  0.92726  0.84870  0.41448  1.0000
  Cl  Cl3       1.0  0.07235  0.57455  0.15357  1.0000
  Cl  Cl4       1.0  0.47943  0.40259  0.54591  1.0000
  Cl  Cl5       1.0  0.07237  0.15343  0.57466  1.0000
  Cl  Cl6       1.0  0.92718  0.41435  0.84878  1.0000
  O   O1        1.0  0.82338  0.82492  0.62566  1.0000
  O   O2        1.0  0.98683  0.80623  0.19690  1.0000
  O   O3        1.0  0.19658  0.37792  0.18164  1.0000
  O   O4        1.0  0.19639  0.18121  0.37782  1.0000
  O   O5        1.0  0.98682  0.19691  0.80646  1.0000
  O   O6        1.0  0.82198  0.62540  0.82295  1.0000
