data_image0
_chemical_formula_structural       Cd2H40C28N8O16
_chemical_formula_sum              "Cd2 H40 C28 N8 O16"
_cell_length_a       7.2556
_cell_length_b       9.09141
_cell_length_c       13.3597
_cell_angle_alpha    90
_cell_angle_beta     90.0001
_cell_angle_gamma    96.3693

_space_group_name_H-M_alt    "P 1"
_space_group_IT_number       1

loop_
  _space_group_symop_operation_xyz
  'x, y, z'

loop_
  _atom_site_type_symbol
  _atom_site_label
  _atom_site_symmetry_multiplicity
  _atom_site_fract_x
  _atom_site_fract_y
  _atom_site_fract_z
  _atom_site_occupancy
  Cd  Cd1       1.0  0.50000  0.50000  0.50000  1.0000
  Cd  Cd2       1.0  0.00000  0.50000  1.00000  1.0000
  H   H1        1.0  0.73101  0.66293  0.34182  1.0000
  H   H2        1.0  0.76899  0.33708  0.84182  1.0000
  H   H3        1.0  0.26899  0.33707  0.65818  1.0000
  H   H4        1.0  0.23101  0.66293  0.15818  1.0000
  H   H5        1.0  0.88023  0.60160  0.41335  1.0000
  H   H6        1.0  0.61977  0.39840  0.91335  1.0000
  H   H7        1.0  0.11977  0.39840  0.58665  1.0000
  H   H8        1.0  0.38023  0.60160  0.08665  1.0000
  H   H9        1.0  0.53789  0.51050  0.73543  1.0000
  H   H10       1.0  0.96211  0.48951  0.23543  1.0000
  H   H11       1.0  0.46211  0.48951  0.26456  1.0000
  H   H12       1.0  0.03790  0.51049  0.76457  1.0000
  H   H13       1.0  0.55887  0.68921  0.87530  1.0000
  H   H14       1.0  0.94113  0.31079  0.37530  1.0000
  H   H15       1.0  0.44112  0.31079  0.12470  1.0000
  H   H16       1.0  0.05888  0.68921  0.62470  1.0000
  H   H17       1.0  0.56206  0.04008  0.65648  1.0000
  H   H18       1.0  0.93794  0.95992  0.15648  1.0000
  H   H19       1.0  0.43794  0.95992  0.34352  1.0000
  H   H20       1.0  0.06207  0.04008  0.84352  1.0000
  H   H21       1.0  0.54324  0.84378  0.52367  1.0000
  H   H22       1.0  0.95676  0.15622  0.02367  1.0000
  H   H23       1.0  0.45676  0.15622  0.47633  1.0000
  H   H24       1.0  0.04325  0.84378  0.97633  1.0000
  H   H25       1.0  0.69772  0.06554  0.85678  1.0000
  H   H26       1.0  0.80227  0.93446  0.35678  1.0000
  H   H27       1.0  0.30228  0.93446  0.14322  1.0000
  H   H28       1.0  0.19772  0.06554  0.64322  1.0000
  H   H29       1.0  0.46260  0.07395  0.83655  1.0000
  H   H30       1.0  0.03739  0.92605  0.33655  1.0000
  H   H31       1.0  0.53740  0.92605  0.16345  1.0000
  H   H32       1.0  0.96261  0.07395  0.66345  1.0000
  H   H33       1.0  0.40167  0.85222  0.96286  1.0000
  H   H34       1.0  0.09832  0.14778  0.46286  1.0000
  H   H35       1.0  0.59832  0.14778  0.03714  1.0000
  H   H36       1.0  0.90168  0.85222  0.53714  1.0000
  H   H37       1.0  0.63845  0.88447  0.99277  1.0000
  H   H38       1.0  0.86155  0.11553  0.49278  1.0000
  H   H39       1.0  0.36155  0.11552  0.00723  1.0000
  H   H40       1.0  0.13845  0.88448  0.50723  1.0000
  C   C1        1.0  0.54629  0.62904  0.72069  1.0000
  C   C2        1.0  0.95370  0.37096  0.22069  1.0000
  C   C3        1.0  0.45370  0.37096  0.27931  1.0000
  C   C4        1.0  0.04630  0.62904  0.77931  1.0000
  C   C5        1.0  0.55711  0.73050  0.79885  1.0000
  C   C6        1.0  0.94289  0.26949  0.29886  1.0000
  C   C7        1.0  0.44289  0.26950  0.20115  1.0000
  C   C8        1.0  0.05712  0.73050  0.70115  1.0000
  C   C9        1.0  0.56088  0.88168  0.77806  1.0000
  C   C10       1.0  0.93912  0.11832  0.27807  1.0000
  C   C11       1.0  0.43912  0.11832  0.22193  1.0000
  C   C12       1.0  0.06088  0.88168  0.72193  1.0000
  C   C13       1.0  0.55816  0.92339  0.67684  1.0000
  C   C14       1.0  0.94184  0.07661  0.17684  1.0000
  C   C15       1.0  0.44184  0.07661  0.32316  1.0000
  C   C16       1.0  0.05815  0.92339  0.82316  1.0000
  C   C17       1.0  0.54811  0.81582  0.60289  1.0000
  C   C18       1.0  0.95189  0.18418  0.10289  1.0000
  C   C19       1.0  0.45189  0.18419  0.39711  1.0000
  C   C20       1.0  0.04811  0.81581  0.89711  1.0000
  C   C21       1.0  0.56246  0.99693  0.85845  1.0000
  C   C22       1.0  0.93753  0.00307  0.35845  1.0000
  C   C23       1.0  0.43754  0.00307  0.14156  1.0000
  C   C24       1.0  0.06246  0.99693  0.64155  1.0000
  C   C25       1.0  0.52049  0.93867  0.96403  1.0000
  C   C26       1.0  0.97950  0.06132  0.46403  1.0000
  C   C27       1.0  0.47951  0.06132  0.03598  1.0000
  C   C28       1.0  0.02050  0.93868  0.53597  1.0000
  N   N1        1.0  0.54068  0.67018  0.62411  1.0000
  N   N2        1.0  0.95932  0.32982  0.12411  1.0000
  N   N3        1.0  0.45932  0.32982  0.37589  1.0000
  N   N4        1.0  0.04069  0.67018  0.87590  1.0000
  N   N5        1.0  0.21609  0.65827  0.36698  1.0000
  N   N6        1.0  0.28391  0.34173  0.86698  1.0000
  N   N7        1.0  0.78391  0.34173  0.63301  1.0000
  N   N8        1.0  0.71609  0.65827  0.13301  1.0000
  O   O1        1.0  0.38589  0.69324  0.39006  1.0000
  O   O2        1.0  0.11411  0.30676  0.89006  1.0000
  O   O3        1.0  0.61411  0.30676  0.60994  1.0000
  O   O4        1.0  0.88589  0.69324  0.10994  1.0000
  O   O5        1.0  0.11487  0.57192  0.42423  1.0000
  O   O6        1.0  0.38513  0.42808  0.92423  1.0000
  O   O7        1.0  0.88513  0.42808  0.57577  1.0000
  O   O8        1.0  0.61487  0.57191  0.07577  1.0000
  O   O9        1.0  0.15025  0.70930  0.28857  1.0000
  O   O10       1.0  0.34975  0.29070  0.78857  1.0000
  O   O11       1.0  0.84975  0.29070  0.71143  1.0000
  O   O12       1.0  0.65025  0.70930  0.21143  1.0000
  O   O13       1.0  0.75249  0.63066  0.41064  1.0000
  O   O14       1.0  0.74751  0.36934  0.91064  1.0000
  O   O15       1.0  0.24751  0.36934  0.58936  1.0000
  O   O16       1.0  0.25249  0.63066  0.08936  1.0000
