data_image0
_chemical_formula_structural       H24Pb3C28N4Cl6
_chemical_formula_sum              "H24 Pb3 C28 N4 Cl6"
_cell_length_a       7.34701
_cell_length_b       10.3844
_cell_length_c       10.8059
_cell_angle_alpha    78.9684
_cell_angle_beta     76.2217
_cell_angle_gamma    87.3261

_space_group_name_H-M_alt    "P 1"
_space_group_IT_number       1

loop_
  _space_group_symop_operation_xyz
  'x, y, z'

loop_
  _atom_site_type_symbol
  _atom_site_label
  _atom_site_symmetry_multiplicity
  _atom_site_fract_x
  _atom_site_fract_y
  _atom_site_fract_z
  _atom_site_occupancy
  H   H1        1.0  0.33571  0.50438  0.13084  1.0000
  H   H2        1.0  0.66429  0.49562  0.86916  1.0000
  H   H3        1.0  0.31043  0.49079  0.97311  1.0000
  H   H4        1.0  0.68958  0.50921  0.02689  1.0000
  H   H5        1.0  0.11169  0.52019  0.09611  1.0000
  H   H6        1.0  0.88831  0.47981  0.90389  1.0000
  H   H7        1.0  0.46539  0.67396  0.82169  1.0000
  H   H8        1.0  0.53461  0.32604  0.17831  1.0000
  H   H9        1.0  0.50437  0.91676  0.75399  1.0000
  H   H10       1.0  0.49563  0.08324  0.24601  1.0000
  H   H11       1.0  0.42173  0.14003  0.80117  1.0000
  H   H12       1.0  0.57827  0.85998  0.19883  1.0000
  H   H13       1.0  0.25165  0.28131  0.95014  1.0000
  H   H14       1.0  0.74835  0.71869  0.04986  1.0000
  H   H15       1.0  0.04392  0.30353  0.16623  1.0000
  H   H16       1.0  0.95608  0.69646  0.83377  1.0000
  H   H17       1.0  0.84017  0.19691  0.37549  1.0000
  H   H18       1.0  0.15983  0.80309  0.62451  1.0000
  H   H19       1.0  0.66059  0.88592  0.43983  1.0000
  H   H20       1.0  0.33941  0.11408  0.56017  1.0000
  H   H21       1.0  0.71647  0.00663  0.52227  1.0000
  H   H22       1.0  0.28353  0.99337  0.47773  1.0000
  H   H23       1.0  0.84797  0.85824  0.51808  1.0000
  H   H24       1.0  0.15203  0.14176  0.48192  1.0000
  Pb  Pb1       1.0  0.50000  0.50000  0.50000  1.0000
  Pb  Pb2       1.0  0.03947  0.67149  0.33074  1.0000
  Pb  Pb3       1.0  0.96053  0.32851  0.66926  1.0000
  C   C1        1.0  0.26116  0.54227  0.05428  1.0000
  C   C2        1.0  0.73884  0.45773  0.94572  1.0000
  C   C3        1.0  0.28806  0.68692  0.01037  1.0000
  C   C4        1.0  0.71194  0.31308  0.98963  1.0000
  C   C5        1.0  0.39909  0.73968  0.88671  1.0000
  C   C6        1.0  0.60091  0.26032  0.11328  1.0000
  C   C7        1.0  0.41864  0.87375  0.84888  1.0000
  C   C8        1.0  0.58136  0.12625  0.15112  1.0000
  C   C9        1.0  0.32545  0.95727  0.93272  1.0000
  C   C10       1.0  0.67454  0.04273  0.06728  1.0000
  C   C11       1.0  0.33694  0.09693  0.89635  1.0000
  C   C12       1.0  0.66306  0.90307  0.10365  1.0000
  C   C13       1.0  0.24407  0.17494  0.97924  1.0000
  C   C14       1.0  0.75593  0.82506  0.02076  1.0000
  C   C15       1.0  0.13229  0.11902  0.10370  1.0000
  C   C16       1.0  0.86771  0.88098  0.89631  1.0000
  C   C17       1.0  0.03328  0.19696  0.19132  1.0000
  C   C18       1.0  0.96672  0.80304  0.80868  1.0000
  C   C19       1.0  0.92041  0.13827  0.30758  1.0000
  C   C20       1.0  0.07959  0.86173  0.69242  1.0000
  C   C21       1.0  0.90581  0.00013  0.33895  1.0000
  C   C22       1.0  0.09419  0.99987  0.66105  1.0000
  C   C23       1.0  0.77629  0.93462  0.46161  1.0000
  C   C24       1.0  0.22371  0.06538  0.53839  1.0000
  C   C25       1.0  0.11535  0.98024  0.14322  1.0000
  C   C26       1.0  0.88465  0.01976  0.85678  1.0000
  C   C27       1.0  0.21611  0.89740  0.05608  1.0000
  C   C28       1.0  0.78389  0.10260  0.94392  1.0000
  N   N1        1.0  0.20172  0.76474  0.09229  1.0000
  N   N2        1.0  0.79828  0.23526  0.90771  1.0000
  N   N3        1.0  0.00399  0.92441  0.25897  1.0000
  N   N4        1.0  0.99601  0.07559  0.74103  1.0000
  Cl  Cl1       1.0  0.76981  0.52517  0.25438  1.0000
  Cl  Cl2       1.0  0.23019  0.47483  0.74562  1.0000
  Cl  Cl3       1.0  0.21795  0.40485  0.39099  1.0000
  Cl  Cl4       1.0  0.78205  0.59515  0.60901  1.0000
  Cl  Cl5       1.0  0.35630  0.75684  0.40501  1.0000
  Cl  Cl6       1.0  0.64370  0.24316  0.59499  1.0000
