data_image0
_chemical_formula_structural       CdH22C34S2N4O6
_chemical_formula_sum              "Cd1 H22 C34 S2 N4 O6"
_cell_length_a       8.28348
_cell_length_b       8.93938
_cell_length_c       9.70708
_cell_angle_alpha    96.4419
_cell_angle_beta     92.1843
_cell_angle_gamma    104.287

_space_group_name_H-M_alt    "P 1"
_space_group_IT_number       1

loop_
  _space_group_symop_operation_xyz
  'x, y, z'

loop_
  _atom_site_type_symbol
  _atom_site_label
  _atom_site_symmetry_multiplicity
  _atom_site_fract_x
  _atom_site_fract_y
  _atom_site_fract_z
  _atom_site_occupancy
  Cd  Cd1       1.0  1.00000  0.50000  0.50000  1.0000
  H   H1        1.0  0.61575  0.42592  0.63005  1.0000
  H   H2        1.0  0.38425  0.57408  0.36996  1.0000
  H   H3        1.0  0.46885  0.26931  0.80510  1.0000
  H   H4        1.0  0.53115  0.73068  0.19490  1.0000
  H   H5        1.0  0.60348  0.08346  0.91129  1.0000
  H   H6        1.0  0.39652  0.91653  0.08871  1.0000
  H   H7        1.0  0.83852  0.95596  0.91601  1.0000
  H   H8        1.0  0.16148  0.04403  0.08399  1.0000
  H   H9        1.0  0.09322  0.90516  0.80963  1.0000
  H   H10       1.0  0.90679  0.09484  0.19037  1.0000
  H   H11       1.0  0.30350  0.96007  0.63754  1.0000
  H   H12       1.0  0.69651  0.03993  0.36246  1.0000
  H   H13       1.0  0.42454  0.12238  0.44897  1.0000
  H   H14       1.0  0.57546  0.87763  0.55103  1.0000
  H   H15       1.0  0.30397  0.33753  0.39740  1.0000
  H   H16       1.0  0.69603  0.66248  0.60260  1.0000
  H   H17       1.0  0.92899  0.53292  0.11061  1.0000
  H   H18       1.0  0.07100  0.46708  0.88939  1.0000
  H   H19       1.0  0.91506  0.70276  0.92527  1.0000
  H   H20       1.0  0.08493  0.29725  0.07473  1.0000
  H   H21       1.0  0.64028  0.72101  0.82864  1.0000
  H   H22       1.0  0.35972  0.27899  0.17136  1.0000
  C   C1        1.0  0.67323  0.34527  0.67760  1.0000
  C   C2        1.0  0.32676  0.65472  0.32240  1.0000
  C   C3        1.0  0.59002  0.25558  0.77567  1.0000
  C   C4        1.0  0.40998  0.74441  0.22432  1.0000
  C   C5        1.0  0.66393  0.15289  0.83356  1.0000
  C   C6        1.0  0.33607  0.84710  0.16644  1.0000
  C   C7        1.0  0.81825  0.13438  0.78732  1.0000
  C   C8        1.0  0.18176  0.86561  0.21268  1.0000
  C   C9        1.0  0.89650  0.02213  0.83522  1.0000
  C   C10       1.0  0.10351  0.97787  0.16478  1.0000
  C   C11       1.0  0.03641  0.99504  0.77831  1.0000
  C   C12       1.0  0.96360  0.00496  0.22169  1.0000
  C   C13       1.0  0.11104  0.08211  0.67176  1.0000
  C   C14       1.0  0.88897  0.91789  0.32824  1.0000
  C   C15       1.0  0.25036  0.05180  0.60507  1.0000
  C   C16       1.0  0.74964  0.94821  0.39493  1.0000
  C   C17       1.0  0.31735  0.14063  0.50365  1.0000
  C   C18       1.0  0.68266  0.85937  0.49635  1.0000
  C   C19       1.0  0.24760  0.26183  0.47212  1.0000
  C   C20       1.0  0.75240  0.73818  0.52788  1.0000
  C   C21       1.0  0.04383  0.20259  0.62868  1.0000
  C   C22       1.0  0.95617  0.79741  0.37132  1.0000
  C   C23       1.0  0.89239  0.22723  0.68550  1.0000
  C   C24       1.0  0.10762  0.77277  0.31451  1.0000
  C   C25       1.0  0.66496  0.44774  0.10956  1.0000
  C   C26       1.0  0.33503  0.55226  0.89044  1.0000
  C   C27       1.0  0.80887  0.53799  0.06479  1.0000
  C   C28       1.0  0.19112  0.46201  0.93522  1.0000
  C   C29       1.0  0.79982  0.63536  0.96167  1.0000
  C   C30       1.0  0.20018  0.36464  0.03834  1.0000
  C   C31       1.0  0.64706  0.64321  0.90588  1.0000
  C   C32       1.0  0.35294  0.35679  0.09412  1.0000
  C   C33       1.0  0.50395  0.44924  0.05202  1.0000
  C   C34       1.0  0.49605  0.55076  0.94798  1.0000
  S   S1        1.0  0.68409  0.33276  0.24632  1.0000
  S   S2        1.0  0.31591  0.66724  0.75368  1.0000
  N   N1        1.0  0.82123  0.33361  0.63547  1.0000
  N   N2        1.0  0.17877  0.66639  0.36453  1.0000
  N   N3        1.0  0.11524  0.29160  0.53200  1.0000
  N   N4        1.0  0.88476  0.70840  0.46800  1.0000
  O   O1        1.0  0.59946  0.39348  0.36161  1.0000
  O   O2        1.0  0.40053  0.60651  0.63839  1.0000
  O   O3        1.0  0.60674  0.17024  0.19060  1.0000
  O   O4        1.0  0.39325  0.82976  0.80940  1.0000
  O   O5        1.0  0.86674  0.36045  0.27881  1.0000
  O   O6        1.0  0.13326  0.63955  0.72119  1.0000
