data_image0
_chemical_formula_structural       Ag8H16C24N32
_chemical_formula_sum              "Ag8 H16 C24 N32"
_cell_length_a       3.62432
_cell_length_b       12.7024
_cell_length_c       19.8267
_cell_angle_alpha    89.9995
_cell_angle_beta     89.9997
_cell_angle_gamma    89.9999

_space_group_name_H-M_alt    "P 1"
_space_group_IT_number       1

loop_
  _space_group_symop_operation_xyz
  'x, y, z'

loop_
  _atom_site_type_symbol
  _atom_site_label
  _atom_site_symmetry_multiplicity
  _atom_site_fract_x
  _atom_site_fract_y
  _atom_site_fract_z
  _atom_site_occupancy
  Ag  Ag1       1.0  0.80568  0.84847  0.74463  1.0000
  Ag  Ag2       1.0  0.19429  0.15153  0.24463  1.0000
  Ag  Ag3       1.0  0.69431  0.34847  0.74463  1.0000
  Ag  Ag4       1.0  0.30571  0.65153  0.24463  1.0000
  Ag  Ag5       1.0  0.67228  0.64127  0.63362  1.0000
  Ag  Ag6       1.0  0.32773  0.35872  0.13363  1.0000
  Ag  Ag7       1.0  0.82770  0.14128  0.63363  1.0000
  Ag  Ag8       1.0  0.17229  0.85872  0.13362  1.0000
  H   H1        1.0  0.22289  0.55629  0.95241  1.0000
  H   H2        1.0  0.77711  0.44371  0.45241  1.0000
  H   H3        1.0  0.27712  0.05629  0.95241  1.0000
  H   H4        1.0  0.72288  0.94371  0.45241  1.0000
  H   H5        1.0  0.35282  0.64757  0.06130  1.0000
  H   H6        1.0  0.64717  0.35243  0.56130  1.0000
  H   H7        1.0  0.14719  0.14758  0.06130  1.0000
  H   H8        1.0  0.85282  0.85242  0.56130  1.0000
  H   H9        1.0  0.89018  0.92540  0.99312  1.0000
  H   H10       1.0  0.10981  0.07460  0.49312  1.0000
  H   H11       1.0  0.60982  0.42540  0.99312  1.0000
  H   H12       1.0  0.39019  0.57459  0.49312  1.0000
  H   H13       1.0  0.76481  0.85023  0.87989  1.0000
  H   H14       1.0  0.23518  0.14977  0.37989  1.0000
  H   H15       1.0  0.73519  0.35023  0.87989  1.0000
  H   H16       1.0  0.26482  0.64977  0.37989  1.0000
  C   C1        1.0  0.98156  0.69521  0.90683  1.0000
  C   C2        1.0  0.01844  0.30479  0.40683  1.0000
  C   C3        1.0  0.51844  0.19521  0.90683  1.0000
  C   C4        1.0  0.48155  0.80479  0.40683  1.0000
  C   C5        1.0  0.14950  0.63866  0.95925  1.0000
  C   C6        1.0  0.85050  0.36134  0.45925  1.0000
  C   C7        1.0  0.35052  0.13866  0.95925  1.0000
  C   C8        1.0  0.64949  0.86134  0.45925  1.0000
  C   C9        1.0  0.21976  0.68886  0.02003  1.0000
  C   C10       1.0  0.78024  0.31114  0.52003  1.0000
  C   C11       1.0  0.28026  0.18886  0.02003  1.0000
  C   C12       1.0  0.71975  0.81114  0.52003  1.0000
  C   C13       1.0  0.96989  0.84485  0.98105  1.0000
  C   C14       1.0  0.03011  0.15515  0.48105  1.0000
  C   C15       1.0  0.53012  0.34485  0.98105  1.0000
  C   C16       1.0  0.46989  0.65515  0.48104  1.0000
  C   C17       1.0  0.89753  0.80150  0.91811  1.0000
  C   C18       1.0  0.10246  0.19851  0.41811  1.0000
  C   C19       1.0  0.60248  0.30150  0.91811  1.0000
  C   C20       1.0  0.39753  0.69850  0.41811  1.0000
  C   C21       1.0  0.88770  0.64121  0.84418  1.0000
  C   C22       1.0  0.11230  0.35879  0.34418  1.0000
  C   C23       1.0  0.61229  0.14121  0.84418  1.0000
  C   C24       1.0  0.38770  0.85879  0.34418  1.0000
  N   N1        1.0  0.80584  0.68705  0.78462  1.0000
  N   N2        1.0  0.19415  0.31295  0.28462  1.0000
  N   N3        1.0  0.69415  0.18705  0.78462  1.0000
  N   N4        1.0  0.30585  0.81295  0.28462  1.0000
  N   N5        1.0  0.73000  0.60803  0.74206  1.0000
  N   N6        1.0  0.27001  0.39197  0.24206  1.0000
  N   N7        1.0  0.76999  0.10803  0.74206  1.0000
  N   N8        1.0  0.23000  0.89197  0.24206  1.0000
  N   N9        1.0  0.76254  0.51714  0.77550  1.0000
  N   N10       1.0  0.23748  0.48286  0.27550  1.0000
  N   N11       1.0  0.73746  0.01714  0.77550  1.0000
  N   N12       1.0  0.26253  0.98286  0.27550  1.0000
  N   N13       1.0  0.86147  0.53568  0.83906  1.0000
  N   N14       1.0  0.13855  0.46432  0.33906  1.0000
  N   N15       1.0  0.63853  0.03568  0.83906  1.0000
  N   N16       1.0  0.36145  0.96432  0.33906  1.0000
  N   N17       1.0  0.12664  0.78991  0.03166  1.0000
  N   N18       1.0  0.87336  0.21009  0.53166  1.0000
  N   N19       1.0  0.37339  0.28991  0.03166  1.0000
  N   N20       1.0  0.62663  0.71009  0.53166  1.0000
  N   N21       1.0  0.28983  0.85213  0.66351  1.0000
  N   N22       1.0  0.71014  0.14787  0.16351  1.0000
  N   N23       1.0  0.21017  0.35213  0.66351  1.0000
  N   N24       1.0  0.78986  0.64786  0.16351  1.0000
  N   N25       1.0  0.30595  0.93087  0.63059  1.0000
  N   N26       1.0  0.69403  0.06913  0.13059  1.0000
  N   N27       1.0  0.19404  0.43087  0.63059  1.0000
  N   N28       1.0  0.80597  0.56913  0.13059  1.0000
  N   N29       1.0  0.32279  0.00771  0.59695  1.0000
  N   N30       1.0  0.67721  0.99230  0.09695  1.0000
  N   N31       1.0  0.17721  0.50771  0.59695  1.0000
  N   N32       1.0  0.82280  0.49229  0.09695  1.0000
