data_image0
_chemical_formula_structural       Zn4H28C32N4O24
_chemical_formula_sum              "Zn4 H28 C32 N4 O24"
_cell_length_a       4.91909
_cell_length_b       10.8924
_cell_length_c       17.2247
_cell_angle_alpha    90
_cell_angle_beta     90
_cell_angle_gamma    89.9999

_space_group_name_H-M_alt    "P 1"
_space_group_IT_number       1

loop_
  _space_group_symop_operation_xyz
  'x, y, z'

loop_
  _atom_site_type_symbol
  _atom_site_label
  _atom_site_symmetry_multiplicity
  _atom_site_fract_x
  _atom_site_fract_y
  _atom_site_fract_z
  _atom_site_occupancy
  Zn  Zn1       1.0  0.01932  0.27343  0.47812  1.0000
  Zn  Zn2       1.0  0.51932  0.72657  0.52188  1.0000
  Zn  Zn3       1.0  0.51932  0.77343  0.02188  1.0000
  Zn  Zn4       1.0  0.01932  0.22657  0.97812  1.0000
  H   H1        1.0  0.11491  0.48455  0.57473  1.0000
  H   H2        1.0  0.61491  0.51545  0.42527  1.0000
  H   H3        1.0  0.61491  0.98456  0.92527  1.0000
  H   H4        1.0  0.11491  0.01545  0.07473  1.0000
  H   H5        1.0  0.85636  0.49535  0.51696  1.0000
  H   H6        1.0  0.35636  0.50465  0.48304  1.0000
  H   H7        1.0  0.35636  0.99535  0.98304  1.0000
  H   H8        1.0  0.85636  0.00465  0.01696  1.0000
  H   H9        1.0  0.87658  0.62284  0.25676  1.0000
  H   H10       1.0  0.37658  0.37716  0.74324  1.0000
  H   H11       1.0  0.37658  0.12284  0.24324  1.0000
  H   H12       1.0  0.87658  0.87716  0.75676  1.0000
  H   H13       1.0  0.09637  0.70673  0.13643  1.0000
  H   H14       1.0  0.59637  0.29327  0.86357  1.0000
  H   H15       1.0  0.59637  0.20673  0.36357  1.0000
  H   H16       1.0  0.09637  0.79327  0.63643  1.0000
  H   H17       1.0  0.44291  0.32375  0.25382  1.0000
  H   H18       1.0  0.94291  0.67625  0.74618  1.0000
  H   H19       1.0  0.94290  0.82375  0.24618  1.0000
  H   H20       1.0  0.44290  0.17626  0.75382  1.0000
  H   H21       1.0  0.76463  0.30962  0.15917  1.0000
  H   H22       1.0  0.26463  0.69038  0.84083  1.0000
  H   H23       1.0  0.26462  0.80962  0.34083  1.0000
  H   H24       1.0  0.76463  0.19038  0.65917  1.0000
  H   H25       1.0  0.80486  0.42742  0.08862  1.0000
  H   H26       1.0  0.30486  0.57258  0.91138  1.0000
  H   H27       1.0  0.30486  0.92742  0.41138  1.0000
  H   H28       1.0  0.80486  0.07258  0.58862  1.0000
  C   C1        1.0  0.01461  0.42039  0.33732  1.0000
  C   C2        1.0  0.51460  0.57960  0.66268  1.0000
  C   C3        1.0  0.51460  0.92039  0.16268  1.0000
  C   C4        1.0  0.01461  0.07961  0.83732  1.0000
  C   C5        1.0  0.14796  0.46875  0.26566  1.0000
  C   C6        1.0  0.64796  0.53125  0.73434  1.0000
  C   C7        1.0  0.64796  0.96875  0.23434  1.0000
  C   C8        1.0  0.14796  0.03126  0.76566  1.0000
  C   C9        1.0  0.05144  0.57768  0.23026  1.0000
  C   C10       1.0  0.55144  0.42232  0.76974  1.0000
  C   C11       1.0  0.55144  0.07768  0.26973  1.0000
  C   C12       1.0  0.05144  0.92232  0.73027  1.0000
  C   C13       1.0  0.17164  0.62379  0.16457  1.0000
  C   C14       1.0  0.67164  0.37621  0.83543  1.0000
  C   C15       1.0  0.67164  0.12379  0.33543  1.0000
  C   C16       1.0  0.17164  0.87621  0.66457  1.0000
  C   C17       1.0  0.38989  0.55966  0.12777  1.0000
  C   C18       1.0  0.88989  0.44034  0.87223  1.0000
  C   C19       1.0  0.88989  0.05966  0.37223  1.0000
  C   C20       1.0  0.38990  0.94034  0.62777  1.0000
  C   C21       1.0  0.35926  0.40811  0.23023  1.0000
  C   C22       1.0  0.85926  0.59189  0.76977  1.0000
  C   C23       1.0  0.85925  0.90811  0.26977  1.0000
  C   C24       1.0  0.35925  0.09189  0.73023  1.0000
  C   C25       1.0  0.65557  0.37083  0.11929  1.0000
  C   C26       1.0  0.15556  0.62917  0.88071  1.0000
  C   C27       1.0  0.15556  0.87083  0.38071  1.0000
  C   C28       1.0  0.65556  0.12917  0.61929  1.0000
  C   C29       1.0  0.49567  0.29482  0.05983  1.0000
  C   C30       1.0  0.99567  0.70518  0.94016  1.0000
  C   C31       1.0  0.99566  0.79482  0.44016  1.0000
  C   C32       1.0  0.49567  0.20518  0.55984  1.0000
  N   N1        1.0  0.47249  0.44989  0.16350  1.0000
  N   N2        1.0  0.97249  0.55011  0.83650  1.0000
  N   N3        1.0  0.97248  0.94989  0.33650  1.0000
  N   N4        1.0  0.47249  0.05011  0.66350  1.0000
  O   O1        1.0  0.14132  0.33512  0.37443  1.0000
  O   O2        1.0  0.64131  0.66488  0.62557  1.0000
  O   O3        1.0  0.64132  0.83512  0.12557  1.0000
  O   O4        1.0  0.14132  0.16488  0.87443  1.0000
  O   O5        1.0  0.78715  0.46587  0.35451  1.0000
  O   O6        1.0  0.28715  0.53413  0.64549  1.0000
  O   O7        1.0  0.28714  0.96587  0.14549  1.0000
  O   O8        1.0  0.78715  0.03414  0.85451  1.0000
  O   O9        1.0  0.62137  0.23641  0.00749  1.0000
  O   O10       1.0  0.12137  0.76359  0.99251  1.0000
  O   O11       1.0  0.12137  0.73642  0.49251  1.0000
  O   O12       1.0  0.62137  0.26358  0.50749  1.0000
  O   O13       1.0  0.23881  0.29434  0.06696  1.0000
  O   O14       1.0  0.73881  0.70566  0.93304  1.0000
  O   O15       1.0  0.73881  0.79434  0.43304  1.0000
  O   O16       1.0  0.23881  0.20566  0.56696  1.0000
  O   O17       1.0  0.50929  0.59090  0.06589  1.0000
  O   O18       1.0  0.00929  0.40910  0.93411  1.0000
  O   O19       1.0  0.00930  0.09090  0.43411  1.0000
  O   O20       1.0  0.50930  0.90910  0.56589  1.0000
  O   O21       1.0  0.03459  0.45476  0.52430  1.0000
  O   O22       1.0  0.53459  0.54524  0.47570  1.0000
  O   O23       1.0  0.53459  0.95476  0.97570  1.0000
  O   O24       1.0  0.03459  0.04524  0.02430  1.0000
