data_image0
_chemical_formula_structural       V8Cu6H8C8N12O24
_chemical_formula_sum              "V8 Cu6 H8 C8 N12 O24"
_cell_length_a       8.84194
_cell_length_b       8.89826
_cell_length_c       11.4237
_cell_angle_alpha    111.904
_cell_angle_beta     89.9986
_cell_angle_gamma    90.0076

_space_group_name_H-M_alt    "P 1"
_space_group_IT_number       1

loop_
  _space_group_symop_operation_xyz
  'x, y, z'

loop_
  _atom_site_type_symbol
  _atom_site_label
  _atom_site_symmetry_multiplicity
  _atom_site_fract_x
  _atom_site_fract_y
  _atom_site_fract_z
  _atom_site_occupancy
  V   V1        1.0  0.68071  0.19782  0.01861  1.0000
  V   V2        1.0  0.18062  0.30215  0.48161  1.0000
  V   V3        1.0  0.31903  0.80186  0.98147  1.0000
  V   V4        1.0  0.81927  0.69804  0.51866  1.0000
  V   V5        1.0  0.84747  0.08507  0.73407  1.0000
  V   V6        1.0  0.34719  0.41476  0.76618  1.0000
  V   V7        1.0  0.15239  0.91508  0.26602  1.0000
  V   V8        1.0  0.65247  0.58481  0.23416  1.0000
  Cu  Cu1       1.0  0.00005  0.00007  0.00037  1.0000
  Cu  Cu2       1.0  0.49999  0.50015  0.49991  1.0000
  Cu  Cu3       1.0  0.70873  0.88002  0.11483  1.0000
  Cu  Cu4       1.0  0.20935  0.61990  0.38497  1.0000
  Cu  Cu5       1.0  0.29082  0.11952  0.88505  1.0000
  Cu  Cu6       1.0  0.79123  0.38029  0.61471  1.0000
  H   H1        1.0  0.68105  0.51036  0.89719  1.0000
  H   H2        1.0  0.18078  0.98924  0.60229  1.0000
  H   H3        1.0  0.31960  0.48883  0.10190  1.0000
  H   H4        1.0  0.81886  0.01066  0.39748  1.0000
  H   H5        1.0  0.03566  0.68213  0.73384  1.0000
  H   H6        1.0  0.53528  0.81837  0.76627  1.0000
  H   H7        1.0  0.96532  0.31902  0.26682  1.0000
  H   H8        1.0  0.46458  0.18173  0.23342  1.0000
  C   C1        1.0  0.77137  0.58381  0.88296  1.0000
  C   C2        1.0  0.27117  0.91613  0.61681  1.0000
  C   C3        1.0  0.22923  0.41580  0.11662  1.0000
  C   C4        1.0  0.72861  0.08402  0.38305  1.0000
  C   C5        1.0  0.95248  0.67055  0.79951  1.0000
  C   C6        1.0  0.45224  0.82990  0.70055  1.0000
  C   C7        1.0  0.04820  0.33008  0.20078  1.0000
  C   C8        1.0  0.54762  0.17042  0.29928  1.0000
  N   N1        1.0  0.81421  0.72600  0.96739  1.0000
  N   N2        1.0  0.31444  0.77412  0.53244  1.0000
  N   N3        1.0  0.18581  0.27369  0.03251  1.0000
  N   N4        1.0  0.68571  0.22628  0.46729  1.0000
  N   N5        1.0  0.92886  0.78083  0.91454  1.0000
  N   N6        1.0  0.42903  0.71956  0.58547  1.0000
  N   N7        1.0  0.07126  0.21939  0.08580  1.0000
  N   N8        1.0  0.57117  0.28093  0.41424  1.0000
  N   N9        1.0  0.85475  0.54566  0.77598  1.0000
  N   N10       1.0  0.35423  0.95444  0.72396  1.0000
  N   N11       1.0  0.14627  0.45451  0.22385  1.0000
  N   N12       1.0  0.64533  0.04560  0.27600  1.0000
  O   O1        1.0  0.71533  0.17670  0.85985  1.0000
  O   O2        1.0  0.21496  0.32312  0.64046  1.0000
  O   O3        1.0  0.28486  0.82358  0.14041  1.0000
  O   O4        1.0  0.78472  0.67660  0.35985  1.0000
  O   O5        1.0  0.72922  0.39566  0.12421  1.0000
  O   O6        1.0  0.22919  0.10428  0.37607  1.0000
  O   O7        1.0  0.27050  0.60401  0.87622  1.0000
  O   O8        1.0  0.77076  0.89584  0.62403  1.0000
  O   O9        1.0  0.78400  0.05301  0.05604  1.0000
  O   O10       1.0  0.28393  0.44703  0.44432  1.0000
  O   O11       1.0  0.21592  0.94677  0.94399  1.0000
  O   O12       1.0  0.71588  0.55319  0.55612  1.0000
  O   O13       1.0  0.50184  0.16749  0.03241  1.0000
  O   O14       1.0  0.00177  0.33220  0.46735  1.0000
  O   O15       1.0  0.49789  0.83156  0.96711  1.0000
  O   O16       1.0  0.99816  0.66791  0.53256  1.0000
  O   O17       1.0  0.88116  0.20829  0.65628  1.0000
  O   O18       1.0  0.38132  0.29146  0.84387  1.0000
  O   O19       1.0  0.11831  0.79165  0.34360  1.0000
  O   O20       1.0  0.61842  0.70801  0.15641  1.0000
  O   O21       1.0  0.99379  0.94862  0.20477  1.0000
  O   O22       1.0  0.49376  0.55131  0.29523  1.0000
  O   O23       1.0  0.00617  0.05168  0.79514  1.0000
  O   O24       1.0  0.50564  0.44843  0.70485  1.0000
