data_image0
_chemical_formula_structural       Zn4H60C48N16Cl4O8
_chemical_formula_sum              "Zn4 H60 C48 N16 Cl4 O8"
_cell_length_a       9.95203
_cell_length_b       11.375
_cell_length_c       12.8583
_cell_angle_alpha    89.9995
_cell_angle_beta     105.852
_cell_angle_gamma    90.0008

_space_group_name_H-M_alt    "P 1"
_space_group_IT_number       1

loop_
  _space_group_symop_operation_xyz
  'x, y, z'

loop_
  _atom_site_type_symbol
  _atom_site_label
  _atom_site_symmetry_multiplicity
  _atom_site_fract_x
  _atom_site_fract_y
  _atom_site_fract_z
  _atom_site_occupancy
  Zn  Zn1       1.0  0.38189  0.29899  0.48774  1.0000
  Zn  Zn2       1.0  0.11811  0.79898  0.01226  1.0000
  Zn  Zn3       1.0  0.61811  0.70102  0.51225  1.0000
  Zn  Zn4       1.0  0.88189  0.20102  0.98774  1.0000
  H   H1        1.0  0.48812  0.45616  0.84148  1.0000
  H   H2        1.0  0.01189  0.95616  0.65852  1.0000
  H   H3        1.0  0.51189  0.54384  0.15851  1.0000
  H   H4        1.0  0.98811  0.04384  0.34148  1.0000
  H   H5        1.0  0.58457  0.31817  0.98984  1.0000
  H   H6        1.0  0.91543  0.81817  0.51016  1.0000
  H   H7        1.0  0.41542  0.68183  0.01016  1.0000
  H   H8        1.0  0.08457  0.18183  0.48983  1.0000
  H   H9        1.0  0.41280  0.28394  0.91102  1.0000
  H   H10       1.0  0.08720  0.78395  0.58898  1.0000
  H   H11       1.0  0.58720  0.71606  0.08898  1.0000
  H   H12       1.0  0.91279  0.21605  0.41101  1.0000
  H   H13       1.0  0.73593  0.32337  0.79787  1.0000
  H   H14       1.0  0.76407  0.82338  0.70213  1.0000
  H   H15       1.0  0.26407  0.67662  0.20213  1.0000
  H   H16       1.0  0.23594  0.17662  0.29787  1.0000
  H   H17       1.0  0.68161  0.46760  0.75748  1.0000
  H   H18       1.0  0.81839  0.96760  0.74251  1.0000
  H   H19       1.0  0.31839  0.53240  0.24251  1.0000
  H   H20       1.0  0.18162  0.03239  0.25749  1.0000
  H   H21       1.0  0.98203  0.40655  0.16431  1.0000
  H   H22       1.0  0.51797  0.90655  0.33569  1.0000
  H   H23       1.0  0.01797  0.59344  0.83569  1.0000
  H   H24       1.0  0.48203  0.09346  0.66431  1.0000
  H   H25       1.0  0.89454  0.63820  0.11436  1.0000
  H   H26       1.0  0.60545  0.13821  0.38564  1.0000
  H   H27       1.0  0.10545  0.36179  0.88565  1.0000
  H   H28       1.0  0.39455  0.86180  0.61436  1.0000
  H   H29       1.0  0.68864  0.64288  0.81824  1.0000
  H   H30       1.0  0.81135  0.14289  0.68175  1.0000
  H   H31       1.0  0.31136  0.35711  0.18175  1.0000
  H   H32       1.0  0.18865  0.85711  0.31825  1.0000
  H   H33       1.0  0.79309  0.73277  0.92394  1.0000
  H   H34       1.0  0.70690  0.23278  0.57606  1.0000
  H   H35       1.0  0.20691  0.26722  0.07606  1.0000
  H   H36       1.0  0.29309  0.76722  0.42395  1.0000
  H   H37       1.0  0.62312  0.68489  0.92794  1.0000
  H   H38       1.0  0.87688  0.18490  0.57206  1.0000
  H   H39       1.0  0.37689  0.31511  0.07206  1.0000
  H   H40       1.0  0.12312  0.81511  0.42795  1.0000
  H   H41       1.0  0.78420  0.94695  0.91680  1.0000
  H   H42       1.0  0.71581  0.44695  0.58321  1.0000
  H   H43       1.0  0.21581  0.05305  0.08322  1.0000
  H   H44       1.0  0.28419  0.55305  0.41678  1.0000
  H   H45       1.0  0.50069  0.88598  0.83980  1.0000
  H   H46       1.0  0.99931  0.38599  0.66022  1.0000
  H   H47       1.0  0.49931  0.11401  0.16021  1.0000
  H   H48       1.0  0.00069  0.61402  0.33979  1.0000
  H   H49       1.0  0.28730  0.10506  0.90267  1.0000
  H   H50       1.0  0.21272  0.60507  0.59735  1.0000
  H   H51       1.0  0.71271  0.89494  0.09733  1.0000
  H   H52       1.0  0.78730  0.39493  0.40267  1.0000
  H   H53       1.0  0.28251  0.98924  0.80927  1.0000
  H   H54       1.0  0.21749  0.48925  0.69075  1.0000
  H   H55       1.0  0.71750  0.01076  0.19073  1.0000
  H   H56       1.0  0.78251  0.51075  0.30926  1.0000
  H   H57       1.0  0.28701  0.14028  0.76734  1.0000
  H   H58       1.0  0.21299  0.64029  0.73268  1.0000
  H   H59       1.0  0.71299  0.85972  0.23267  1.0000
  H   H60       1.0  0.78701  0.35971  0.26733  1.0000
  C   C1        1.0  0.44336  0.33903  0.70971  1.0000
  C   C2        1.0  0.05664  0.83903  0.79029  1.0000
  C   C3        1.0  0.55664  0.66097  0.29028  1.0000
  C   C4        1.0  0.94336  0.16096  0.20971  1.0000
  C   C5        1.0  0.53541  0.37403  0.82221  1.0000
  C   C6        1.0  0.96459  0.87404  0.67779  1.0000
  C   C7        1.0  0.46458  0.62597  0.17779  1.0000
  C   C8        1.0  0.03541  0.12596  0.32220  1.0000
  C   C9        1.0  0.52291  0.28518  0.91067  1.0000
  C   C10       1.0  0.97709  0.78518  0.58933  1.0000
  C   C11       1.0  0.47709  0.71482  0.08933  1.0000
  C   C12       1.0  0.02291  0.21482  0.41066  1.0000
  C   C13       1.0  0.68616  0.40185  0.82072  1.0000
  C   C14       1.0  0.81383  0.90185  0.67928  1.0000
  C   C15       1.0  0.31384  0.59815  0.17927  1.0000
  C   C16       1.0  0.18617  0.09814  0.32073  1.0000
  C   C17       1.0  0.77363  0.44386  0.92669  1.0000
  C   C18       1.0  0.72637  0.94387  0.57330  1.0000
  C   C19       1.0  0.22637  0.55613  0.07331  1.0000
  C   C20       1.0  0.27363  0.05614  0.42670  1.0000
  C   C21       1.0  0.91157  0.44302  0.09212  1.0000
  C   C22       1.0  0.58843  0.94303  0.40788  1.0000
  C   C23       1.0  0.08843  0.55697  0.90788  1.0000
  C   C24       1.0  0.41157  0.05698  0.59212  1.0000
  C   C25       1.0  0.86839  0.55674  0.06941  1.0000
  C   C26       1.0  0.63160  0.05675  0.43060  1.0000
  C   C27       1.0  0.13161  0.44325  0.93059  1.0000
  C   C28       1.0  0.36840  0.94326  0.56941  1.0000
  C   C29       1.0  0.71800  0.66014  0.90537  1.0000
  C   C30       1.0  0.78200  0.16015  0.59463  1.0000
  C   C31       1.0  0.28200  0.33985  0.09463  1.0000
  C   C32       1.0  0.21800  0.83986  0.40537  1.0000
  C   C33       1.0  0.56691  0.16138  0.89937  1.0000
  C   C34       1.0  0.93310  0.66139  0.60063  1.0000
  C   C35       1.0  0.43310  0.83862  0.10063  1.0000
  C   C36       1.0  0.06690  0.33862  0.39936  1.0000
  C   C37       1.0  0.69040  0.00018  0.90291  1.0000
  C   C38       1.0  0.80960  0.50018  0.59710  1.0000
  C   C39       1.0  0.30960  0.99982  0.09710  1.0000
  C   C40       1.0  0.19040  0.49982  0.40290  1.0000
  C   C41       1.0  0.55225  0.96907  0.86577  1.0000
  C   C42       1.0  0.94775  0.46908  0.63423  1.0000
  C   C43       1.0  0.44776  0.03093  0.13424  1.0000
  C   C44       1.0  0.05224  0.53093  0.36577  1.0000
  C   C45       1.0  0.32371  0.07730  0.83342  1.0000
  C   C46       1.0  0.17630  0.57731  0.66659  1.0000
  C   C47       1.0  0.67630  0.92270  0.16658  1.0000
  C   C48       1.0  0.82370  0.42269  0.33342  1.0000
  N   N1        1.0  0.85178  0.37395  0.00332  1.0000
  N   N2        1.0  0.64821  0.87395  0.49667  1.0000
  N   N3        1.0  0.14822  0.62604  0.99667  1.0000
  N   N4        1.0  0.35178  0.12606  0.50333  1.0000
  N   N5        1.0  0.78191  0.55618  0.96474  1.0000
  N   N6        1.0  0.71809  0.05619  0.53526  1.0000
  N   N7        1.0  0.21809  0.44382  0.03526  1.0000
  N   N8        1.0  0.28191  0.94382  0.46475  1.0000
  N   N9        1.0  0.69821  0.11934  0.92424  1.0000
  N   N10       1.0  0.80179  0.61935  0.57576  1.0000
  N   N11       1.0  0.30179  0.88066  0.07576  1.0000
  N   N12       1.0  0.19821  0.38066  0.42423  1.0000
  N   N13       1.0  0.47606  0.07088  0.86404  1.0000
  N   N14       1.0  0.02394  0.57088  0.63596  1.0000
  N   N15       1.0  0.52394  0.92912  0.13596  1.0000
  N   N16       1.0  0.97605  0.42912  0.36404  1.0000
  Cl  Cl1       1.0  0.50639  0.34221  0.36875  1.0000
  Cl  Cl2       1.0  0.99361  0.84221  0.13124  1.0000
  Cl  Cl3       1.0  0.49362  0.65779  0.63124  1.0000
  Cl  Cl4       1.0  0.00639  0.15778  0.86875  1.0000
  O   O1        1.0  0.50480  0.33806  0.63291  1.0000
  O   O2        1.0  0.99519  0.83806  0.86709  1.0000
  O   O3        1.0  0.49519  0.66195  0.36708  1.0000
  O   O4        1.0  0.00483  0.16194  0.13291  1.0000
  O   O5        1.0  0.31738  0.31584  0.69838  1.0000
  O   O6        1.0  0.18261  0.81584  0.80162  1.0000
  O   O7        1.0  0.68262  0.68416  0.30161  1.0000
  O   O8        1.0  0.81740  0.18416  0.19837  1.0000
