data_image0
_chemical_formula_structural       Zn4P8H32C12O24
_chemical_formula_sum              "Zn4 P8 H32 C12 O24"
_cell_length_a       5.0668
_cell_length_b       8.4643
_cell_length_c       18.1581
_cell_angle_alpha    92.8232
_cell_angle_beta     90.0001
_cell_angle_gamma    90.0008

_space_group_name_H-M_alt    "P 1"
_space_group_IT_number       1

loop_
  _space_group_symop_operation_xyz
  'x, y, z'

loop_
  _atom_site_type_symbol
  _atom_site_label
  _atom_site_symmetry_multiplicity
  _atom_site_fract_x
  _atom_site_fract_y
  _atom_site_fract_z
  _atom_site_occupancy
  Zn  Zn1       1.0  0.45141  0.44057  0.81132  1.0000
  Zn  Zn2       1.0  0.95141  0.05944  0.68868  1.0000
  Zn  Zn3       1.0  0.54858  0.55944  0.18867  1.0000
  Zn  Zn4       1.0  0.04859  0.94056  0.31133  1.0000
  P   P1        1.0  0.57769  0.13055  0.37501  1.0000
  P   P2        1.0  0.07767  0.36946  0.12500  1.0000
  P   P3        1.0  0.42231  0.86944  0.62499  1.0000
  P   P4        1.0  0.92233  0.63057  0.87501  1.0000
  P   P5        1.0  0.75493  0.41056  0.65704  1.0000
  P   P6        1.0  0.25494  0.08944  0.84296  1.0000
  P   P7        1.0  0.24509  0.58943  0.34296  1.0000
  P   P8        1.0  0.74507  0.91056  0.15704  1.0000
  H   H1        1.0  0.05122  0.60490  0.63707  1.0000
  H   H2        1.0  0.55121  0.89510  0.86292  1.0000
  H   H3        1.0  0.94880  0.39509  0.36292  1.0000
  H   H4        1.0  0.44880  0.10490  0.13707  1.0000
  H   H5        1.0  0.57352  0.35631  0.31354  1.0000
  H   H6        1.0  0.07352  0.14370  0.18646  1.0000
  H   H7        1.0  0.42649  0.64369  0.68646  1.0000
  H   H8        1.0  0.92647  0.85631  0.81353  1.0000
  H   H9        1.0  0.41877  0.23434  0.61574  1.0000
  H   H10       1.0  0.91874  0.26565  0.88426  1.0000
  H   H11       1.0  0.58122  0.76567  0.38426  1.0000
  H   H12       1.0  0.08125  0.73434  0.11574  1.0000
  H   H13       1.0  0.38780  0.41965  0.57736  1.0000
  H   H14       1.0  0.88777  0.08033  0.92263  1.0000
  H   H15       1.0  0.61223  0.58035  0.42264  1.0000
  H   H16       1.0  0.11223  0.91966  0.07736  1.0000
  H   H17       1.0  0.33953  0.09779  0.48654  1.0000
  H   H18       1.0  0.83949  0.40220  0.01346  1.0000
  H   H19       1.0  0.66047  0.90220  0.51346  1.0000
  H   H20       1.0  0.16047  0.59780  0.98654  1.0000
  H   H21       1.0  0.29869  0.28823  0.45320  1.0000
  H   H22       1.0  0.79868  0.21176  0.04680  1.0000
  H   H23       1.0  0.70130  0.71176  0.54680  1.0000
  H   H24       1.0  0.20130  0.78825  0.95321  1.0000
  H   H25       1.0  0.80210  0.16772  0.52850  1.0000
  H   H26       1.0  0.30205  0.33228  0.97150  1.0000
  H   H27       1.0  0.19790  0.83228  0.47149  1.0000
  H   H28       1.0  0.69792  0.66772  0.02851  1.0000
  H   H29       1.0  0.77151  0.35582  0.49249  1.0000
  H   H30       1.0  0.27149  0.14417  0.00752  1.0000
  H   H31       1.0  0.22849  0.64418  0.50751  1.0000
  H   H32       1.0  0.72848  0.85582  0.99249  1.0000
  C   C1        1.0  0.53139  0.32665  0.58898  1.0000
  C   C2        1.0  0.03137  0.17333  0.91103  1.0000
  C   C3        1.0  0.46861  0.67335  0.41102  1.0000
  C   C4        1.0  0.96862  0.82666  0.08897  1.0000
  C   C5        1.0  0.44686  0.19696  0.46346  1.0000
  C   C6        1.0  0.94683  0.30302  0.03654  1.0000
  C   C7        1.0  0.55314  0.80304  0.53654  1.0000
  C   C8        1.0  0.05314  0.69697  0.96346  1.0000
  C   C9        1.0  0.65863  0.26127  0.51739  1.0000
  C   C10       1.0  0.15862  0.23874  0.98261  1.0000
  C   C11       1.0  0.34137  0.73873  0.48261  1.0000
  C   C12       1.0  0.84137  0.76127  0.01739  1.0000
  O   O1        1.0  0.59139  0.50670  0.71566  1.0000
  O   O2        1.0  0.09140  0.99330  0.78434  1.0000
  O   O3        1.0  0.40863  0.49329  0.28433  1.0000
  O   O4        1.0  0.90861  0.00670  0.21567  1.0000
  O   O5        1.0  0.92077  0.53062  0.61139  1.0000
  O   O6        1.0  0.42076  0.96939  0.88862  1.0000
  O   O7        1.0  0.07925  0.46938  0.38861  1.0000
  O   O8        1.0  0.57925  0.03062  0.11139  1.0000
  O   O9        1.0  0.70368  0.28278  0.33857  1.0000
  O   O10       1.0  0.20367  0.21721  0.16142  1.0000
  O   O11       1.0  0.29632  0.71721  0.66143  1.0000
  O   O12       1.0  0.79632  0.78279  0.83857  1.0000
  O   O13       1.0  0.80580  0.01807  0.38917  1.0000
  O   O14       1.0  0.30579  0.48192  0.11083  1.0000
  O   O15       1.0  0.19418  0.98193  0.61083  1.0000
  O   O16       1.0  0.69421  0.51806  0.88917  1.0000
  O   O17       1.0  0.93173  0.28790  0.69062  1.0000
  O   O18       1.0  0.43171  0.21211  0.80939  1.0000
  O   O19       1.0  0.06828  0.71210  0.30938  1.0000
  O   O20       1.0  0.56830  0.78789  0.19060  1.0000
  O   O21       1.0  0.36294  0.06824  0.32319  1.0000
  O   O22       1.0  0.86294  0.43175  0.17681  1.0000
  O   O23       1.0  0.63706  0.93177  0.67680  1.0000
  O   O24       1.0  0.13710  0.56827  0.82320  1.0000
