data_image0
_chemical_formula_structural       Co2H24C24N12O4
_chemical_formula_sum              "Co2 H24 C24 N12 O4"
_cell_length_a       6.78808
_cell_length_b       9.57857
_cell_length_c       11.7688
_cell_angle_alpha    90.0005
_cell_angle_beta     97.7318
_cell_angle_gamma    90.0001

_space_group_name_H-M_alt    "P 1"
_space_group_IT_number       1

loop_
  _space_group_symop_operation_xyz
  'x, y, z'

loop_
  _atom_site_type_symbol
  _atom_site_label
  _atom_site_symmetry_multiplicity
  _atom_site_fract_x
  _atom_site_fract_y
  _atom_site_fract_z
  _atom_site_occupancy
  Co  Co1       1.0  0.00000  0.00000  0.00000  1.0000
  Co  Co2       1.0  0.50000  0.50000  0.50000  1.0000
  H   H1        1.0  0.27031  0.81095  0.95805  1.0000
  H   H2        1.0  0.22969  0.31094  0.54194  1.0000
  H   H3        1.0  0.72969  0.18905  0.04195  1.0000
  H   H4        1.0  0.77031  0.68906  0.45806  1.0000
  H   H5        1.0  0.31360  0.07281  0.84045  1.0000
  H   H6        1.0  0.18641  0.57281  0.65955  1.0000
  H   H7        1.0  0.68641  0.92719  0.15955  1.0000
  H   H8        1.0  0.81359  0.42719  0.34045  1.0000
  H   H9        1.0  0.51636  0.96257  0.89179  1.0000
  H   H10       1.0  0.98363  0.46257  0.60820  1.0000
  H   H11       1.0  0.48363  0.03743  0.10821  1.0000
  H   H12       1.0  0.01637  0.53743  0.39180  1.0000
  H   H13       1.0  0.41570  0.92107  0.68257  1.0000
  H   H14       1.0  0.08430  0.42107  0.81743  1.0000
  H   H15       1.0  0.58430  0.07893  0.31743  1.0000
  H   H16       1.0  0.91570  0.57893  0.18257  1.0000
  H   H17       1.0  0.16793  0.88258  0.70620  1.0000
  H   H18       1.0  0.33207  0.38259  0.79379  1.0000
  H   H19       1.0  0.83207  0.11742  0.29380  1.0000
  H   H20       1.0  0.66793  0.61741  0.20620  1.0000
  H   H21       1.0  0.36641  0.76944  0.76064  1.0000
  H   H22       1.0  0.13358  0.26944  0.73935  1.0000
  H   H23       1.0  0.63359  0.23056  0.23936  1.0000
  H   H24       1.0  0.86642  0.73056  0.26065  1.0000
  C   C1        1.0  0.23014  0.91899  0.37858  1.0000
  C   C2        1.0  0.26987  0.41900  0.12142  1.0000
  C   C3        1.0  0.76986  0.08101  0.62142  1.0000
  C   C4        1.0  0.73014  0.58100  0.87858  1.0000
  C   C5        1.0  0.16541  0.92661  0.26079  1.0000
  C   C6        1.0  0.33459  0.42661  0.23920  1.0000
  C   C7        1.0  0.83459  0.07339  0.73921  1.0000
  C   C8        1.0  0.66541  0.57339  0.76080  1.0000
  C   C9        1.0  0.29605  0.79229  0.42862  1.0000
  C   C10       1.0  0.20396  0.29230  0.07138  1.0000
  C   C11       1.0  0.70396  0.20771  0.57138  1.0000
  C   C12       1.0  0.79605  0.70770  0.92862  1.0000
  C   C13       1.0  0.21528  0.03915  0.44520  1.0000
  C   C14       1.0  0.28472  0.53915  0.05480  1.0000
  C   C15       1.0  0.78472  0.96085  0.55480  1.0000
  C   C16       1.0  0.71528  0.46085  0.94520  1.0000
  C   C17       1.0  0.35857  0.96347  0.85497  1.0000
  C   C18       1.0  0.14143  0.46347  0.64502  1.0000
  C   C19       1.0  0.64143  0.03653  0.14503  1.0000
  C   C20       1.0  0.85856  0.53653  0.35498  1.0000
  C   C21       1.0  0.32430  0.87908  0.74494  1.0000
  C   C22       1.0  0.17569  0.37909  0.75505  1.0000
  C   C23       1.0  0.67570  0.12091  0.25506  1.0000
  C   C24       1.0  0.82430  0.62092  0.24494  1.0000
  N   N1        1.0  0.10790  0.93710  0.16278  1.0000
  N   N2        1.0  0.39210  0.43710  0.33722  1.0000
  N   N3        1.0  0.89210  0.06290  0.83722  1.0000
  N   N4        1.0  0.60790  0.56290  0.66278  1.0000
  N   N5        1.0  0.14938  0.18464  0.03166  1.0000
  N   N6        1.0  0.35063  0.68464  0.46834  1.0000
  N   N7        1.0  0.85063  0.81536  0.96834  1.0000
  N   N8        1.0  0.64938  0.31536  0.53166  1.0000
  N   N9        1.0  0.19890  0.14071  0.49853  1.0000
  N   N10       1.0  0.30111  0.64071  0.00147  1.0000
  N   N11       1.0  0.80110  0.85929  0.50147  1.0000
  N   N12       1.0  0.69890  0.35928  0.99853  1.0000
  O   O1        1.0  0.24276  0.91187  0.94015  1.0000
  O   O2        1.0  0.25724  0.41187  0.55985  1.0000
  O   O3        1.0  0.75724  0.08813  0.05985  1.0000
  O   O4        1.0  0.74276  0.58813  0.44015  1.0000
