data_image0
_chemical_formula_structural       Cd2H56C60N12O8
_chemical_formula_sum              "Cd2 H56 C60 N12 O8"
_cell_length_a       9.85864
_cell_length_b       12.1544
_cell_length_c       12.1544
_cell_angle_alpha    105.203
_cell_angle_beta     98.4689
_cell_angle_gamma    98.4686

_space_group_name_H-M_alt    "P 1"
_space_group_IT_number       1

loop_
  _space_group_symop_operation_xyz
  'x, y, z'

loop_
  _atom_site_type_symbol
  _atom_site_label
  _atom_site_symmetry_multiplicity
  _atom_site_fract_x
  _atom_site_fract_y
  _atom_site_fract_z
  _atom_site_occupancy
  Cd  Cd1       1.0  0.75000  0.37327  0.62672  1.0000
  Cd  Cd2       1.0  0.25000  0.62673  0.37328  1.0000
  H   H1        1.0  0.96115  0.64531  0.78859  1.0000
  H   H2        1.0  0.53885  0.21141  0.35468  1.0000
  H   H3        1.0  0.03885  0.35469  0.21141  1.0000
  H   H4        1.0  0.46115  0.78859  0.64531  1.0000
  H   H5        1.0  0.54147  0.58356  0.61740  1.0000
  H   H6        1.0  0.95854  0.38260  0.41643  1.0000
  H   H7        1.0  0.45853  0.41644  0.38260  1.0000
  H   H8        1.0  0.04147  0.61740  0.58357  1.0000
  H   H9        1.0  0.93344  0.91151  0.76642  1.0000
  H   H10       1.0  0.56656  0.23358  0.08849  1.0000
  H   H11       1.0  0.06656  0.08849  0.23358  1.0000
  H   H12       1.0  0.43344  0.76642  0.91151  1.0000
  H   H13       1.0  0.99359  0.85974  0.88347  1.0000
  H   H14       1.0  0.50641  0.11653  0.14026  1.0000
  H   H15       1.0  0.00641  0.14026  0.11653  1.0000
  H   H16       1.0  0.49359  0.88348  0.85974  1.0000
  H   H17       1.0  0.85525  0.83641  0.13517  1.0000
  H   H18       1.0  0.64475  0.86483  0.16359  1.0000
  H   H19       1.0  0.14475  0.16359  0.86483  1.0000
  H   H20       1.0  0.35525  0.13517  0.83641  1.0000
  H   H21       1.0  0.92183  0.79535  0.00677  1.0000
  H   H22       1.0  0.57817  0.99323  0.20465  1.0000
  H   H23       1.0  0.07817  0.20465  0.99323  1.0000
  H   H24       1.0  0.42183  0.00677  0.79535  1.0000
  H   H25       1.0  0.74525  0.74297  0.00740  1.0000
  H   H26       1.0  0.75475  0.99260  0.25703  1.0000
  H   H27       1.0  0.25475  0.25703  0.99260  1.0000
  H   H28       1.0  0.24525  0.00740  0.74297  1.0000
  H   H29       1.0  0.90052  0.13377  0.77636  1.0000
  H   H30       1.0  0.59948  0.22364  0.86623  1.0000
  H   H31       1.0  0.09948  0.86623  0.22364  1.0000
  H   H32       1.0  0.40052  0.77637  0.13377  1.0000
  H   H33       1.0  0.71800  0.10752  0.72968  1.0000
  H   H34       1.0  0.78200  0.27032  0.89247  1.0000
  H   H35       1.0  0.28201  0.89248  0.27032  1.0000
  H   H36       1.0  0.21800  0.72968  0.10752  1.0000
  H   H37       1.0  0.80710  0.99156  0.69801  1.0000
  H   H38       1.0  0.69290  0.30199  0.00844  1.0000
  H   H39       1.0  0.19290  0.00844  0.30199  1.0000
  H   H40       1.0  0.30710  0.69801  0.99156  1.0000
  H   H41       1.0  0.26738  0.46041  0.68610  1.0000
  H   H42       1.0  0.23261  0.31390  0.53959  1.0000
  H   H43       1.0  0.73262  0.53959  0.31390  1.0000
  H   H44       1.0  0.76739  0.68610  0.46041  1.0000
  H   H45       1.0  0.50083  0.49390  0.80335  1.0000
  H   H46       1.0  0.99917  0.19665  0.50610  1.0000
  H   H47       1.0  0.49917  0.50610  0.19666  1.0000
  H   H48       1.0  0.00083  0.80335  0.49390  1.0000
  H   H49       1.0  0.31538  0.48467  0.10361  1.0000
  H   H50       1.0  0.18462  0.89639  0.51533  1.0000
  H   H51       1.0  0.68462  0.51533  0.89640  1.0000
  H   H52       1.0  0.81538  0.10361  0.48467  1.0000
  H   H53       1.0  0.08342  0.44430  0.98194  1.0000
  H   H54       1.0  0.41659  0.01806  0.55569  1.0000
  H   H55       1.0  0.91659  0.55569  0.01806  1.0000
  H   H56       1.0  0.58341  0.98194  0.44430  1.0000
  C   C1        1.0  0.85642  0.65445  0.75488  1.0000
  C   C2        1.0  0.64358  0.24513  0.34554  1.0000
  C   C3        1.0  0.14358  0.34554  0.24512  1.0000
  C   C4        1.0  0.35642  0.75487  0.65445  1.0000
  C   C5        1.0  0.64381  0.62718  0.66925  1.0000
  C   C6        1.0  0.85619  0.33075  0.37282  1.0000
  C   C7        1.0  0.35618  0.37282  0.33075  1.0000
  C   C8        1.0  0.14381  0.66925  0.62718  1.0000
  C   C9        1.0  0.89926  0.87314  0.83221  1.0000
  C   C10       1.0  0.60074  0.16779  0.12686  1.0000
  C   C11       1.0  0.10074  0.12686  0.16778  1.0000
  C   C12       1.0  0.39926  0.83221  0.87314  1.0000
  C   C13       1.0  0.82059  0.94960  0.90744  1.0000
  C   C14       1.0  0.67941  0.09256  0.05040  1.0000
  C   C15       1.0  0.17941  0.05040  0.09256  1.0000
  C   C16       1.0  0.32059  0.90744  0.94960  1.0000
  C   C17       1.0  0.78836  0.92312  0.00797  1.0000
  C   C18       1.0  0.71164  0.99203  0.07688  1.0000
  C   C19       1.0  0.21164  0.07688  0.99203  1.0000
  C   C20       1.0  0.28836  0.00797  0.92312  1.0000
  C   C21       1.0  0.83018  0.82007  0.04067  1.0000
  C   C22       1.0  0.66983  0.95933  0.17993  1.0000
  C   C23       1.0  0.16982  0.17993  0.95933  1.0000
  C   C24       1.0  0.33017  0.04067  0.82007  1.0000
  C   C25       1.0  0.78163  0.04638  0.87730  1.0000
  C   C26       1.0  0.71836  0.12270  0.95362  1.0000
  C   C27       1.0  0.21836  0.95362  0.12270  1.0000
  C   C28       1.0  0.28163  0.87730  0.04638  1.0000
  C   C29       1.0  0.80348  0.07057  0.76516  1.0000
  C   C30       1.0  0.69652  0.23484  0.92942  1.0000
  C   C31       1.0  0.19652  0.92942  0.23484  1.0000
  C   C32       1.0  0.30348  0.76516  0.07057  1.0000
  C   C33       1.0  0.01774  0.41789  0.74926  1.0000
  C   C34       1.0  0.48226  0.25074  0.58211  1.0000
  C   C35       1.0  0.98226  0.58211  0.25074  1.0000
  C   C36       1.0  0.51774  0.74926  0.41789  1.0000
  C   C37       1.0  0.15923  0.44659  0.82477  1.0000
  C   C38       1.0  0.34076  0.17523  0.55341  1.0000
  C   C39       1.0  0.84077  0.55341  0.17524  1.0000
  C   C40       1.0  0.65924  0.82477  0.44659  1.0000
  C   C41       1.0  0.27909  0.46432  0.77749  1.0000
  C   C42       1.0  0.22091  0.22251  0.53568  1.0000
  C   C43       1.0  0.72091  0.53568  0.22252  1.0000
  C   C44       1.0  0.77909  0.77748  0.46432  1.0000
  C   C45       1.0  0.41143  0.48450  0.84533  1.0000
  C   C46       1.0  0.08857  0.15467  0.51550  1.0000
  C   C47       1.0  0.58857  0.51550  0.15468  1.0000
  C   C48       1.0  0.91143  0.84533  0.48450  1.0000
  C   C49       1.0  0.42950  0.49026  0.96412  1.0000
  C   C50       1.0  0.07050  0.03588  0.50974  1.0000
  C   C51       1.0  0.57050  0.50974  0.03589  1.0000
  C   C52       1.0  0.92950  0.96412  0.49026  1.0000
  C   C53       1.0  0.30808  0.47732  0.01163  1.0000
  C   C54       1.0  0.19192  0.98837  0.52268  1.0000
  C   C55       1.0  0.69193  0.52269  0.98837  1.0000
  C   C56       1.0  0.80807  0.01163  0.47732  1.0000
  C   C57       1.0  0.17551  0.45503  0.94326  1.0000
  C   C58       1.0  0.32448  0.05674  0.54497  1.0000
  C   C59       1.0  0.82449  0.54497  0.05675  1.0000
  C   C60       1.0  0.67551  0.94326  0.45503  1.0000
  N   N1        1.0  0.74978  0.57006  0.69002  1.0000
  N   N2        1.0  0.75022  0.30998  0.42994  1.0000
  N   N3        1.0  0.25022  0.42994  0.30998  1.0000
  N   N4        1.0  0.24978  0.69002  0.57006  1.0000
  N   N5        1.0  0.67947  0.74149  0.71752  1.0000
  N   N6        1.0  0.82053  0.28248  0.25852  1.0000
  N   N7        1.0  0.32053  0.25851  0.28249  1.0000
  N   N8        1.0  0.17947  0.71752  0.74148  1.0000
  N   N9        1.0  0.81510  0.75693  0.77133  1.0000
  N   N10       1.0  0.68490  0.22868  0.24307  1.0000
  N   N11       1.0  0.18490  0.24307  0.22867  1.0000
  N   N12       1.0  0.31510  0.77132  0.75693  1.0000
  O   O1        1.0  0.00641  0.41973  0.64392  1.0000
  O   O2        1.0  0.49359  0.35608  0.58027  1.0000
  O   O3        1.0  0.99359  0.58027  0.35608  1.0000
  O   O4        1.0  0.50641  0.64392  0.41973  1.0000
  O   O5        1.0  0.91087  0.39241  0.79356  1.0000
  O   O6        1.0  0.58912  0.20644  0.60759  1.0000
  O   O7        1.0  0.08912  0.60759  0.20644  1.0000
  O   O8        1.0  0.41088  0.79356  0.39241  1.0000
