data_image0
_chemical_formula_structural       Na2B2H16C16O20
_chemical_formula_sum              "Na2 B2 H16 C16 O20"
_cell_length_a       5.17739
_cell_length_b       9.79266
_cell_length_c       11.8341
_cell_angle_alpha    90.0023
_cell_angle_beta     89.9985
_cell_angle_gamma    104.225

_space_group_name_H-M_alt    "P 1"
_space_group_IT_number       1

loop_
  _space_group_symop_operation_xyz
  'x, y, z'

loop_
  _atom_site_type_symbol
  _atom_site_label
  _atom_site_symmetry_multiplicity
  _atom_site_fract_x
  _atom_site_fract_y
  _atom_site_fract_z
  _atom_site_occupancy
  Na  Na1       1.0  0.25275  0.64896  0.54666  1.0000
  Na  Na2       1.0  0.74727  0.35105  0.04665  1.0000
  B   B1        1.0  0.78666  0.70392  0.70599  1.0000
  B   B2        1.0  0.21335  0.29608  0.20600  1.0000
  H   H1        1.0  0.51698  0.97490  0.31718  1.0000
  H   H2        1.0  0.48302  0.02511  0.81717  1.0000
  H   H3        1.0  0.12417  0.95284  0.44999  1.0000
  H   H4        1.0  0.87583  0.04714  0.94999  1.0000
  H   H5        1.0  0.04631  0.10048  0.51180  1.0000
  H   H6        1.0  0.95368  0.89948  0.01181  1.0000
  H   H7        1.0  0.19908  0.97175  0.65733  1.0000
  H   H8        1.0  0.80091  0.02826  0.15733  1.0000
  H   H9        1.0  0.37715  0.44447  0.78380  1.0000
  H   H10       1.0  0.62284  0.55553  0.28380  1.0000
  H   H11       1.0  0.54325  0.24646  0.70439  1.0000
  H   H12       1.0  0.45674  0.75354  0.20439  1.0000
  H   H13       1.0  0.33401  0.31146  0.60965  1.0000
  H   H14       1.0  0.66599  0.68854  0.10965  1.0000
  H   H15       1.0  0.82140  0.31730  0.41074  1.0000
  H   H16       1.0  0.17860  0.68271  0.91075  1.0000
  C   C1        1.0  0.75044  0.35835  0.56585  1.0000
  C   C2        1.0  0.24957  0.64165  0.06586  1.0000
  C   C3        1.0  0.52861  0.33669  0.65148  1.0000
  C   C4        1.0  0.47139  0.66331  0.15148  1.0000
  C   C5        1.0  0.55304  0.46510  0.72734  1.0000
  C   C6        1.0  0.44695  0.53490  0.22734  1.0000
  C   C7        1.0  0.80021  0.49649  0.80213  1.0000
  C   C8        1.0  0.19977  0.50352  0.30214  1.0000
  C   C9        1.0  0.70924  0.94397  0.45425  1.0000
  C   C10       1.0  0.29076  0.05602  0.95425  1.0000
  C   C11       1.0  0.98192  0.98490  0.50693  1.0000
  C   C12       1.0  0.01808  0.01508  0.00693  1.0000
  C   C13       1.0  0.00145  0.92082  0.62260  1.0000
  C   C14       1.0  0.99855  0.07917  0.12260  1.0000
  C   C15       1.0  0.79533  0.94074  0.70887  1.0000
  C   C16       1.0  0.20467  0.05926  0.20886  1.0000
  O   O1        1.0  0.51353  0.86634  0.50012  1.0000
  O   O2        1.0  0.48650  0.13366  0.00011  1.0000
  O   O3        1.0  0.70257  0.00132  0.35302  1.0000
  O   O4        1.0  0.29745  0.99868  0.85302  1.0000
  O   O5        1.0  0.96878  0.77226  0.61857  1.0000
  O   O6        1.0  0.03125  0.22774  0.11858  1.0000
  O   O7        1.0  0.68787  0.82051  0.75982  1.0000
  O   O8        1.0  0.31212  0.17949  0.25982  1.0000
  O   O9        1.0  0.73702  0.05295  0.73202  1.0000
  O   O10       1.0  0.26300  0.94706  0.23201  1.0000
  O   O11       1.0  0.67155  0.29841  0.46615  1.0000
  O   O12       1.0  0.32843  0.70159  0.96614  1.0000
  O   O13       1.0  0.98089  0.42366  0.58665  1.0000
  O   O14       1.0  0.01911  0.57634  0.08665  1.0000
  O   O15       1.0  0.57043  0.59073  0.66430  1.0000
  O   O16       1.0  0.42956  0.40928  0.16429  1.0000
  O   O17       1.0  0.87393  0.41255  0.86349  1.0000
  O   O18       1.0  0.12607  0.58745  0.36350  1.0000
  O   O19       1.0  0.92345  0.63324  0.79508  1.0000
  O   O20       1.0  0.07654  0.36676  0.29509  1.0000
