data_image0
_chemical_formula_structural       Co2H24C28O12F4
_chemical_formula_sum              "Co2 H24 C28 O12 F4"
_cell_length_a       6.51194
_cell_length_b       7.23689
_cell_length_c       16.1038
_cell_angle_alpha    110.028
_cell_angle_beta     89.9982
_cell_angle_gamma    90.0032

_space_group_name_H-M_alt    "P 1"
_space_group_IT_number       1

loop_
  _space_group_symop_operation_xyz
  'x, y, z'

loop_
  _atom_site_type_symbol
  _atom_site_label
  _atom_site_symmetry_multiplicity
  _atom_site_fract_x
  _atom_site_fract_y
  _atom_site_fract_z
  _atom_site_occupancy
  Co  Co1       1.0  0.00000  0.50000  0.50000  1.0000
  Co  Co2       1.0  0.50000  0.00000  0.50000  1.0000
  H   H1        1.0  0.63144  0.64389  0.56586  1.0000
  H   H2        1.0  0.13144  0.85609  0.43416  1.0000
  H   H3        1.0  0.36855  0.35611  0.43413  1.0000
  H   H4        1.0  0.86855  0.14392  0.56584  1.0000
  H   H5        1.0  0.64748  0.40901  0.52624  1.0000
  H   H6        1.0  0.14749  0.09095  0.47376  1.0000
  H   H7        1.0  0.35252  0.59099  0.47376  1.0000
  H   H8        1.0  0.85250  0.90905  0.52624  1.0000
  H   H9        1.0  0.67069  0.97112  0.68043  1.0000
  H   H10       1.0  0.17068  0.52886  0.31958  1.0000
  H   H11       1.0  0.32931  0.02886  0.31957  1.0000
  H   H12       1.0  0.82932  0.47115  0.68042  1.0000
  H   H13       1.0  0.78414  0.13183  0.83707  1.0000
  H   H14       1.0  0.28411  0.36818  0.16294  1.0000
  H   H15       1.0  0.21588  0.86814  0.16293  1.0000
  H   H16       1.0  0.71589  0.63183  0.83707  1.0000
  H   H17       1.0  0.19545  0.01126  0.92870  1.0000
  H   H18       1.0  0.69545  0.48874  0.07131  1.0000
  H   H19       1.0  0.80455  0.98874  0.07130  1.0000
  H   H20       1.0  0.30455  0.51127  0.92870  1.0000
  H   H21       1.0  0.08052  0.84898  0.77113  1.0000
  H   H22       1.0  0.58055  0.65104  0.22888  1.0000
  H   H23       1.0  0.91948  0.15103  0.22887  1.0000
  H   H24       1.0  0.41945  0.34896  0.77112  1.0000
  C   C1        1.0  0.29754  0.80006  0.62356  1.0000
  C   C2        1.0  0.79751  0.69995  0.37645  1.0000
  C   C3        1.0  0.70246  0.19994  0.37644  1.0000
  C   C4        1.0  0.20249  0.30005  0.62355  1.0000
  C   C5        1.0  0.36775  0.89882  0.71604  1.0000
  C   C6        1.0  0.86776  0.60117  0.28398  1.0000
  C   C7        1.0  0.63225  0.10119  0.28396  1.0000
  C   C8        1.0  0.13223  0.39884  0.71602  1.0000
  C   C9        1.0  0.56716  0.97663  0.73432  1.0000
  C   C10       1.0  0.06713  0.52335  0.26568  1.0000
  C   C11       1.0  0.43284  0.02337  0.26568  1.0000
  C   C12       1.0  0.93287  0.47665  0.73432  1.0000
  C   C13       1.0  0.63142  0.06759  0.82139  1.0000
  C   C14       1.0  0.13141  0.43241  0.17863  1.0000
  C   C15       1.0  0.36860  0.93241  0.17861  1.0000
  C   C16       1.0  0.86859  0.56759  0.82138  1.0000
  C   C17       1.0  0.49354  0.07832  0.88885  1.0000
  C   C18       1.0  0.99351  0.42168  0.11115  1.0000
  C   C19       1.0  0.50646  0.92168  0.11115  1.0000
  C   C20       1.0  0.00649  0.57832  0.88885  1.0000
  C   C21       1.0  0.29616  0.00039  0.87336  1.0000
  C   C22       1.0  0.79617  0.49960  0.12665  1.0000
  C   C23       1.0  0.70384  0.99962  0.12663  1.0000
  C   C24       1.0  0.20383  0.50040  0.87335  1.0000
  C   C25       1.0  0.23392  0.91128  0.78611  1.0000
  C   C26       1.0  0.73391  0.58872  0.21389  1.0000
  C   C27       1.0  0.76608  0.08873  0.21389  1.0000
  C   C28       1.0  0.26609  0.41129  0.78611  1.0000
  O   O1        1.0  0.11898  0.72778  0.60933  1.0000
  O   O2        1.0  0.61902  0.77225  0.39066  1.0000
  O   O3        1.0  0.88102  0.27221  0.39066  1.0000
  O   O4        1.0  0.38098  0.22776  0.60934  1.0000
  O   O5        1.0  0.72263  0.53099  0.56230  1.0000
  O   O6        1.0  0.22262  0.96899  0.43769  1.0000
  O   O7        1.0  0.27737  0.46901  0.43769  1.0000
  O   O8        1.0  0.77737  0.03101  0.56231  1.0000
  O   O9        1.0  0.42746  0.78513  0.55951  1.0000
  O   O10       1.0  0.92745  0.71487  0.44050  1.0000
  O   O11       1.0  0.57254  0.21487  0.44048  1.0000
  O   O12       1.0  0.07255  0.28513  0.55950  1.0000
  F   F1        1.0  0.55425  0.17182  0.97425  1.0000
  F   F2        1.0  0.05423  0.32816  0.02576  1.0000
  F   F3        1.0  0.44576  0.82816  0.02575  1.0000
  F   F4        1.0  0.94577  0.67183  0.97424  1.0000
