data_image0
_chemical_formula_structural       Zn2H12C14N10Cl2
_chemical_formula_sum              "Zn2 H12 C14 N10 Cl2"
_cell_length_a       7.04063
_cell_length_b       8.58435
_cell_length_c       8.70158
_cell_angle_alpha    85.6919
_cell_angle_beta     66.1499
_cell_angle_gamma    79.3329

_space_group_name_H-M_alt    "P 1"
_space_group_IT_number       1

loop_
  _space_group_symop_operation_xyz
  'x, y, z'

loop_
  _atom_site_type_symbol
  _atom_site_label
  _atom_site_symmetry_multiplicity
  _atom_site_fract_x
  _atom_site_fract_y
  _atom_site_fract_z
  _atom_site_occupancy
  Zn  Zn1       1.0  0.86273  0.65273  0.71751  1.0000
  Zn  Zn2       1.0  0.58001  0.15284  0.28253  1.0000
  H   H1        1.0  0.49807  0.55498  0.37352  1.0000
  H   H2        1.0  0.87170  0.05468  0.62671  1.0000
  H   H3        1.0  0.24987  0.67465  0.41900  1.0000
  H   H4        1.0  0.66904  0.17446  0.58107  1.0000
  H   H5        1.0  0.67167  0.64367  0.08996  1.0000
  H   H6        1.0  0.76140  0.14358  0.91019  1.0000
  H   H7        1.0  0.50857  0.52173  0.71184  1.0000
  H   H8        1.0  0.21999  0.02175  0.28809  1.0000
  H   H9        1.0  0.17962  0.43146  0.92284  1.0000
  H   H10       1.0  0.10253  0.93103  0.07698  1.0000
  H   H11       1.0  0.09862  0.45147  0.22654  1.0000
  H   H12       1.0  0.32557  0.95074  0.77332  1.0000
  C   C1        1.0  0.23960  0.43132  0.47355  1.0000
  C   C2        1.0  0.71325  0.93121  0.52646  1.0000
  C   C3        1.0  0.34490  0.55945  0.36613  1.0000
  C   C4        1.0  0.71119  0.05920  0.63395  1.0000
  C   C5        1.0  0.38029  0.54766  0.18361  1.0000
  C   C6        1.0  0.56396  0.04728  0.81643  1.0000
  C   C7        1.0  0.55907  0.59522  0.05850  1.0000
  C   C8        1.0  0.61737  0.09508  0.94160  1.0000
  C   C9        1.0  0.46701  0.52667  0.84668  1.0000
  C   C10       1.0  0.31346  0.02654  0.15330  1.0000
  C   C11       1.0  0.28578  0.47765  0.96343  1.0000
  C   C12       1.0  0.24923  0.97730  0.03649  1.0000
  C   C13       1.0  0.24159  0.48880  0.13392  1.0000
  C   C14       1.0  0.37566  0.98831  0.86602  1.0000
  N   N1        1.0  0.05341  0.45186  0.60584  1.0000
  N   N2        1.0  0.65918  0.95187  0.39420  1.0000
  N   N3        1.0  0.01504  0.30600  0.66885  1.0000
  N   N4        1.0  0.68379  0.80606  0.33114  1.0000
  N   N5        1.0  0.17119  0.20007  0.57804  1.0000
  N   N6        1.0  0.74928  0.70004  0.42188  1.0000
  N   N7        1.0  0.31475  0.27513  0.45477  1.0000
  N   N8        1.0  0.76974  0.77499  0.54513  1.0000
  N   N9        1.0  0.60021  0.58526  0.89415  1.0000
  N   N10       1.0  0.49406  0.08522  0.10591  1.0000
  Cl  Cl1       1.0  0.03075  0.79168  0.80840  1.0000
  Cl  Cl2       1.0  0.83907  0.29165  0.19154  1.0000
