data_image0
_chemical_formula_structural       Zn4H24C28N20Cl4
_chemical_formula_sum              "Zn4 H24 C28 N20 Cl4"
_cell_length_a       8.77441
_cell_length_b       9.15569
_cell_length_c       11.9892
_cell_angle_alpha    90
_cell_angle_beta     94.1745
_cell_angle_gamma    90.0003

_space_group_name_H-M_alt    "P 1"
_space_group_IT_number       1

loop_
  _space_group_symop_operation_xyz
  'x, y, z'

loop_
  _atom_site_type_symbol
  _atom_site_label
  _atom_site_symmetry_multiplicity
  _atom_site_fract_x
  _atom_site_fract_y
  _atom_site_fract_z
  _atom_site_occupancy
  Zn  Zn1       1.0  0.15826  0.26703  0.58974  1.0000
  Zn  Zn2       1.0  0.34174  0.76703  0.91026  1.0000
  Zn  Zn3       1.0  0.84174  0.73297  0.41026  1.0000
  Zn  Zn4       1.0  0.65826  0.23297  0.08974  1.0000
  H   H1        1.0  0.03073  0.68312  0.76995  1.0000
  H   H2        1.0  0.46927  0.18312  0.73005  1.0000
  H   H3        1.0  0.96927  0.31688  0.23005  1.0000
  H   H4        1.0  0.53073  0.81688  0.26995  1.0000
  H   H5        1.0  0.98663  0.55710  0.66171  1.0000
  H   H6        1.0  0.51337  0.05710  0.83829  1.0000
  H   H7        1.0  0.01337  0.44290  0.33829  1.0000
  H   H8        1.0  0.48663  0.94290  0.16171  1.0000
  H   H9        1.0  0.15130  0.33685  0.89053  1.0000
  H   H10       1.0  0.34870  0.83686  0.60947  1.0000
  H   H11       1.0  0.84871  0.66315  0.10947  1.0000
  H   H12       1.0  0.65130  0.16315  0.39053  1.0000
  H   H13       1.0  0.99396  0.20021  0.01938  1.0000
  H   H14       1.0  0.50603  0.70021  0.48063  1.0000
  H   H15       1.0  0.00604  0.79979  0.98063  1.0000
  H   H16       1.0  0.49396  0.29979  0.51937  1.0000
  H   H17       1.0  0.74357  0.58268  0.78359  1.0000
  H   H18       1.0  0.75644  0.08268  0.71641  1.0000
  H   H19       1.0  0.25644  0.41732  0.21641  1.0000
  H   H20       1.0  0.24356  0.91732  0.28359  1.0000
  H   H21       1.0  0.60509  0.43699  0.91532  1.0000
  H   H22       1.0  0.89491  0.93699  0.58468  1.0000
  H   H23       1.0  0.39492  0.56301  0.08469  1.0000
  H   H24       1.0  0.10508  0.06301  0.41531  1.0000
  C   C1        1.0  0.20864  0.53624  0.73751  1.0000
  C   C2        1.0  0.29136  0.03624  0.76249  1.0000
  C   C3        1.0  0.79136  0.46377  0.26249  1.0000
  C   C4        1.0  0.70864  0.96377  0.23751  1.0000
  C   C5        1.0  0.04401  0.56785  0.74616  1.0000
  C   C6        1.0  0.45599  0.06785  0.75384  1.0000
  C   C7        1.0  0.95599  0.43215  0.25384  1.0000
  C   C8        1.0  0.54401  0.93215  0.24616  1.0000
  C   C9        1.0  0.03025  0.36305  0.89226  1.0000
  C   C10       1.0  0.46975  0.86306  0.60774  1.0000
  C   C11       1.0  0.96975  0.63694  0.10774  1.0000
  C   C12       1.0  0.53025  0.13694  0.39226  1.0000
  C   C13       1.0  0.96145  0.47341  0.82545  1.0000
  C   C14       1.0  0.53855  0.97341  0.67455  1.0000
  C   C15       1.0  0.03855  0.52659  0.17455  1.0000
  C   C16       1.0  0.46144  0.02659  0.32545  1.0000
  C   C17       1.0  0.94351  0.28552  0.96488  1.0000
  C   C18       1.0  0.55648  0.78553  0.53512  1.0000
  C   C19       1.0  0.05649  0.71448  0.03512  1.0000
  C   C20       1.0  0.44351  0.21448  0.46488  1.0000
  C   C21       1.0  0.80539  0.49929  0.83333  1.0000
  C   C22       1.0  0.69461  0.99929  0.66667  1.0000
  C   C23       1.0  0.19462  0.50071  0.16666  1.0000
  C   C24       1.0  0.30538  0.00071  0.33333  1.0000
  C   C25       1.0  0.72630  0.41813  0.90732  1.0000
  C   C26       1.0  0.77369  0.91813  0.59268  1.0000
  C   C27       1.0  0.27370  0.58187  0.09268  1.0000
  C   C28       1.0  0.22630  0.08187  0.40732  1.0000
  N   N1        1.0  0.26344  0.43327  0.67173  1.0000
  N   N2        1.0  0.23656  0.93327  0.82827  1.0000
  N   N3        1.0  0.73656  0.56674  0.32827  1.0000
  N   N4        1.0  0.76344  0.06674  0.17173  1.0000
  N   N5        1.0  0.41829  0.44117  0.68439  1.0000
  N   N6        1.0  0.08171  0.94116  0.81560  1.0000
  N   N7        1.0  0.58172  0.55884  0.31560  1.0000
  N   N8        1.0  0.91828  0.05884  0.18439  1.0000
  N   N9        1.0  0.79363  0.31325  0.97304  1.0000
  N   N10       1.0  0.70637  0.81325  0.52696  1.0000
  N   N11       1.0  0.20638  0.68675  0.02696  1.0000
  N   N12       1.0  0.29362  0.18675  0.47304  1.0000
  N   N13       1.0  0.32758  0.60627  0.79028  1.0000
  N   N14       1.0  0.17242  0.10627  0.70972  1.0000
  N   N15       1.0  0.67242  0.39374  0.20972  1.0000
  N   N16       1.0  0.82757  0.89374  0.29027  1.0000
  N   N17       1.0  0.45634  0.54521  0.75498  1.0000
  N   N18       1.0  0.04366  0.04520  0.74502  1.0000
  N   N19       1.0  0.54366  0.45480  0.24502  1.0000
  N   N20       1.0  0.95634  0.95480  0.25498  1.0000
  Cl  Cl1       1.0  0.91719  0.29250  0.52420  1.0000
  Cl  Cl2       1.0  0.58282  0.79250  0.97580  1.0000
  Cl  Cl3       1.0  0.08281  0.70750  0.47580  1.0000
  Cl  Cl4       1.0  0.41718  0.20750  0.02420  1.0000
