data_image0
_chemical_formula_structural       Cu2H12C14N10
_chemical_formula_sum              "Cu2 H12 C14 N10"
_cell_length_a       5.69237
_cell_length_b       8.22927
_cell_length_c       8.94081
_cell_angle_alpha    111.743
_cell_angle_beta     90.0001
_cell_angle_gamma    89.9986

_space_group_name_H-M_alt    "P 1"
_space_group_IT_number       1

loop_
  _space_group_symop_operation_xyz
  'x, y, z'

loop_
  _atom_site_type_symbol
  _atom_site_label
  _atom_site_symmetry_multiplicity
  _atom_site_fract_x
  _atom_site_fract_y
  _atom_site_fract_z
  _atom_site_occupancy
  Cu  Cu1       1.0  0.62384  0.10004  0.62279  1.0000
  Cu  Cu2       1.0  0.12384  0.89995  0.37720  1.0000
  H   H1        1.0  0.02872  0.71328  0.01547  1.0000
  H   H2        1.0  0.52871  0.28671  0.98452  1.0000
  H   H3        1.0  0.95035  0.88863  0.95707  1.0000
  H   H4        1.0  0.45034  0.11136  0.04293  1.0000
  H   H5        1.0  0.56802  0.86824  0.79474  1.0000
  H   H6        1.0  0.06801  0.13177  0.20526  1.0000
  H   H7        1.0  0.30384  0.66406  0.58711  1.0000
  H   H8        1.0  0.80385  0.33596  0.41290  1.0000
  H   H9        1.0  0.33392  0.34152  0.52876  1.0000
  H   H10       1.0  0.83392  0.65849  0.47125  1.0000
  H   H11       1.0  0.86950  0.41928  0.86224  1.0000
  H   H12       1.0  0.36948  0.58071  0.13776  1.0000
  C   C1        1.0  0.72871  0.85760  0.13637  1.0000
  C   C2        1.0  0.22871  0.14239  0.86362  1.0000
  C   C3        1.0  0.87782  0.78112  0.98846  1.0000
  C   C4        1.0  0.37782  0.21887  0.01153  1.0000
  C   C5        1.0  0.57659  0.72815  0.76802  1.0000
  C   C6        1.0  0.07658  0.27186  0.23198  1.0000
  C   C7        1.0  0.73507  0.66085  0.84989  1.0000
  C   C8        1.0  0.23506  0.33916  0.15011  1.0000
  C   C9        1.0  0.42975  0.61449  0.65149  1.0000
  C   C10       1.0  0.92975  0.38552  0.34852  1.0000
  C   C11       1.0  0.44710  0.43562  0.61778  1.0000
  C   C12       1.0  0.94710  0.56438  0.38223  1.0000
  C   C13       1.0  0.74606  0.47956  0.80456  1.0000
  C   C14       1.0  0.24605  0.52043  0.19544  1.0000
  N   N1        1.0  0.81354  0.93325  0.28753  1.0000
  N   N2        1.0  0.31354  0.06675  0.71247  1.0000
  N   N3        1.0  0.49283  0.86009  0.13611  1.0000
  N   N4        1.0  0.99282  0.13991  0.86388  1.0000
  N   N5        1.0  0.62263  0.98456  0.38347  1.0000
  N   N6        1.0  0.12263  0.01544  0.61652  1.0000
  N   N7        1.0  0.43078  0.93922  0.29173  1.0000
  N   N8        1.0  0.93078  0.06077  0.70826  1.0000
  N   N9        1.0  0.60663  0.36798  0.69031  1.0000
  N   N10       1.0  0.10662  0.63202  0.30969  1.0000
