data_image0
_chemical_formula_structural       Cd3H24C28N26
_chemical_formula_sum              "Cd3 H24 C28 N26"
_cell_length_a       9.48749
_cell_length_b       10.6372
_cell_length_c       10.882
_cell_angle_alpha    62.1574
_cell_angle_beta     79.4965
_cell_angle_gamma    71.3089

_space_group_name_H-M_alt    "P 1"
_space_group_IT_number       1

loop_
  _space_group_symop_operation_xyz
  'x, y, z'

loop_
  _atom_site_type_symbol
  _atom_site_label
  _atom_site_symmetry_multiplicity
  _atom_site_fract_x
  _atom_site_fract_y
  _atom_site_fract_z
  _atom_site_occupancy
  Cd  Cd1       1.0  0.00000  0.00000  0.00000  1.0000
  Cd  Cd2       1.0  0.69708  0.81495  0.10405  1.0000
  Cd  Cd3       1.0  0.30292  0.18506  0.89595  1.0000
  H   H1        1.0  0.43572  0.64998  0.81234  1.0000
  H   H2        1.0  0.56428  0.35002  0.18766  1.0000
  H   H3        1.0  0.67081  0.07840  0.52171  1.0000
  H   H4        1.0  0.32919  0.92160  0.47830  1.0000
  H   H5        1.0  0.85230  0.96839  0.56543  1.0000
  H   H6        1.0  0.14771  0.03161  0.43457  1.0000
  H   H7        1.0  0.80143  0.89225  0.80265  1.0000
  H   H8        1.0  0.19857  0.10775  0.19735  1.0000
  H   H9        1.0  0.55198  0.79383  0.58146  1.0000
  H   H10       1.0  0.44803  0.20617  0.41854  1.0000
  H   H11       1.0  0.50139  0.64685  0.02643  1.0000
  H   H12       1.0  0.49861  0.35316  0.97357  1.0000
  H   H13       1.0  0.73512  0.63113  0.43710  1.0000
  H   H14       1.0  0.26490  0.36886  0.56290  1.0000
  H   H15       1.0  0.91937  0.16721  0.54793  1.0000
  H   H16       1.0  0.08062  0.83278  0.45206  1.0000
  H   H17       1.0  0.81975  0.49225  0.12540  1.0000
  H   H18       1.0  0.18024  0.50776  0.87460  1.0000
  H   H19       1.0  0.79103  0.46558  0.67457  1.0000
  H   H20       1.0  0.20898  0.53441  0.32543  1.0000
  H   H21       1.0  0.94536  0.31066  0.69988  1.0000
  H   H22       1.0  0.05464  0.68933  0.30012  1.0000
  H   H23       1.0  0.90996  0.22746  0.29613  1.0000
  H   H24       1.0  0.09002  0.77254  0.70386  1.0000
  C   C1        1.0  0.51641  0.70670  0.80547  1.0000
  C   C2        1.0  0.48360  0.29330  0.19453  1.0000
  C   C3        1.0  0.73723  0.26106  0.75487  1.0000
  C   C4        1.0  0.26278  0.73894  0.24513  1.0000
  C   C5        1.0  0.76558  0.95017  0.41148  1.0000
  C   C6        1.0  0.23442  0.04984  0.58853  1.0000
  C   C7        1.0  0.74472  0.96687  0.54277  1.0000
  C   C8        1.0  0.25528  0.03313  0.45723  1.0000
  C   C9        1.0  0.68199  0.85976  0.67265  1.0000
  C   C10       1.0  0.31801  0.14024  0.32735  1.0000
  C   C11       1.0  0.71836  0.84281  0.79923  1.0000
  C   C12       1.0  0.28164  0.15719  0.20078  1.0000
  C   C13       1.0  0.58047  0.78663  0.67751  1.0000
  C   C14       1.0  0.41953  0.21337  0.32249  1.0000
  C   C15       1.0  0.55334  0.70332  0.92516  1.0000
  C   C16       1.0  0.44666  0.29668  0.07484  1.0000
  C   C17       1.0  0.77748  0.53819  0.41048  1.0000
  C   C18       1.0  0.22253  0.46181  0.58952  1.0000
  C   C19       1.0  0.82990  0.39453  0.51241  1.0000
  C   C20       1.0  0.17010  0.60546  0.48758  1.0000
  C   C21       1.0  0.87839  0.28094  0.47055  1.0000
  C   C22       1.0  0.12161  0.71905  0.52944  1.0000
  C   C23       1.0  0.82312  0.46133  0.23594  1.0000
  C   C24       1.0  0.17688  0.53868  0.76406  1.0000
  C   C25       1.0  0.83109  0.36233  0.66307  1.0000
  C   C26       1.0  0.16892  0.63767  0.33692  1.0000
  C   C27       1.0  0.87499  0.31412  0.33113  1.0000
  C   C28       1.0  0.12500  0.68588  0.66886  1.0000
  N   N1        1.0  0.77482  0.57084  0.27546  1.0000
  N   N2        1.0  0.22518  0.42917  0.72454  1.0000
  N   N3        1.0  0.74257  0.90773  0.24532  1.0000
  N   N4        1.0  0.25743  0.09227  0.75469  1.0000
  N   N5        1.0  0.85113  0.97311  0.20980  1.0000
  N   N6        1.0  0.14886  0.02689  0.79020  1.0000
  N   N7        1.0  0.86877  0.00148  0.31226  1.0000
  N   N8        1.0  0.13123  0.99852  0.68775  1.0000
  N   N9        1.0  0.68588  0.89160  0.37209  1.0000
  N   N10       1.0  0.31412  0.10840  0.62792  1.0000
  N   N11       1.0  0.59406  0.28459  0.73331  1.0000
  N   N12       1.0  0.40594  0.71541  0.26669  1.0000
  N   N13       1.0  0.78361  0.13296  0.86850  1.0000
  N   N14       1.0  0.21639  0.86704  0.13150  1.0000
  N   N15       1.0  0.66656  0.07665  0.91820  1.0000
  N   N16       1.0  0.33343  0.92335  0.08181  1.0000
  N   N17       1.0  0.55426  0.16764  0.83624  1.0000
  N   N18       1.0  0.44574  0.83236  0.16376  1.0000
  N   N19       1.0  0.94919  0.79269  0.01901  1.0000
  N   N20       1.0  0.05081  0.20730  0.98099  1.0000
  N   N21       1.0  0.04882  0.68129  0.03982  1.0000
  N   N22       1.0  0.95116  0.31871  0.96018  1.0000
  N   N23       1.0  0.14575  0.57441  0.05894  1.0000
  N   N24       1.0  0.85425  0.42559  0.94106  1.0000
  N   N25       1.0  0.65426  0.76938  0.92188  1.0000
  N   N26       1.0  0.34574  0.23062  0.07812  1.0000
