data_image0
_chemical_formula_structural       Fe4H36C24O18
_chemical_formula_sum              "Fe4 H36 C24 O18"
_cell_length_a       7.44871
_cell_length_b       8.94424
_cell_length_c       11.3907
_cell_angle_alpha    107.73
_cell_angle_beta     109.298
_cell_angle_gamma    89.7482

_space_group_name_H-M_alt    "P 1"
_space_group_IT_number       1

loop_
  _space_group_symop_operation_xyz
  'x, y, z'

loop_
  _atom_site_type_symbol
  _atom_site_label
  _atom_site_symmetry_multiplicity
  _atom_site_fract_x
  _atom_site_fract_y
  _atom_site_fract_z
  _atom_site_occupancy
  Fe  Fe1       1.0  0.81873  0.96055  0.04528  1.0000
  Fe  Fe2       1.0  0.77418  0.53883  0.95362  1.0000
  Fe  Fe3       1.0  0.17880  0.04042  0.95565  1.0000
  Fe  Fe4       1.0  0.22814  0.45874  0.04661  1.0000
  H   H1        1.0  0.34463  0.71880  0.30697  1.0000
  H   H2        1.0  0.03743  0.78130  0.69304  1.0000
  H   H3        1.0  0.65605  0.28105  0.69362  1.0000
  H   H4        1.0  0.96149  0.21898  0.30713  1.0000
  H   H5        1.0  0.14629  0.64417  0.32754  1.0000
  H   H6        1.0  0.81746  0.85563  0.67273  1.0000
  H   H7        1.0  0.85357  0.35612  0.67239  1.0000
  H   H8        1.0  0.18110  0.14387  0.32810  1.0000
  H   H9        1.0  0.09422  0.93271  0.44046  1.0000
  H   H10       1.0  0.65381  0.56772  0.55924  1.0000
  H   H11       1.0  0.90597  0.06732  0.55952  1.0000
  H   H12       1.0  0.34542  0.43189  0.44071  1.0000
  H   H13       1.0  0.31609  0.99248  0.43706  1.0000
  H   H14       1.0  0.87948  0.50725  0.56276  1.0000
  H   H15       1.0  0.68408  0.00771  0.56291  1.0000
  H   H16       1.0  0.11995  0.49266  0.43732  1.0000
  H   H17       1.0  0.47123  0.80755  0.56477  1.0000
  H   H18       1.0  0.90516  0.69141  0.43484  1.0000
  H   H19       1.0  0.52887  0.19216  0.43497  1.0000
  H   H20       1.0  0.09465  0.30873  0.56565  1.0000
  H   H21       1.0  0.24758  0.76159  0.57335  1.0000
  H   H22       1.0  0.67303  0.73902  0.42662  1.0000
  H   H23       1.0  0.75266  0.23899  0.42698  1.0000
  H   H24       1.0  0.32684  0.26133  0.57378  1.0000
  H   H25       1.0  0.47144  0.09206  0.68982  1.0000
  H   H26       1.0  0.77927  0.40715  0.31030  1.0000
  H   H27       1.0  0.53040  0.90783  0.31006  1.0000
  H   H28       1.0  0.22026  0.59314  0.68976  1.0000
  H   H29       1.0  0.23906  0.04922  0.69153  1.0000
  H   H30       1.0  0.54502  0.45200  0.30784  1.0000
  H   H31       1.0  0.76242  0.95184  0.30815  1.0000
  H   H32       1.0  0.45460  0.54839  0.69215  1.0000
  H   H33       1.0  0.48873  0.78640  0.93974  1.0000
  H   H34       1.0  0.54813  0.71311  0.05910  1.0000
  H   H35       1.0  0.50921  0.21259  0.05821  1.0000
  H   H36       1.0  0.45133  0.28718  0.93914  1.0000
  C   C1        1.0  0.07680  0.76355  0.19000  1.0000
  C   C2        1.0  0.88873  0.73569  0.81007  1.0000
  C   C3        1.0  0.92462  0.23600  0.80957  1.0000
  C   C4        1.0  0.11178  0.26400  0.19102  1.0000
  C   C5        1.0  0.20739  0.75060  0.31896  1.0000
  C   C6        1.0  0.88847  0.74917  0.68109  1.0000
  C   C7        1.0  0.79310  0.24950  0.68109  1.0000
  C   C8        1.0  0.11077  0.25054  0.31953  1.0000
  C   C9        1.0  0.23413  0.89263  0.44037  1.0000
  C   C10       1.0  0.79366  0.60739  0.55945  1.0000
  C   C11       1.0  0.76610  0.10751  0.55958  1.0000
  C   C12       1.0  0.20568  0.39250  0.44082  1.0000
  C   C13       1.0  0.33549  0.85553  0.56710  1.0000
  C   C14       1.0  0.76720  0.64438  0.43271  1.0000
  C   C15       1.0  0.66496  0.14467  0.43292  1.0000
  C   C16       1.0  0.23249  0.35584  0.56764  1.0000
  C   C17       1.0  0.46155  0.95743  0.81385  1.0000
  C   C18       1.0  0.64653  0.54174  0.18576  1.0000
  C   C19       1.0  0.53833  0.04337  0.18640  1.0000
  C   C20       1.0  0.35308  0.45813  0.81403  1.0000
  C   C21       1.0  0.37439  0.00051  0.69004  1.0000
  C   C22       1.0  0.68219  0.49953  0.30970  1.0000
  C   C23       1.0  0.62684  0.99992  0.30987  1.0000
  C   C24       1.0  0.31747  0.50085  0.69037  1.0000
  O   O1        1.0  0.64156  0.98508  0.87194  1.0000
  O   O2        1.0  0.76968  0.51485  0.12934  1.0000
  O   O3        1.0  0.35829  0.01650  0.12954  1.0000
  O   O4        1.0  0.23014  0.48532  0.87054  1.0000
  O   O5        1.0  0.59919  0.74940  0.99966  1.0000
  O   O6        1.0  0.39949  0.25025  0.99820  1.0000
  O   O7        1.0  0.34912  0.88993  0.85194  1.0000
  O   O8        1.0  0.49425  0.60865  0.14567  1.0000
  O   O9        1.0  0.64984  0.11107  0.14751  1.0000
  O   O10       1.0  0.50484  0.39038  0.85347  1.0000
  O   O11       1.0  0.06228  0.65022  0.08471  1.0000
  O   O12       1.0  0.97968  0.84917  0.91520  1.0000
  O   O13       1.0  0.94030  0.34921  0.91530  1.0000
  O   O14       1.0  0.02272  0.14987  0.08552  1.0000
  O   O15       1.0  0.98005  0.88103  0.19108  1.0000
  O   O16       1.0  0.79164  0.61857  0.80913  1.0000
  O   O17       1.0  0.02073  0.11813  0.80790  1.0000
  O   O18       1.0  0.20770  0.38149  0.19202  1.0000
