data_image0
_chemical_formula_structural       Ag4H32C40N12O8
_chemical_formula_sum              "Ag4 H32 C40 N12 O8"
_cell_length_a       6.3239
_cell_length_b       7.94553
_cell_length_c       19.7691
_cell_angle_alpha    90.0005
_cell_angle_beta     90.8708
_cell_angle_gamma    90.0006

_space_group_name_H-M_alt    "P 1"
_space_group_IT_number       1

loop_
  _space_group_symop_operation_xyz
  'x, y, z'

loop_
  _atom_site_type_symbol
  _atom_site_label
  _atom_site_symmetry_multiplicity
  _atom_site_fract_x
  _atom_site_fract_y
  _atom_site_fract_z
  _atom_site_occupancy
  Ag  Ag1       1.0  0.44592  0.73217  0.03378  1.0000
  Ag  Ag2       1.0  0.55407  0.23217  0.46623  1.0000
  Ag  Ag3       1.0  0.55409  0.26784  0.96622  1.0000
  Ag  Ag4       1.0  0.44593  0.76783  0.53378  1.0000
  H   H1        1.0  0.02424  0.88574  0.33053  1.0000
  H   H2        1.0  0.97577  0.38572  0.16948  1.0000
  H   H3        1.0  0.97576  0.11426  0.66947  1.0000
  H   H4        1.0  0.02422  0.61425  0.83053  1.0000
  H   H5        1.0  0.93291  0.95000  0.21142  1.0000
  H   H6        1.0  0.06709  0.44999  0.28859  1.0000
  H   H7        1.0  0.06709  0.04998  0.78858  1.0000
  H   H8        1.0  0.93289  0.54999  0.71142  1.0000
  H   H9        1.0  0.56646  0.13435  0.18172  1.0000
  H   H10       1.0  0.43355  0.63437  0.31827  1.0000
  H   H11       1.0  0.43354  0.86565  0.81828  1.0000
  H   H12       1.0  0.56644  0.36564  0.68172  1.0000
  H   H13       1.0  0.65474  0.06989  0.30213  1.0000
  H   H14       1.0  0.34527  0.56989  0.19786  1.0000
  H   H15       1.0  0.34524  0.93012  0.69788  1.0000
  H   H16       1.0  0.65474  0.43011  0.80213  1.0000
  H   H17       1.0  0.11719  0.20306  0.10639  1.0000
  H   H18       1.0  0.88282  0.70308  0.39360  1.0000
  H   H19       1.0  0.88282  0.79693  0.89361  1.0000
  H   H20       1.0  0.11717  0.29693  0.60639  1.0000
  H   H21       1.0  0.33913  0.08241  0.08394  1.0000
  H   H22       1.0  0.66088  0.58244  0.41606  1.0000
  H   H23       1.0  0.66088  0.91757  0.91607  1.0000
  H   H24       1.0  0.33912  0.41758  0.58394  1.0000
  H   H25       1.0  0.94186  0.57860  0.04377  1.0000
  H   H26       1.0  0.05813  0.07862  0.45623  1.0000
  H   H27       1.0  0.05814  0.42140  0.95622  1.0000
  H   H28       1.0  0.94187  0.92139  0.54377  1.0000
  H   H29       1.0  0.75611  0.08175  0.07976  1.0000
  H   H30       1.0  0.24390  0.58176  0.42024  1.0000
  H   H31       1.0  0.24390  0.91826  0.92024  1.0000
  H   H32       1.0  0.75611  0.41826  0.57976  1.0000
  C   C1        1.0  0.41007  0.91267  0.39363  1.0000
  C   C2        1.0  0.58995  0.41266  0.10637  1.0000
  C   C3        1.0  0.58992  0.08734  0.60638  1.0000
  C   C4        1.0  0.41007  0.58733  0.89363  1.0000
  C   C5        1.0  0.34713  0.96993  0.32350  1.0000
  C   C6        1.0  0.65289  0.46993  0.17651  1.0000
  C   C7        1.0  0.65287  0.03007  0.67651  1.0000
  C   C8        1.0  0.34712  0.53006  0.82349  1.0000
  C   C9        1.0  0.14277  0.94020  0.29769  1.0000
  C   C10       1.0  0.85724  0.44020  0.20231  1.0000
  C   C11       1.0  0.85724  0.05978  0.70231  1.0000
  C   C12       1.0  0.14276  0.55978  0.79769  1.0000
  C   C13       1.0  0.09189  0.97768  0.23061  1.0000
  C   C14       1.0  0.90812  0.47768  0.26939  1.0000
  C   C15       1.0  0.90810  0.02230  0.76940  1.0000
  C   C16       1.0  0.09188  0.52231  0.73061  1.0000
  C   C17       1.0  0.24477  0.04522  0.18783  1.0000
  C   C18       1.0  0.75524  0.54523  0.31217  1.0000
  C   C19       1.0  0.75523  0.95477  0.81217  1.0000
  C   C20       1.0  0.24475  0.45477  0.68783  1.0000
  C   C21       1.0  0.44682  0.07994  0.21420  1.0000
  C   C22       1.0  0.55319  0.57995  0.28580  1.0000
  C   C23       1.0  0.55317  0.92006  0.78580  1.0000
  C   C24       1.0  0.44680  0.42006  0.71420  1.0000
  C   C25       1.0  0.49722  0.04427  0.28150  1.0000
  C   C26       1.0  0.50279  0.54427  0.21850  1.0000
  C   C27       1.0  0.50277  0.95573  0.71851  1.0000
  C   C28       1.0  0.49720  0.45572  0.78150  1.0000
  C   C29       1.0  0.19471  0.08057  0.11409  1.0000
  C   C30       1.0  0.80529  0.58058  0.38591  1.0000
  C   C31       1.0  0.80530  0.91943  0.88592  1.0000
  C   C32       1.0  0.19470  0.41943  0.61409  1.0000
  C   C33       1.0  0.94470  0.71165  0.05605  1.0000
  C   C34       1.0  0.05530  0.21167  0.44395  1.0000
  C   C35       1.0  0.05530  0.28835  0.94394  1.0000
  C   C36       1.0  0.94470  0.78834  0.55605  1.0000
  C   C37       1.0  0.84276  0.96370  0.07515  1.0000
  C   C38       1.0  0.15725  0.46371  0.42485  1.0000
  C   C39       1.0  0.15725  0.03630  0.92485  1.0000
  C   C40       1.0  0.84275  0.53631  0.57515  1.0000
  N   N1        1.0  0.05280  0.95410  0.08536  1.0000
  N   N2        1.0  0.94720  0.45412  0.41464  1.0000
  N   N3        1.0  0.94720  0.04589  0.91464  1.0000
  N   N4        1.0  0.05280  0.54589  0.58536  1.0000
  N   N5        1.0  0.12012  0.79378  0.07374  1.0000
  N   N6        1.0  0.87988  0.29380  0.42626  1.0000
  N   N7        1.0  0.87989  0.20622  0.92626  1.0000
  N   N8        1.0  0.12011  0.70622  0.57374  1.0000
  N   N9        1.0  0.76987  0.81221  0.05622  1.0000
  N   N10       1.0  0.23013  0.31222  0.44378  1.0000
  N   N11       1.0  0.23013  0.18780  0.94377  1.0000
  N   N12       1.0  0.76987  0.68779  0.55622  1.0000
  O   O1        1.0  0.59524  0.94475  0.41554  1.0000
  O   O2        1.0  0.40479  0.44474  0.08445  1.0000
  O   O3        1.0  0.40476  0.05526  0.58446  1.0000
  O   O4        1.0  0.59524  0.55527  0.91554  1.0000
  O   O5        1.0  0.27131  0.82953  0.42687  1.0000
  O   O6        1.0  0.72871  0.32950  0.07314  1.0000
  O   O7        1.0  0.72867  0.17048  0.57314  1.0000
  O   O8        1.0  0.27131  0.67047  0.92687  1.0000
