data_image0
_chemical_formula_structural       Cu2H32C48N8O12
_chemical_formula_sum              "Cu2 H32 C48 N8 O12"
_cell_length_a       7.37207
_cell_length_b       11.8565
_cell_length_c       13.1115
_cell_angle_alpha    108.428
_cell_angle_beta     106.33
_cell_angle_gamma    90.0082

_space_group_name_H-M_alt    "P 1"
_space_group_IT_number       1

loop_
  _space_group_symop_operation_xyz
  'x, y, z'

loop_
  _atom_site_type_symbol
  _atom_site_label
  _atom_site_symmetry_multiplicity
  _atom_site_fract_x
  _atom_site_fract_y
  _atom_site_fract_z
  _atom_site_occupancy
  Cu  Cu1       1.0  0.40356  0.74992  0.00003  1.0000
  Cu  Cu2       1.0  0.59644  0.25008  0.99997  1.0000
  H   H1        1.0  0.53213  0.02519  0.80927  1.0000
  H   H2        1.0  0.72278  0.47512  0.19081  1.0000
  H   H3        1.0  0.46787  0.97481  0.19073  1.0000
  H   H4        1.0  0.27721  0.52487  0.80919  1.0000
  H   H5        1.0  0.64893  0.94419  0.64211  1.0000
  H   H6        1.0  0.00682  0.55591  0.35808  1.0000
  H   H7        1.0  0.35106  0.05581  0.35789  1.0000
  H   H8        1.0  0.99317  0.44409  0.64192  1.0000
  H   H9        1.0  0.04121  0.26321  0.77227  1.0000
  H   H10       1.0  0.26846  0.23682  0.22765  1.0000
  H   H11       1.0  0.95879  0.73679  0.22773  1.0000
  H   H12       1.0  0.73154  0.76318  0.77235  1.0000
  H   H13       1.0  0.90565  0.33292  0.93183  1.0000
  H   H14       1.0  0.97313  0.16721  0.06821  1.0000
  H   H15       1.0  0.09436  0.66708  0.06816  1.0000
  H   H16       1.0  0.02687  0.83279  0.93179  1.0000
  H   H17       1.0  0.68963  0.21830  0.56952  1.0000
  H   H18       1.0  0.12017  0.28166  0.43056  1.0000
  H   H19       1.0  0.31037  0.78170  0.43048  1.0000
  H   H20       1.0  0.87983  0.71834  0.56944  1.0000
  H   H21       1.0  0.59818  0.29131  0.40770  1.0000
  H   H22       1.0  0.19057  0.20873  0.59244  1.0000
  H   H23       1.0  0.40183  0.70868  0.59231  1.0000
  H   H24       1.0  0.80944  0.79128  0.40756  1.0000
  H   H25       1.0  0.71395  0.20192  0.24144  1.0000
  H   H26       1.0  0.47269  0.29822  0.75867  1.0000
  H   H27       1.0  0.28606  0.79808  0.75856  1.0000
  H   H28       1.0  0.52731  0.70178  0.24133  1.0000
  H   H29       1.0  0.07304  0.95737  0.76237  1.0000
  H   H30       1.0  0.31050  0.54249  0.23759  1.0000
  H   H31       1.0  0.92696  0.04263  0.23763  1.0000
  H   H32       1.0  0.68950  0.45752  0.76241  1.0000
  C   C1        1.0  0.64355  0.07509  0.79716  1.0000
  C   C2        1.0  0.84622  0.42516  0.20295  1.0000
  C   C3        1.0  0.35645  0.92491  0.20284  1.0000
  C   C4        1.0  0.15378  0.57485  0.79705  1.0000
  C   C5        1.0  0.71056  0.03070  0.70454  1.0000
  C   C6        1.0  0.00587  0.46943  0.29559  1.0000
  C   C7        1.0  0.28943  0.96930  0.29546  1.0000
  C   C8        1.0  0.99413  0.53057  0.70441  1.0000
  C   C9        1.0  0.85527  0.09711  0.69210  1.0000
  C   C10       1.0  0.16290  0.40291  0.30797  1.0000
  C   C11       1.0  0.14472  0.90288  0.30789  1.0000
  C   C12       1.0  0.83710  0.59709  0.69203  1.0000
  C   C13       1.0  0.92687  0.20761  0.77570  1.0000
  C   C14       1.0  0.15075  0.29246  0.22431  1.0000
  C   C15       1.0  0.07313  0.79238  0.22430  1.0000
  C   C16       1.0  0.84925  0.70754  0.77569  1.0000
  C   C17       1.0  0.85334  0.24687  0.86627  1.0000
  C   C18       1.0  0.98653  0.25328  0.13377  1.0000
  C   C19       1.0  0.14667  0.75312  0.13373  1.0000
  C   C20       1.0  0.01347  0.74672  0.86623  1.0000
  C   C21       1.0  0.93018  0.04887  0.59413  1.0000
  C   C22       1.0  0.33596  0.45109  0.40587  1.0000
  C   C23       1.0  0.06982  0.95112  0.40587  1.0000
  C   C24       1.0  0.66404  0.54892  0.59413  1.0000
  C   C25       1.0  0.05818  0.96041  0.59495  1.0000
  C   C26       1.0  0.46316  0.53954  0.40506  1.0000
  C   C27       1.0  0.94182  0.03959  0.40505  1.0000
  C   C28       1.0  0.53683  0.46046  0.59494  1.0000
  C   C29       1.0  0.87075  0.08939  0.50076  1.0000
  C   C30       1.0  0.37001  0.41061  0.49927  1.0000
  C   C31       1.0  0.12925  0.91061  0.49924  1.0000
  C   C32       1.0  0.62999  0.58939  0.50073  1.0000
  C   C33       1.0  0.74408  0.18025  0.49807  1.0000
  C   C34       1.0  0.24610  0.31972  0.50201  1.0000
  C   C35       1.0  0.25592  0.81974  0.50193  1.0000
  C   C36       1.0  0.75390  0.68028  0.49799  1.0000
  C   C37       1.0  0.69268  0.22083  0.40770  1.0000
  C   C38       1.0  0.28507  0.27922  0.59243  1.0000
  C   C39       1.0  0.30733  0.77917  0.59231  1.0000
  C   C40       1.0  0.71492  0.72078  0.40757  1.0000
  C   C41       1.0  0.76005  0.17084  0.31342  1.0000
  C   C42       1.0  0.44678  0.32928  0.68667  1.0000
  C   C43       1.0  0.23995  0.82916  0.68658  1.0000
  C   C44       1.0  0.55322  0.67072  0.31333  1.0000
  C   C45       1.0  0.12013  0.91785  0.68834  1.0000
  C   C46       1.0  0.43166  0.58205  0.31162  1.0000
  C   C47       1.0  0.87987  0.08215  0.31166  1.0000
  C   C48       1.0  0.56834  0.41795  0.68838  1.0000
  N   N1        1.0  0.67799  0.90770  0.01137  1.0000
  N   N2        1.0  0.66678  0.59235  0.98866  1.0000
  N   N3        1.0  0.32201  0.09230  0.98863  1.0000
  N   N4        1.0  0.33323  0.40765  0.01134  1.0000
  N   N5        1.0  0.71345  0.18185  0.87686  1.0000
  N   N6        1.0  0.83626  0.31841  0.12321  1.0000
  N   N7        1.0  0.28654  0.81815  0.12314  1.0000
  N   N8        1.0  0.16374  0.68160  0.87679  1.0000
  O   O1        1.0  0.83073  0.96895  0.03708  1.0000
  O   O2        1.0  0.79375  0.53108  0.96295  1.0000
  O   O3        1.0  0.16928  0.03104  0.96292  1.0000
  O   O4        1.0  0.20626  0.46893  0.03705  1.0000
  O   O5        1.0  0.54997  0.88803  0.91936  1.0000
  O   O6        1.0  0.63071  0.61198  0.08064  1.0000
  O   O7        1.0  0.45004  0.11197  0.08064  1.0000
  O   O8        1.0  0.36929  0.38802  0.91935  1.0000
  O   O9        1.0  0.64754  0.85994  0.08321  1.0000
  O   O10       1.0  0.56453  0.64012  0.91683  1.0000
  O   O11       1.0  0.35247  0.14005  0.91679  1.0000
  O   O12       1.0  0.43547  0.35988  0.08317  1.0000
