data_image0
_chemical_formula_structural       Cu4H24C24N16
_chemical_formula_sum              "Cu4 H24 C24 N16"
_cell_length_a       3.99662
_cell_length_b       9.82417
_cell_length_c       18.2633
_cell_angle_alpha    90.0003
_cell_angle_beta     89.9999
_cell_angle_gamma    93.1298

_space_group_name_H-M_alt    "P 1"
_space_group_IT_number       1

loop_
  _space_group_symop_operation_xyz
  'x, y, z'

loop_
  _atom_site_type_symbol
  _atom_site_label
  _atom_site_symmetry_multiplicity
  _atom_site_fract_x
  _atom_site_fract_y
  _atom_site_fract_z
  _atom_site_occupancy
  Cu  Cu1       1.0  0.87522  0.71633  0.86211  1.0000
  Cu  Cu2       1.0  0.87524  0.21633  0.63789  1.0000
  Cu  Cu3       1.0  0.12477  0.28367  0.13789  1.0000
  Cu  Cu4       1.0  0.12476  0.78367  0.36211  1.0000
  H   H1        1.0  0.45446  0.80490  0.01423  1.0000
  H   H2        1.0  0.45445  0.30491  0.48577  1.0000
  H   H3        1.0  0.54554  0.19509  0.98577  1.0000
  H   H4        1.0  0.54555  0.69509  0.51423  1.0000
  H   H5        1.0  0.08698  0.82497  0.06646  1.0000
  H   H6        1.0  0.08697  0.32497  0.43354  1.0000
  H   H7        1.0  0.91301  0.17503  0.93354  1.0000
  H   H8        1.0  0.91304  0.67503  0.56646  1.0000
  H   H9        1.0  0.07687  0.84124  0.96911  1.0000
  H   H10       1.0  0.07686  0.34124  0.53089  1.0000
  H   H11       1.0  0.92313  0.15876  0.03089  1.0000
  H   H12       1.0  0.92315  0.65876  0.46911  1.0000
  H   H13       1.0  0.52541  0.49607  0.84587  1.0000
  H   H14       1.0  0.52542  0.99608  0.65413  1.0000
  H   H15       1.0  0.47461  0.50392  0.15413  1.0000
  H   H16       1.0  0.47457  0.00392  0.34586  1.0000
  H   H17       1.0  0.49879  0.32275  0.87679  1.0000
  H   H18       1.0  0.49881  0.82276  0.62322  1.0000
  H   H19       1.0  0.50122  0.67724  0.12322  1.0000
  H   H20       1.0  0.50119  0.17724  0.37678  1.0000
  H   H21       1.0  0.84995  0.38581  0.82619  1.0000
  H   H22       1.0  0.84997  0.88582  0.67382  1.0000
  H   H23       1.0  0.15006  0.61418  0.17382  1.0000
  H   H24       1.0  0.15003  0.11418  0.32618  1.0000
  C   C1        1.0  0.49058  0.97378  0.84837  1.0000
  C   C2        1.0  0.49061  0.47378  0.65164  1.0000
  C   C3        1.0  0.50940  0.02622  0.15163  1.0000
  C   C4        1.0  0.50940  0.52623  0.34836  1.0000
  C   C5        1.0  0.20200  0.12224  0.77971  1.0000
  C   C6        1.0  0.20200  0.62224  0.72029  1.0000
  C   C7        1.0  0.79800  0.87775  0.22029  1.0000
  C   C8        1.0  0.79800  0.37776  0.27971  1.0000
  C   C9        1.0  0.09038  0.63552  0.00702  1.0000
  C   C10       1.0  0.09038  0.13553  0.49298  1.0000
  C   C11       1.0  0.90961  0.36447  0.99298  1.0000
  C   C12       1.0  0.90962  0.86447  0.50702  1.0000
  C   C13       1.0  0.18156  0.78454  0.01475  1.0000
  C   C14       1.0  0.18155  0.28454  0.48525  1.0000
  C   C15       1.0  0.81844  0.21546  0.98526  1.0000
  C   C16       1.0  0.81846  0.71546  0.51475  1.0000
  C   C17       1.0  0.84004  0.45743  0.93751  1.0000
  C   C18       1.0  0.84006  0.95743  0.56249  1.0000
  C   C19       1.0  0.15994  0.54257  0.06249  1.0000
  C   C20       1.0  0.15994  0.04257  0.43751  1.0000
  C   C21       1.0  0.66755  0.41298  0.86822  1.0000
  C   C22       1.0  0.66756  0.91298  0.63178  1.0000
  C   C23       1.0  0.33247  0.58702  0.13178  1.0000
  C   C24       1.0  0.33244  0.08702  0.36822  1.0000
  N   N1        1.0  0.63931  0.87655  0.86184  1.0000
  N   N2        1.0  0.63934  0.37656  0.63816  1.0000
  N   N3        1.0  0.36066  0.12344  0.13816  1.0000
  N   N4        1.0  0.36067  0.62345  0.36184  1.0000
  N   N5        1.0  0.33093  0.08393  0.84083  1.0000
  N   N6        1.0  0.33097  0.58394  0.65918  1.0000
  N   N7        1.0  0.66905  0.91606  0.15917  1.0000
  N   N8        1.0  0.66905  0.41607  0.34082  1.0000
  N   N9        1.0  0.07249  0.16739  0.72780  1.0000
  N   N10       1.0  0.07249  0.66738  0.77220  1.0000
  N   N11       1.0  0.92751  0.83261  0.27220  1.0000
  N   N12       1.0  0.92750  0.33262  0.22780  1.0000
  N   N13       1.0  0.93225  0.59181  0.94478  1.0000
  N   N14       1.0  0.93225  0.09182  0.55522  1.0000
  N   N15       1.0  0.06775  0.40818  0.05522  1.0000
  N   N16       1.0  0.06775  0.90819  0.44478  1.0000
