data_image0
_chemical_formula_structural       Cu4H30C42N20
_chemical_formula_sum              "Cu4 H30 C42 N20"
_cell_length_a       8.2046
_cell_length_b       10.0467
_cell_length_c       13.7973
_cell_angle_alpha    98.8141
_cell_angle_beta     92.4996
_cell_angle_gamma    102.285

_space_group_name_H-M_alt    "P 1"
_space_group_IT_number       1

loop_
  _space_group_symop_operation_xyz
  'x, y, z'

loop_
  _atom_site_type_symbol
  _atom_site_label
  _atom_site_symmetry_multiplicity
  _atom_site_fract_x
  _atom_site_fract_y
  _atom_site_fract_z
  _atom_site_occupancy
  Cu  Cu1       1.0  0.82194  0.18579  0.40108  1.0000
  Cu  Cu2       1.0  0.17806  0.81421  0.59892  1.0000
  Cu  Cu3       1.0  0.40593  0.73207  0.13585  1.0000
  Cu  Cu4       1.0  0.59407  0.26793  0.86415  1.0000
  H   H1        1.0  0.79934  0.45595  0.52691  1.0000
  H   H2        1.0  0.20066  0.54404  0.47309  1.0000
  H   H3        1.0  0.90358  0.58420  0.69347  1.0000
  H   H4        1.0  0.09642  0.41580  0.30653  1.0000
  H   H5        1.0  0.13683  0.24648  0.73597  1.0000
  H   H6        1.0  0.86317  0.75352  0.26403  1.0000
  H   H7        1.0  0.01809  0.13140  0.56834  1.0000
  H   H8        1.0  0.98191  0.86860  0.43166  1.0000
  H   H9        1.0  0.24350  0.81880  0.96486  1.0000
  H   H10       1.0  0.75650  0.18120  0.03514  1.0000
  H   H11       1.0  0.11073  0.70559  0.79926  1.0000
  H   H12       1.0  0.88927  0.29441  0.20074  1.0000
  H   H13       1.0  0.10712  0.31279  0.89207  1.0000
  H   H14       1.0  0.89288  0.68721  0.10793  1.0000
  H   H15       1.0  0.24425  0.44310  0.05245  1.0000
  H   H16       1.0  0.75575  0.55690  0.94755  1.0000
  H   H17       1.0  0.55173  0.73612  0.93601  1.0000
  H   H18       1.0  0.44826  0.26388  0.06399  1.0000
  H   H19       1.0  0.81205  0.84500  0.87339  1.0000
  H   H20       1.0  0.18795  0.15500  0.12661  1.0000
  H   H21       1.0  0.96814  0.06262  0.17132  1.0000
  H   H22       1.0  0.03186  0.93737  0.82868  1.0000
  H   H23       1.0  0.69781  0.94847  0.21964  1.0000
  H   H24       1.0  0.30220  0.05153  0.78037  1.0000
  H   H25       1.0  0.46408  0.77261  0.50363  1.0000
  H   H26       1.0  0.53592  0.22739  0.49637  1.0000
  H   H27       1.0  0.62155  0.69252  0.45039  1.0000
  H   H28       1.0  0.37844  0.30748  0.54961  1.0000
  H   H29       1.0  0.45137  0.71371  0.37278  1.0000
  H   H30       1.0  0.54862  0.28629  0.62722  1.0000
  C   C1        1.0  0.15179  0.12064  0.33859  1.0000
  C   C2        1.0  0.84821  0.87936  0.66141  1.0000
  C   C3        1.0  0.30858  0.96734  0.27835  1.0000
  C   C4        1.0  0.69142  0.03267  0.72165  1.0000
  C   C5        1.0  0.57242  0.32956  0.30645  1.0000
  C   C6        1.0  0.42758  0.67044  0.69355  1.0000
  C   C7        1.0  0.45691  0.47999  0.23020  1.0000
  C   C8        1.0  0.54309  0.52001  0.76980  1.0000
  C   C9        1.0  0.87366  0.41280  0.57636  1.0000
  C   C10       1.0  0.12633  0.58720  0.42364  1.0000
  C   C11       1.0  0.93280  0.48403  0.66984  1.0000
  C   C12       1.0  0.06720  0.51597  0.33016  1.0000
  C   C13       1.0  0.02871  0.42564  0.73125  1.0000
  C   C14       1.0  0.97128  0.57436  0.26874  1.0000
  C   C15       1.0  0.05988  0.29623  0.69338  1.0000
  C   C16       1.0  0.94012  0.70376  0.30662  1.0000
  C   C17       1.0  0.99527  0.23186  0.59923  1.0000
  C   C18       1.0  0.00474  0.76813  0.40077  1.0000
  C   C19       1.0  0.21085  0.70654  0.94567  1.0000
  C   C20       1.0  0.78915  0.29346  0.05433  1.0000
  C   C21       1.0  0.13462  0.64259  0.85359  1.0000
  C   C22       1.0  0.86537  0.35741  0.14641  1.0000
  C   C23       1.0  0.09840  0.49775  0.82998  1.0000
  C   C24       1.0  0.90160  0.50224  0.17002  1.0000
  C   C25       1.0  0.13699  0.42522  0.90400  1.0000
  C   C26       1.0  0.86301  0.57478  0.09600  1.0000
  C   C27       1.0  0.21215  0.49711  0.99419  1.0000
  C   C28       1.0  0.78785  0.50289  0.00581  1.0000
  C   C29       1.0  0.64745  0.80963  0.98610  1.0000
  C   C30       1.0  0.35255  0.19037  0.01390  1.0000
  C   C31       1.0  0.79624  0.87155  0.95141  1.0000
  C   C32       1.0  0.20376  0.12845  0.04859  1.0000
  C   C33       1.0  0.92018  0.96536  0.01652  1.0000
  C   C34       1.0  0.07982  0.03464  0.98348  1.0000
  C   C35       1.0  0.88205  0.99094  0.11517  1.0000
  C   C36       1.0  0.11795  0.00906  0.88483  1.0000
  C   C37       1.0  0.72930  0.92635  0.14368  1.0000
  C   C38       1.0  0.27071  0.07364  0.85632  1.0000
  C   C39       1.0  0.63024  0.89353  0.42477  1.0000
  C   C40       1.0  0.36976  0.10648  0.57523  1.0000
  C   C41       1.0  0.53622  0.76045  0.43875  1.0000
  C   C42       1.0  0.46378  0.23955  0.56125  1.0000
  N   N1        1.0  0.28547  0.07255  0.33886  1.0000
  N   N2        1.0  0.71453  0.92745  0.66115  1.0000
  N   N3        1.0  0.03496  0.17256  0.34422  1.0000
  N   N4        1.0  0.96505  0.82744  0.65578  1.0000
  N   N5        1.0  0.34172  0.87264  0.22782  1.0000
  N   N6        1.0  0.65827  0.12736  0.77217  1.0000
  N   N7        1.0  0.44801  0.36627  0.26504  1.0000
  N   N8        1.0  0.55200  0.63373  0.73496  1.0000
  N   N9        1.0  0.67582  0.28552  0.34498  1.0000
  N   N10       1.0  0.32419  0.71449  0.65503  1.0000
  N   N11       1.0  0.44768  0.57931  0.19629  1.0000
  N   N12       1.0  0.55231  0.42069  0.80372  1.0000
  N   N13       1.0  0.90298  0.28821  0.54056  1.0000
  N   N14       1.0  0.09702  0.71179  0.45944  1.0000
  N   N15       1.0  0.25199  0.63642  0.01570  1.0000
  N   N16       1.0  0.74801  0.36358  0.98430  1.0000
  N   N17       1.0  0.61206  0.83483  0.08091  1.0000
  N   N18       1.0  0.38794  0.16517  0.91909  1.0000
  N   N19       1.0  0.70483  0.00109  0.41217  1.0000
  N   N20       1.0  0.29516  0.99891  0.58783  1.0000
