data_image0
_chemical_formula_structural       Cu4H28C28I4N4O8
_chemical_formula_sum              "Cu4 H28 C28 I4 N4 O8"
_cell_length_a       4.02531
_cell_length_b       13.583
_cell_length_c       15.7979
_cell_angle_alpha    90.0009
_cell_angle_beta     89.9321
_cell_angle_gamma    90.0006

_space_group_name_H-M_alt    "P 1"
_space_group_IT_number       1

loop_
  _space_group_symop_operation_xyz
  'x, y, z'

loop_
  _atom_site_type_symbol
  _atom_site_label
  _atom_site_symmetry_multiplicity
  _atom_site_fract_x
  _atom_site_fract_y
  _atom_site_fract_z
  _atom_site_occupancy
  Cu  Cu1       1.0  0.16663  0.02869  0.93324  1.0000
  Cu  Cu2       1.0  0.16665  0.47131  0.43324  1.0000
  Cu  Cu3       1.0  0.83339  0.97131  0.06675  1.0000
  Cu  Cu4       1.0  0.83337  0.52868  0.56675  1.0000
  H   H1        1.0  0.96096  0.22234  0.98598  1.0000
  H   H2        1.0  0.96097  0.27765  0.48598  1.0000
  H   H3        1.0  0.03911  0.77766  0.01402  1.0000
  H   H4        1.0  0.03903  0.72233  0.51402  1.0000
  H   H5        1.0  0.55081  0.36771  0.76689  1.0000
  H   H6        1.0  0.55084  0.13228  0.26689  1.0000
  H   H7        1.0  0.44916  0.63229  0.23311  1.0000
  H   H8        1.0  0.44920  0.86771  0.73310  1.0000
  H   H9        1.0  0.78350  0.23153  0.67874  1.0000
  H   H10       1.0  0.78355  0.26847  0.17873  1.0000
  H   H11       1.0  0.21650  0.76848  0.32127  1.0000
  H   H12       1.0  0.21649  0.73153  0.82126  1.0000
  H   H13       1.0  0.65525  0.45242  0.04575  1.0000
  H   H14       1.0  0.65522  0.04758  0.54574  1.0000
  H   H15       1.0  0.34484  0.54758  0.95427  1.0000
  H   H16       1.0  0.34482  0.95241  0.45425  1.0000
  H   H17       1.0  0.32510  0.03380  0.76917  1.0000
  H   H18       1.0  0.32512  0.46620  0.26918  1.0000
  H   H19       1.0  0.67488  0.96621  0.23082  1.0000
  H   H20       1.0  0.67483  0.53381  0.73082  1.0000
  H   H21       1.0  0.93447  0.01756  0.71937  1.0000
  H   H22       1.0  0.93449  0.48244  0.21938  1.0000
  H   H23       1.0  0.06551  0.98245  0.28063  1.0000
  H   H24       1.0  0.06544  0.51755  0.78063  1.0000
  H   H25       1.0  0.22621  0.09955  0.67388  1.0000
  H   H26       1.0  0.22622  0.40045  0.17389  1.0000
  H   H27       1.0  0.77379  0.90046  0.32611  1.0000
  H   H28       1.0  0.77375  0.59956  0.82611  1.0000
  C   C1        1.0  0.91588  0.22684  0.91808  1.0000
  C   C2        1.0  0.91589  0.27315  0.41808  1.0000
  C   C3        1.0  0.08413  0.77316  0.08192  1.0000
  C   C4        1.0  0.08410  0.72684  0.58191  1.0000
  C   C5        1.0  0.74544  0.30650  0.88330  1.0000
  C   C6        1.0  0.74546  0.19349  0.38328  1.0000
  C   C7        1.0  0.25450  0.69349  0.11671  1.0000
  C   C8        1.0  0.25449  0.80650  0.61670  1.0000
  C   C9        1.0  0.68894  0.30760  0.79584  1.0000
  C   C10       1.0  0.68899  0.19240  0.29582  1.0000
  C   C11       1.0  0.31103  0.69240  0.20418  1.0000
  C   C12       1.0  0.31105  0.80760  0.70417  1.0000
  C   C13       1.0  0.81571  0.23147  0.74724  1.0000
  C   C14       1.0  0.81576  0.26852  0.24723  1.0000
  C   C15       1.0  0.18427  0.76853  0.25277  1.0000
  C   C16       1.0  0.18426  0.73148  0.75276  1.0000
  C   C17       1.0  0.98883  0.15404  0.78583  1.0000
  C   C18       1.0  0.98885  0.34596  0.28583  1.0000
  C   C19       1.0  0.01118  0.84597  0.21418  1.0000
  C   C20       1.0  0.01115  0.65404  0.71418  1.0000
  C   C21       1.0  0.63038  0.38944  0.93620  1.0000
  C   C22       1.0  0.63039  0.11056  0.43618  1.0000
  C   C23       1.0  0.36962  0.61055  0.06382  1.0000
  C   C24       1.0  0.36961  0.88946  0.56382  1.0000
  C   C25       1.0  0.12835  0.07204  0.73423  1.0000
  C   C26       1.0  0.12836  0.42796  0.23424  1.0000
  C   C27       1.0  0.87165  0.92797  0.26576  1.0000
  C   C28       1.0  0.87161  0.57205  0.76576  1.0000
  I   I1        1.0  0.66491  0.90723  0.90933  1.0000
  I   I2        1.0  0.66488  0.59276  0.40933  1.0000
  I   I3        1.0  0.33514  0.09276  0.09067  1.0000
  I   I4        1.0  0.33511  0.40724  0.59068  1.0000
  N   N1        1.0  0.03181  0.15136  0.87125  1.0000
  N   N2        1.0  0.03182  0.34863  0.37125  1.0000
  N   N3        1.0  0.96820  0.84863  0.12874  1.0000
  N   N4        1.0  0.96818  0.65137  0.62874  1.0000
  O   O1        1.0  0.73674  0.38924  0.01533  1.0000
  O   O2        1.0  0.73671  0.11076  0.51531  1.0000
  O   O3        1.0  0.26327  0.61076  0.98468  1.0000
  O   O4        1.0  0.26329  0.88924  0.48468  1.0000
  O   O5        1.0  0.44817  0.45518  0.90601  1.0000
  O   O6        1.0  0.44815  0.04481  0.40598  1.0000
  O   O7        1.0  0.55184  0.54483  0.09400  1.0000
  O   O8        1.0  0.55181  0.95518  0.59401  1.0000
