data_image0
_chemical_formula_structural       Zn4H48C72N8O16
_chemical_formula_sum              "Zn4 H48 C72 N8 O16"
_cell_length_a       10.4576
_cell_length_b       11.4428
_cell_length_c       14.8172
_cell_angle_alpha    109.99
_cell_angle_beta     100.81
_cell_angle_gamma    96.4595

_space_group_name_H-M_alt    "P 1"
_space_group_IT_number       1

loop_
  _space_group_symop_operation_xyz
  'x, y, z'

loop_
  _atom_site_type_symbol
  _atom_site_label
  _atom_site_symmetry_multiplicity
  _atom_site_fract_x
  _atom_site_fract_y
  _atom_site_fract_z
  _atom_site_occupancy
  Zn  Zn1       1.0  0.22530  0.20397  0.12194  1.0000
  Zn  Zn2       1.0  0.77469  0.79603  0.87806  1.0000
  Zn  Zn3       1.0  0.27465  0.21656  0.38519  1.0000
  Zn  Zn4       1.0  0.72535  0.78344  0.61481  1.0000
  H   H1        1.0  0.57811  0.21561  0.11426  1.0000
  H   H2        1.0  0.42189  0.78439  0.88573  1.0000
  H   H3        1.0  0.92214  0.20519  0.39347  1.0000
  H   H4        1.0  0.07786  0.79482  0.60653  1.0000
  H   H5        1.0  0.15588  0.40671  0.74595  1.0000
  H   H6        1.0  0.84413  0.59329  0.25405  1.0000
  H   H7        1.0  0.68955  0.22250  0.41074  1.0000
  H   H8        1.0  0.31045  0.77750  0.58926  1.0000
  H   H9        1.0  0.81062  0.19834  0.09692  1.0000
  H   H10       1.0  0.18938  0.80166  0.90308  1.0000
  H   H11       1.0  0.32477  0.08311  0.61434  1.0000
  H   H12       1.0  0.67523  0.91689  0.38565  1.0000
  H   H13       1.0  0.18543  0.36288  0.90306  1.0000
  H   H14       1.0  0.81458  0.63712  0.09694  1.0000
  H   H15       1.0  0.35475  0.04010  0.77130  1.0000
  H   H16       1.0  0.64525  0.95989  0.22869  1.0000
  H   H17       1.0  0.06080  0.98532  0.36100  1.0000
  H   H18       1.0  0.93920  0.01468  0.63900  1.0000
  H   H19       1.0  0.44238  0.44597  0.16179  1.0000
  H   H20       1.0  0.55762  0.55404  0.83821  1.0000
  H   H21       1.0  0.03603  0.38965  0.12467  1.0000
  H   H22       1.0  0.96397  0.61035  0.87532  1.0000
  H   H23       1.0  0.46356  0.02967  0.37924  1.0000
  H   H24       1.0  0.53644  0.97033  0.62076  1.0000
  H   H25       1.0  0.02696  0.97656  0.10485  1.0000
  H   H26       1.0  0.97304  0.02344  0.89515  1.0000
  H   H27       1.0  0.46991  0.44273  0.39791  1.0000
  H   H28       1.0  0.53009  0.55727  0.60209  1.0000
  H   H29       1.0  0.05933  0.61196  0.40447  1.0000
  H   H30       1.0  0.94067  0.38804  0.59554  1.0000
  H   H31       1.0  0.43724  0.80876  0.09576  1.0000
  H   H32       1.0  0.56276  0.19124  0.90425  1.0000
  H   H33       1.0  0.42137  0.01785  0.09104  1.0000
  H   H34       1.0  0.57863  0.98215  0.90897  1.0000
  H   H35       1.0  0.47587  0.65642  0.39728  1.0000
  H   H36       1.0  0.52413  0.34357  0.60272  1.0000
  H   H37       1.0  0.07589  0.39977  0.40893  1.0000
  H   H38       1.0  0.92412  0.60023  0.59107  1.0000
  H   H39       1.0  0.45085  0.65456  0.14352  1.0000
  H   H40       1.0  0.54915  0.34544  0.85649  1.0000
  H   H41       1.0  0.02389  0.76901  0.11322  1.0000
  H   H42       1.0  0.97611  0.23100  0.88678  1.0000
  H   H43       1.0  0.05238  0.77807  0.38112  1.0000
  H   H44       1.0  0.94762  0.22193  0.61888  1.0000
  H   H45       1.0  0.02418  0.59393  0.10333  1.0000
  H   H46       1.0  0.97582  0.40607  0.89667  1.0000
  H   H47       1.0  0.47489  0.82394  0.39798  1.0000
  H   H48       1.0  0.52511  0.17606  0.60202  1.0000
  C   C1        1.0  0.65465  0.21515  0.17530  1.0000
  C   C2        1.0  0.34535  0.78485  0.82469  1.0000
  C   C3        1.0  0.87865  0.20047  0.24381  1.0000
  C   C4        1.0  0.12135  0.79953  0.75619  1.0000
  C   C5        1.0  0.84596  0.20707  0.33285  1.0000
  C   C6        1.0  0.15404  0.79293  0.66716  1.0000
  C   C7        1.0  0.62199  0.22163  0.26434  1.0000
  C   C8        1.0  0.37800  0.77837  0.73565  1.0000
  C   C9        1.0  0.48380  0.23093  0.27474  1.0000
  C   C10       1.0  0.51619  0.76907  0.72526  1.0000
  C   C11       1.0  0.01665  0.18990  0.23346  1.0000
  C   C12       1.0  0.98335  0.81010  0.76655  1.0000
  C   C13       1.0  0.19918  0.32649  0.75214  1.0000
  C   C14       1.0  0.80082  0.67351  0.24785  1.0000
  C   C15       1.0  0.21773  0.26926  0.57532  1.0000
  C   C16       1.0  0.78226  0.73074  0.42468  1.0000
  C   C17       1.0  0.23919  0.24774  0.67105  1.0000
  C   C18       1.0  0.76080  0.75226  0.32895  1.0000
  C   C19       1.0  0.28743  0.17186  0.93962  1.0000
  C   C20       1.0  0.71257  0.82814  0.06038  1.0000
  C   C21       1.0  0.71776  0.21752  0.34267  1.0000
  C   C22       1.0  0.28224  0.78248  0.65733  1.0000
  C   C23       1.0  0.78295  0.20474  0.16551  1.0000
  C   C24       1.0  0.21705  0.79526  0.83449  1.0000
  C   C25       1.0  0.29584  0.14488  0.67843  1.0000
  C   C26       1.0  0.70415  0.85511  0.32156  1.0000
  C   C27       1.0  0.21496  0.30175  0.83891  1.0000
  C   C28       1.0  0.78505  0.69825  0.16108  1.0000
  C   C29       1.0  0.31201  0.12049  0.76530  1.0000
  C   C30       1.0  0.68799  0.87950  0.23470  1.0000
  C   C31       1.0  0.15031  0.94552  0.36970  1.0000
  C   C32       1.0  0.84969  0.05448  0.63030  1.0000
  C   C33       1.0  0.27068  0.19825  0.84592  1.0000
  C   C34       1.0  0.72932  0.80175  0.15408  1.0000
  C   C35       1.0  0.35195  0.48302  0.14842  1.0000
  C   C36       1.0  0.64805  0.51698  0.85158  1.0000
  C   C37       1.0  0.12534  0.45167  0.12798  1.0000
  C   C38       1.0  0.87466  0.54833  0.87202  1.0000
  C   C39       1.0  0.37483  0.96992  0.37934  1.0000
  C   C40       1.0  0.62517  0.03008  0.62066  1.0000
  C   C41       1.0  0.11738  0.93805  0.10602  1.0000
  C   C42       1.0  0.88262  0.06195  0.89398  1.0000
  C   C43       1.0  0.23690  0.64431  0.12077  1.0000
  C   C44       1.0  0.76310  0.35569  0.87923  1.0000
  C   C45       1.0  0.26329  0.77937  0.38889  1.0000
  C   C46       1.0  0.73671  0.22063  0.61111  1.0000
  C   C47       1.0  0.38053  0.48306  0.39816  1.0000
  C   C48       1.0  0.61947  0.51694  0.60184  1.0000
  C   C49       1.0  0.15267  0.57841  0.40046  1.0000
  C   C50       1.0  0.84733  0.42159  0.59954  1.0000
  C   C51       1.0  0.26533  0.65337  0.39540  1.0000
  C   C52       1.0  0.73467  0.34663  0.60460  1.0000
  C   C53       1.0  0.34422  0.84144  0.10219  1.0000
  C   C54       1.0  0.65578  0.15856  0.89781  1.0000
  C   C55       1.0  0.33684  0.96057  0.09902  1.0000
  C   C56       1.0  0.66316  0.03943  0.90098  1.0000
  C   C57       1.0  0.38215  0.60363  0.39671  1.0000
  C   C58       1.0  0.61785  0.39637  0.60330  1.0000
  C   C59       1.0  0.16053  0.45898  0.40295  1.0000
  C   C60       1.0  0.83948  0.54102  0.59705  1.0000
  C   C61       1.0  0.35543  0.59942  0.13743  1.0000
  C   C62       1.0  0.64457  0.40058  0.86257  1.0000
  C   C63       1.0  0.11681  0.81872  0.11006  1.0000
  C   C64       1.0  0.88319  0.18128  0.88994  1.0000
  C   C65       1.0  0.14640  0.82872  0.37988  1.0000
  C   C66       1.0  0.85360  0.17128  0.62012  1.0000
  C   C67       1.0  0.23317  0.76839  0.11091  1.0000
  C   C68       1.0  0.76683  0.23161  0.88909  1.0000
  C   C69       1.0  0.12010  0.56637  0.11621  1.0000
  C   C70       1.0  0.87989  0.43363  0.88378  1.0000
  C   C71       1.0  0.37972  0.85416  0.38933  1.0000
  C   C72       1.0  0.62028  0.14584  0.61067  1.0000
  N   N1        1.0  0.26228  0.01561  0.36901  1.0000
  N   N2        1.0  0.73772  0.98439  0.63099  1.0000
  N   N3        1.0  0.23920  0.40962  0.14390  1.0000
  N   N4        1.0  0.76079  0.59038  0.85609  1.0000
  N   N5        1.0  0.27153  0.40990  0.39943  1.0000
  N   N6        1.0  0.72848  0.59009  0.60057  1.0000
  N   N7        1.0  0.22626  0.01037  0.10363  1.0000
  N   N8        1.0  0.77374  0.98963  0.89637  1.0000
  O   O1        1.0  0.09018  0.15926  0.29690  1.0000
  O   O2        1.0  0.90982  0.84074  0.70310  1.0000
  O   O3        1.0  0.05003  0.21085  0.16098  1.0000
  O   O4        1.0  0.94997  0.78915  0.83902  1.0000
  O   O5        1.0  0.40925  0.26052  0.21126  1.0000
  O   O6        1.0  0.59075  0.73948  0.78874  1.0000
  O   O7        1.0  0.45136  0.21083  0.34792  1.0000
  O   O8        1.0  0.54864  0.78917  0.65208  1.0000
  O   O9        1.0  0.31289  0.24778  0.53052  1.0000
  O   O10       1.0  0.68711  0.75222  0.46948  1.0000
  O   O11       1.0  0.18713  0.18491  0.97949  1.0000
  O   O12       1.0  0.81287  0.81509  0.02051  1.0000
  O   O13       1.0  0.11295  0.30180  0.54436  1.0000
  O   O14       1.0  0.88704  0.69820  0.45564  1.0000
  O   O15       1.0  0.39270  0.14236  0.97307  1.0000
  O   O16       1.0  0.60730  0.85764  0.02693  1.0000
