data_image0
_chemical_formula_structural       Cu2H32C28Br4N16
_chemical_formula_sum              "Cu2 H32 C28 Br4 N16"
_cell_length_a       7.13782
_cell_length_b       8.94155
_cell_length_c       14.0811
_cell_angle_alpha    89.9999
_cell_angle_beta     89.9998
_cell_angle_gamma    103.173

_space_group_name_H-M_alt    "P 1"
_space_group_IT_number       1

loop_
  _space_group_symop_operation_xyz
  'x, y, z'

loop_
  _atom_site_type_symbol
  _atom_site_label
  _atom_site_symmetry_multiplicity
  _atom_site_fract_x
  _atom_site_fract_y
  _atom_site_fract_z
  _atom_site_occupancy
  Cu  Cu1       1.0  0.50000  0.00000  0.00000  1.0000
  Cu  Cu2       1.0  0.50000  0.50000  0.50000  1.0000
  H   H1        1.0  0.56224  0.36660  0.96069  1.0000
  H   H2        1.0  0.43776  0.13340  0.46069  1.0000
  H   H3        1.0  0.43777  0.63340  0.03931  1.0000
  H   H4        1.0  0.56224  0.86660  0.53931  1.0000
  H   H5        1.0  0.08577  0.30869  0.82409  1.0000
  H   H6        1.0  0.91423  0.19131  0.32408  1.0000
  H   H7        1.0  0.91423  0.69131  0.17591  1.0000
  H   H8        1.0  0.08577  0.80869  0.67591  1.0000
  H   H9        1.0  0.85142  0.82489  0.99925  1.0000
  H   H10       1.0  0.14858  0.67511  0.49925  1.0000
  H   H11       1.0  0.14858  0.17511  0.00075  1.0000
  H   H12       1.0  0.85142  0.32489  0.50075  1.0000
  H   H13       1.0  0.53680  0.59133  0.75674  1.0000
  H   H14       1.0  0.46320  0.90867  0.25674  1.0000
  H   H15       1.0  0.46320  0.40868  0.24326  1.0000
  H   H16       1.0  0.53680  0.09132  0.74326  1.0000
  H   H17       1.0  0.97807  0.59396  0.79537  1.0000
  H   H18       1.0  0.02195  0.90605  0.29537  1.0000
  H   H19       1.0  0.02193  0.40604  0.20463  1.0000
  H   H20       1.0  0.97806  0.09395  0.70463  1.0000
  H   H21       1.0  0.02800  0.62910  0.91586  1.0000
  H   H22       1.0  0.97200  0.87090  0.41585  1.0000
  H   H23       1.0  0.97199  0.37090  0.08414  1.0000
  H   H24       1.0  0.02801  0.12910  0.58414  1.0000
  H   H25       1.0  0.88845  0.05945  0.88886  1.0000
  H   H26       1.0  0.11155  0.44055  0.38886  1.0000
  H   H27       1.0  0.11155  0.94055  0.11114  1.0000
  H   H28       1.0  0.88845  0.55945  0.61114  1.0000
  H   H29       1.0  0.38745  0.80389  0.82648  1.0000
  H   H30       1.0  0.61255  0.69611  0.32648  1.0000
  H   H31       1.0  0.61255  0.19612  0.17352  1.0000
  H   H32       1.0  0.38745  0.30389  0.67352  1.0000
  C   C1        1.0  0.68243  0.32604  0.93170  1.0000
  C   C2        1.0  0.31757  0.17396  0.43170  1.0000
  C   C3        1.0  0.31756  0.67396  0.06830  1.0000
  C   C4        1.0  0.68243  0.82604  0.56830  1.0000
  C   C5        1.0  0.84838  0.40902  0.88525  1.0000
  C   C6        1.0  0.15163  0.09098  0.38525  1.0000
  C   C7        1.0  0.15162  0.59098  0.11475  1.0000
  C   C8        1.0  0.84837  0.90902  0.61475  1.0000
  C   C9        1.0  0.95103  0.29896  0.86185  1.0000
  C   C10       1.0  0.04898  0.20104  0.36184  1.0000
  C   C11       1.0  0.04897  0.70104  0.13815  1.0000
  C   C12       1.0  0.95102  0.79896  0.63815  1.0000
  C   C13       1.0  0.75446  0.78329  0.94095  1.0000
  C   C14       1.0  0.24554  0.71671  0.44095  1.0000
  C   C15       1.0  0.24554  0.21671  0.05905  1.0000
  C   C16       1.0  0.75447  0.28329  0.55905  1.0000
  C   C17       1.0  0.75824  0.66674  0.87444  1.0000
  C   C18       1.0  0.24177  0.83326  0.37444  1.0000
  C   C19       1.0  0.24176  0.33326  0.12556  1.0000
  C   C20       1.0  0.75823  0.16674  0.62556  1.0000
  C   C21       1.0  0.59684  0.66153  0.81729  1.0000
  C   C22       1.0  0.40317  0.83848  0.31729  1.0000
  C   C23       1.0  0.40316  0.33848  0.18271  1.0000
  C   C24       1.0  0.59684  0.16152  0.68272  1.0000
  C   C25       1.0  0.91164  0.57812  0.86633  1.0000
  C   C26       1.0  0.08836  0.92188  0.36633  1.0000
  C   C27       1.0  0.08836  0.42188  0.13367  1.0000
  C   C28       1.0  0.91164  0.07812  0.63367  1.0000
  Br  Br1       1.0  0.20807  0.99103  0.84498  1.0000
  Br  Br2       1.0  0.79192  0.50896  0.34499  1.0000
  Br  Br3       1.0  0.79192  0.00897  0.15502  1.0000
  Br  Br4       1.0  0.20808  0.49103  0.65502  1.0000
  N   N1        1.0  0.68433  0.17579  0.93650  1.0000
  N   N2        1.0  0.31567  0.32421  0.43650  1.0000
  N   N3        1.0  0.31567  0.82421  0.06350  1.0000
  N   N4        1.0  0.68433  0.67579  0.56350  1.0000
  N   N5        1.0  0.84851  0.16226  0.89355  1.0000
  N   N6        1.0  0.15149  0.33774  0.39355  1.0000
  N   N7        1.0  0.15149  0.83774  0.10645  1.0000
  N   N8        1.0  0.84851  0.66226  0.60645  1.0000
  N   N9        1.0  0.60334  0.84609  0.92480  1.0000
  N   N10       1.0  0.39666  0.65391  0.42480  1.0000
  N   N11       1.0  0.39666  0.15391  0.07520  1.0000
  N   N12       1.0  0.60334  0.34609  0.57520  1.0000
  N   N13       1.0  0.50887  0.77025  0.84982  1.0000
  N   N14       1.0  0.49113  0.72975  0.34982  1.0000
  N   N15       1.0  0.49113  0.22975  0.15018  1.0000
  N   N16       1.0  0.50887  0.27025  0.65018  1.0000
