data_image0
_chemical_formula_structural       CuH22C18N4Cl2
_chemical_formula_sum              "Cu1 H22 C18 N4 Cl2"
_cell_length_a       8.13365
_cell_length_b       7.95003
_cell_length_c       8.83404
_cell_angle_alpha    95.4609
_cell_angle_beta     71.7318
_cell_angle_gamma    78.573

_space_group_name_H-M_alt    "P 1"
_space_group_IT_number       1

loop_
  _space_group_symop_operation_xyz
  'x, y, z'

loop_
  _atom_site_type_symbol
  _atom_site_label
  _atom_site_symmetry_multiplicity
  _atom_site_fract_x
  _atom_site_fract_y
  _atom_site_fract_z
  _atom_site_occupancy
  Cu  Cu1       1.0  0.00001  0.00001  1.00000  1.0000
  H   H1        1.0  0.97665  0.61756  0.09646  1.0000
  H   H2        1.0  0.02336  0.38245  0.90352  1.0000
  H   H3        1.0  0.86102  0.63633  0.30525  1.0000
  H   H4        1.0  0.13900  0.36369  0.69475  1.0000
  H   H5        1.0  0.07697  0.49357  0.21641  1.0000
  H   H6        1.0  0.92304  0.50645  0.78357  1.0000
  H   H7        1.0  0.46554  0.94610  0.38885  1.0000
  H   H8        1.0  0.53445  0.05391  0.61118  1.0000
  H   H9        1.0  0.26984  0.01207  0.56360  1.0000
  H   H10       1.0  0.73014  0.98793  0.43643  1.0000
  H   H11       1.0  0.31709  0.15080  0.41679  1.0000
  H   H12       1.0  0.68289  0.84921  0.58324  1.0000
  H   H13       1.0  0.06467  0.59389  0.50503  1.0000
  H   H14       1.0  0.93535  0.40609  0.49493  1.0000
  H   H15       1.0  0.08168  0.77600  0.62278  1.0000
  H   H16       1.0  0.91832  0.22398  0.37723  1.0000
  H   H17       1.0  0.31390  0.73734  0.72868  1.0000
  H   H18       1.0  0.68609  0.26262  0.27132  1.0000
  H   H19       1.0  0.60727  0.57646  0.72545  1.0000
  H   H20       1.0  0.39273  0.42349  0.27452  1.0000
  H   H21       1.0  0.25059  0.06756  0.14317  1.0000
  H   H22       1.0  0.74941  0.93246  0.85684  1.0000
  C   C1        1.0  0.99382  0.62003  0.21444  1.0000
  C   C2        1.0  0.00619  0.37998  0.78554  1.0000
  C   C3        1.0  0.07947  0.76205  0.24667  1.0000
  C   C4        1.0  0.92054  0.23796  0.75332  1.0000
  C   C5        1.0  0.15113  0.78763  0.37123  1.0000
  C   C6        1.0  0.84889  0.21237  0.62876  1.0000
  C   C7        1.0  0.22569  0.93083  0.34564  1.0000
  C   C8        1.0  0.77433  0.06917  0.65437  1.0000
  C   C9        1.0  0.32393  0.01492  0.43362  1.0000
  C   C10       1.0  0.67606  0.98509  0.56640  1.0000
  C   C11       1.0  0.14825  0.68673  0.50666  1.0000
  C   C12       1.0  0.85175  0.31326  0.49334  1.0000
  C   C13       1.0  0.33013  0.59048  0.50301  1.0000
  C   C14       1.0  0.66984  0.40949  0.49697  1.0000
  C   C15       1.0  0.39399  0.63190  0.62838  1.0000
  C   C16       1.0  0.60598  0.36810  0.37163  1.0000
  C   C17       1.0  0.56114  0.54250  0.62555  1.0000
  C   C18       1.0  0.43883  0.45747  0.37441  1.0000
  N   N1        1.0  0.10750  0.88472  0.15124  1.0000
  N   N2        1.0  0.89251  0.11529  0.84877  1.0000
  N   N3        1.0  0.19536  0.98492  0.21468  1.0000
  N   N4        1.0  0.80465  0.01511  0.78533  1.0000
  Cl  Cl1       1.0  0.25989  0.08477  0.89181  1.0000
  Cl  Cl2       1.0  0.74012  0.91525  0.10819  1.0000
