data_image0
_chemical_formula_structural       Zn2H56C40S4N20O16
_chemical_formula_sum              "Zn2 H56 C40 S4 N20 O16"
_cell_length_a       7.37756
_cell_length_b       10.6791
_cell_length_c       18.7114
_cell_angle_alpha    91.7079
_cell_angle_beta     90.0002
_cell_angle_gamma    90.0001

_space_group_name_H-M_alt    "P 1"
_space_group_IT_number       1

loop_
  _space_group_symop_operation_xyz
  'x, y, z'

loop_
  _atom_site_type_symbol
  _atom_site_label
  _atom_site_symmetry_multiplicity
  _atom_site_fract_x
  _atom_site_fract_y
  _atom_site_fract_z
  _atom_site_occupancy
  Zn  Zn1       1.0  0.39696  0.04820  0.76535  1.0000
  Zn  Zn2       1.0  0.89696  0.95181  0.23466  1.0000
  H   H1        1.0  0.02823  0.85469  0.99577  1.0000
  H   H2        1.0  0.52823  0.14531  0.00423  1.0000
  H   H3        1.0  0.89298  0.87526  0.91847  1.0000
  H   H4        1.0  0.39298  0.12474  0.08153  1.0000
  H   H5        1.0  0.93680  0.72079  0.95008  1.0000
  H   H6        1.0  0.43680  0.27921  0.04992  1.0000
  H   H7        1.0  0.67784  0.76823  0.88795  1.0000
  H   H8        1.0  0.17783  0.23177  0.11206  1.0000
  H   H9        1.0  0.29640  0.71374  0.92518  1.0000
  H   H10       1.0  0.79640  0.28626  0.07482  1.0000
  H   H11       1.0  0.32120  0.59827  0.79744  1.0000
  H   H12       1.0  0.82120  0.40173  0.20256  1.0000
  H   H13       1.0  0.55468  0.59531  0.81617  1.0000
  H   H14       1.0  0.05467  0.40469  0.18383  1.0000
  H   H15       1.0  0.48154  0.48741  0.93395  1.0000
  H   H16       1.0  0.98154  0.51259  0.06605  1.0000
  H   H17       1.0  0.42146  0.39892  0.85479  1.0000
  H   H18       1.0  0.92145  0.60109  0.14521  1.0000
  H   H19       1.0  0.90032  0.42661  0.85352  1.0000
  H   H20       1.0  0.40031  0.57339  0.14648  1.0000
  H   H21       1.0  0.10115  0.39658  0.80196  1.0000
  H   H22       1.0  0.60115  0.60342  0.19804  1.0000
  H   H23       1.0  0.02083  0.55456  0.81611  1.0000
  H   H24       1.0  0.52083  0.44544  0.18389  1.0000
  H   H25       1.0  0.17053  0.83301  0.11456  1.0000
  H   H26       1.0  0.67053  0.16699  0.88544  1.0000
  H   H27       1.0  0.31004  0.85764  0.19131  1.0000
  H   H28       1.0  0.81003  0.14237  0.80869  1.0000
  H   H29       1.0  0.27634  0.20080  0.57246  1.0000
  H   H30       1.0  0.77636  0.79919  0.42754  1.0000
  H   H31       1.0  0.13918  0.18958  0.65048  1.0000
  H   H32       1.0  0.63920  0.81040  0.34952  1.0000
  H   H33       1.0  0.15091  0.33435  0.60359  1.0000
  H   H34       1.0  0.65093  0.66563  0.39642  1.0000
  H   H35       1.0  0.90132  0.27927  0.66839  1.0000
  H   H36       1.0  0.40134  0.72073  0.33161  1.0000
  H   H37       1.0  0.54006  0.33251  0.60685  1.0000
  H   H38       1.0  0.04008  0.66749  0.39315  1.0000
  H   H39       1.0  0.54757  0.50521  0.71114  1.0000
  H   H40       1.0  0.04757  0.49480  0.28885  1.0000
  H   H41       1.0  0.78534  0.49089  0.70306  1.0000
  H   H42       1.0  0.28534  0.50911  0.29694  1.0000
  H   H43       1.0  0.75812  0.53522  0.57016  1.0000
  H   H44       1.0  0.25812  0.46478  0.42984  1.0000
  H   H45       1.0  0.67820  0.66037  0.62627  1.0000
  H   H46       1.0  0.17819  0.33963  0.37373  1.0000
  H   H47       1.0  0.14941  0.60842  0.60134  1.0000
  H   H48       1.0  0.64940  0.39159  0.39866  1.0000
  H   H49       1.0  0.31705  0.68333  0.65621  1.0000
  H   H50       1.0  0.81704  0.31667  0.34379  1.0000
  H   H51       1.0  0.26630  0.51995  0.66707  1.0000
  H   H52       1.0  0.76629  0.48005  0.33293  1.0000
  H   H53       1.0  0.43667  0.13037  0.44006  1.0000
  H   H54       1.0  0.93669  0.86964  0.55994  1.0000
  H   H55       1.0  0.59324  0.07133  0.37330  1.0000
  H   H56       1.0  0.09325  0.92867  0.62670  1.0000
  C   C1        1.0  0.91074  0.81908  0.96609  1.0000
  C   C2        1.0  0.41074  0.18093  0.03391  1.0000
  C   C3        1.0  0.58077  0.79674  0.98842  1.0000
  C   C4        1.0  0.08078  0.20326  0.01158  1.0000
  C   C5        1.0  0.40143  0.72327  0.88429  1.0000
  C   C6        1.0  0.90143  0.27672  0.11571  1.0000
  C   C7        1.0  0.34500  0.82974  0.83566  1.0000
  C   C8        1.0  0.84499  0.17026  0.16434  1.0000
  C   C9        1.0  0.41985  0.59954  0.84141  1.0000
  C   C10       1.0  0.91985  0.40046  0.15859  1.0000
  C   C11       1.0  0.39243  0.48459  0.88671  1.0000
  C   C12       1.0  0.89243  0.51541  0.11329  1.0000
  C   C13       1.0  0.03506  0.46231  0.83995  1.0000
  C   C14       1.0  0.53506  0.53768  0.16004  1.0000
  C   C15       1.0  0.44546  0.83215  0.09803  1.0000
  C   C16       1.0  0.94545  0.16785  0.90198  1.0000
  C   C17       1.0  0.61933  0.85574  0.13077  1.0000
  C   C18       1.0  0.11932  0.14427  0.86923  1.0000
  C   C19       1.0  0.77917  0.85440  0.08587  1.0000
  C   C20       1.0  0.27917  0.14560  0.91413  1.0000
  C   C21       1.0  0.15014  0.23167  0.59795  1.0000
  C   C22       1.0  0.65016  0.76831  0.40206  1.0000
  C   C23       1.0  0.82411  0.22024  0.56896  1.0000
  C   C24       1.0  0.32413  0.77976  0.43103  1.0000
  C   C25       1.0  0.62913  0.33827  0.65417  1.0000
  C   C26       1.0  0.12914  0.66173  0.34583  1.0000
  C   C27       1.0  0.52335  0.26808  0.71139  1.0000
  C   C28       1.0  0.02336  0.73192  0.28861  1.0000
  C   C29       1.0  0.65623  0.47748  0.67404  1.0000
  C   C30       1.0  0.15622  0.52252  0.32596  1.0000
  C   C31       1.0  0.65329  0.56214  0.60960  1.0000
  C   C32       1.0  0.15329  0.43786  0.39039  1.0000
  C   C33       1.0  0.27949  0.59498  0.62849  1.0000
  C   C34       1.0  0.77949  0.40502  0.37151  1.0000
  C   C35       1.0  0.70901  0.14054  0.46293  1.0000
  C   C36       1.0  0.20903  0.85946  0.53707  1.0000
  C   C37       1.0  0.88998  0.10944  0.43723  1.0000
  C   C38       1.0  0.39000  0.89056  0.56277  1.0000
  C   C39       1.0  0.04466  0.14112  0.48330  1.0000
  C   C40       1.0  0.54467  0.85888  0.51670  1.0000
  S   S1        1.0  0.16403  0.47227  0.92234  1.0000
  S   S2        1.0  0.66403  0.52773  0.07765  1.0000
  S   S3        1.0  0.44250  0.55379  0.55946  1.0000
  S   S4        1.0  0.94250  0.44621  0.44054  1.0000
  N   N1        1.0  0.75233  0.82929  0.01319  1.0000
  N   N2        1.0  0.25233  0.17072  0.98682  1.0000
  N   N3        1.0  0.57092  0.75269  0.92074  1.0000
  N   N4        1.0  0.07091  0.24731  0.07926  1.0000
  N   N5        1.0  0.43093  0.80487  0.02762  1.0000
  N   N6        1.0  0.93092  0.19514  0.97238  1.0000
  N   N7        1.0  0.29646  0.83838  0.13747  1.0000
  N   N8        1.0  0.79646  0.16163  0.86253  1.0000
  N   N9        1.0  0.64861  0.88364  0.20066  1.0000
  N   N10       1.0  0.14861  0.11636  0.79934  1.0000
  N   N11       1.0  0.00119  0.19035  0.55149  1.0000
  N   N12       1.0  0.50121  0.80965  0.44851  1.0000
  N   N13       1.0  0.79887  0.28091  0.63221  1.0000
  N   N14       1.0  0.29888  0.71908  0.36778  1.0000
  N   N15       1.0  0.68196  0.19698  0.52709  1.0000
  N   N16       1.0  0.18198  0.80302  0.47290  1.0000
  N   N17       1.0  0.56621  0.11433  0.42186  1.0000
  N   N18       1.0  0.06623  0.88567  0.57813  1.0000
  N   N19       1.0  0.93624  0.05608  0.37448  1.0000
  N   N20       1.0  0.43626  0.94392  0.62552  1.0000
  O   O1        1.0  0.47933  0.89350  0.81080  1.0000
  O   O2        1.0  0.97932  0.10651  0.18921  1.0000
  O   O3        1.0  0.18066  0.84510  0.82371  1.0000
  O   O4        1.0  0.68064  0.15490  0.17628  1.0000
  O   O5        1.0  0.51891  0.87971  0.24530  1.0000
  O   O6        1.0  0.01890  0.12029  0.75470  1.0000
  O   O7        1.0  0.93470  0.87390  0.10981  1.0000
  O   O8        1.0  0.43470  0.12611  0.89019  1.0000
  O   O9        1.0  0.58616  0.16000  0.72853  1.0000
  O   O10       1.0  0.08617  0.84001  0.27148  1.0000
  O   O11       1.0  0.38034  0.31774  0.73414  1.0000
  O   O12       1.0  0.88036  0.68227  0.26586  1.0000
  O   O13       1.0  0.80358  0.02511  0.33111  1.0000
  O   O14       1.0  0.30359  0.97488  0.66889  1.0000
  O   O15       1.0  0.20494  0.12634  0.46584  1.0000
  O   O16       1.0  0.70496  0.87368  0.53416  1.0000
