data_image0
_chemical_formula_structural       CuH6C11SN7
_chemical_formula_sum              "Cu1 H6 C11 S1 N7"
_cell_length_a       5.51267
_cell_length_b       5.96571
_cell_length_c       10.0667
_cell_angle_alpha    89.3187
_cell_angle_beta     74.0932
_cell_angle_gamma    87.5878

_space_group_name_H-M_alt    "P 1"
_space_group_IT_number       1

loop_
  _space_group_symop_operation_xyz
  'x, y, z'

loop_
  _atom_site_type_symbol
  _atom_site_label
  _atom_site_symmetry_multiplicity
  _atom_site_fract_x
  _atom_site_fract_y
  _atom_site_fract_z
  _atom_site_occupancy
  Cu  Cu1       1.0  0.37427  0.50974  0.99996  1.0000
  H   H1        1.0  0.89451  0.75592  0.14334  1.0000
  H   H2        1.0  0.03834  0.75561  0.85661  1.0000
  H   H3        1.0  0.24469  0.15580  0.22158  1.0000
  H   H4        1.0  0.46685  0.15560  0.77818  1.0000
  H   H5        1.0  0.87179  0.08188  0.42309  1.0000
  H   H6        1.0  0.29499  0.08173  0.57692  1.0000
  C   C1        1.0  0.57250  0.98639  0.00000  1.0000
  C   C2        1.0  0.68143  0.55694  0.31532  1.0000
  C   C3        1.0  0.99686  0.55658  0.68486  1.0000
  C   C4        1.0  0.46690  0.71073  0.35017  1.0000
  C   C5        1.0  0.81703  0.71022  0.65000  1.0000
  C   C6        1.0  0.88962  0.60354  0.20463  1.0000
  C   C7        1.0  0.09458  0.60323  0.79538  1.0000
  C   C8        1.0  0.08144  0.27233  0.24827  1.0000
  C   C9        1.0  0.33012  0.27210  0.75164  1.0000
  C   C10       1.0  0.87299  0.23130  0.35970  1.0000
  C   C11       1.0  0.23289  0.23107  0.64033  1.0000
  S   S1        1.0  0.69057  0.23304  0.99995  1.0000
  N   N1        1.0  0.49601  0.80370  1.00000  1.0000
  N   N2        1.0  0.66988  0.37104  0.39355  1.0000
  N   N3        1.0  0.06342  0.37075  0.60664  1.0000
  N   N4        1.0  0.09028  0.45811  0.17018  1.0000
  N   N5        1.0  0.26093  0.45780  0.82972  1.0000
  N   N6        1.0  0.29271  0.83628  0.37842  1.0000
  N   N7        1.0  0.67117  0.83564  0.62157  1.0000
