data_image0
_chemical_formula_structural       Cu4H12C14S4N8
_chemical_formula_sum              "Cu4 H12 C14 S4 N8"
_cell_length_a       5.6641
_cell_length_b       7.75167
_cell_length_c       12.2356
_cell_angle_alpha    74.6443
_cell_angle_beta     80.9043
_cell_angle_gamma    71.8634

_space_group_name_H-M_alt    "P 1"
_space_group_IT_number       1

loop_
  _space_group_symop_operation_xyz
  'x, y, z'

loop_
  _atom_site_type_symbol
  _atom_site_label
  _atom_site_symmetry_multiplicity
  _atom_site_fract_x
  _atom_site_fract_y
  _atom_site_fract_z
  _atom_site_occupancy
  Cu  Cu1       1.0  0.93401  0.01813  0.17801  1.0000
  Cu  Cu2       1.0  0.06599  0.98187  0.82199  1.0000
  Cu  Cu3       1.0  0.96985  0.30414  0.27295  1.0000
  Cu  Cu4       1.0  0.03015  0.69585  0.72705  1.0000
  H   H1        1.0  0.76143  0.46623  0.46545  1.0000
  H   H2        1.0  0.23857  0.53376  0.53455  1.0000
  H   H3        1.0  0.65653  0.70955  0.46316  1.0000
  H   H4        1.0  0.34347  0.29045  0.53684  1.0000
  H   H5        1.0  0.92848  0.61733  0.37812  1.0000
  H   H6        1.0  0.07153  0.38266  0.62188  1.0000
  H   H7        1.0  0.28951  0.86474  0.36150  1.0000
  H   H8        1.0  0.71049  0.13528  0.63849  1.0000
  H   H9        1.0  0.17934  0.69032  0.08443  1.0000
  H   H10       1.0  0.82066  0.30968  0.91556  1.0000
  H   H11       1.0  0.59937  0.45385  0.10073  1.0000
  H   H12       1.0  0.40063  0.54615  0.89927  1.0000
  C   C1        1.0  0.49181  0.17466  0.35446  1.0000
  C   C2        1.0  0.50818  0.82533  0.64555  1.0000
  C   C3        1.0  0.41022  0.14888  0.10197  1.0000
  C   C4        1.0  0.58977  0.85113  0.89804  1.0000
  C   C5        1.0  0.58804  0.63663  0.31583  1.0000
  C   C6        1.0  0.41196  0.36338  0.68418  1.0000
  C   C7        1.0  0.74027  0.60737  0.41121  1.0000
  C   C8        1.0  0.25972  0.39264  0.58879  1.0000
  C   C9        1.0  0.35787  0.77144  0.30341  1.0000
  C   C10       1.0  0.64214  0.22856  0.69658  1.0000
  C   C11       1.0  0.29880  0.67729  0.14936  1.0000
  C   C12       1.0  0.70120  0.32270  0.85063  1.0000
  C   C13       1.0  0.53055  0.54700  0.15870  1.0000
  C   C14       1.0  0.46947  0.45300  0.84130  1.0000
  S   S1        1.0  0.78190  0.07977  0.38587  1.0000
  S   S2        1.0  0.21809  0.92022  0.61413  1.0000
  S   S3        1.0  0.11732  0.25071  0.07716  1.0000
  S   S4        1.0  0.88266  0.74930  0.92285  1.0000
  N   N1        1.0  0.62065  0.07791  0.12189  1.0000
  N   N2        1.0  0.37934  0.92210  0.87811  1.0000
  N   N3        1.0  0.28307  0.24600  0.33167  1.0000
  N   N4        1.0  0.71694  0.75398  0.66834  1.0000
  N   N5        1.0  0.67806  0.52531  0.24064  1.0000
  N   N6        1.0  0.32195  0.47468  0.75936  1.0000
  N   N7        1.0  0.21191  0.79429  0.22048  1.0000
  N   N8        1.0  0.78809  0.20570  0.77953  1.0000
