data_image0
_chemical_formula_structural       Cu2H16C18S2N10O4
_chemical_formula_sum              "Cu2 H16 C18 S2 N10 O4"
_cell_length_a       5.79625
_cell_length_b       5.79623
_cell_length_c       17.0194
_cell_angle_alpha    89.9988
_cell_angle_beta     90.0008
_cell_angle_gamma    101.672

_space_group_name_H-M_alt    "P 1"
_space_group_IT_number       1

loop_
  _space_group_symop_operation_xyz
  'x, y, z'

loop_
  _atom_site_type_symbol
  _atom_site_label
  _atom_site_symmetry_multiplicity
  _atom_site_fract_x
  _atom_site_fract_y
  _atom_site_fract_z
  _atom_site_occupancy
  Cu  Cu1       1.0  0.79258  0.18618  0.25000  1.0000
  Cu  Cu2       1.0  0.18618  0.79257  0.75001  1.0000
  H   H1        1.0  0.77952  0.80038  0.12758  1.0000
  H   H2        1.0  0.80039  0.77951  0.87242  1.0000
  H   H3        1.0  0.80036  0.77947  0.62758  1.0000
  H   H4        1.0  0.77950  0.80037  0.37241  1.0000
  H   H5        1.0  0.68559  0.03943  0.96233  1.0000
  H   H6        1.0  0.03944  0.68560  0.03766  1.0000
  H   H7        1.0  0.03942  0.68558  0.46233  1.0000
  H   H8        1.0  0.68558  0.03941  0.53767  1.0000
  H   H9        1.0  0.53522  0.32593  0.07407  1.0000
  H   H10       1.0  0.32593  0.53525  0.92593  1.0000
  H   H11       1.0  0.32590  0.53523  0.57408  1.0000
  H   H12       1.0  0.53523  0.32592  0.42593  1.0000
  H   H13       1.0  0.23914  0.44044  0.16610  1.0000
  H   H14       1.0  0.44045  0.23916  0.83390  1.0000
  H   H15       1.0  0.44041  0.23915  0.66611  1.0000
  H   H16       1.0  0.23916  0.44043  0.33390  1.0000
  C   C1        1.0  0.59812  0.63890  0.25000  1.0000
  C   C2        1.0  0.63890  0.59817  0.75000  1.0000
  C   C3        1.0  0.94839  0.91916  0.11812  1.0000
  C   C4        1.0  0.91919  0.94839  0.88188  1.0000
  C   C5        1.0  0.91915  0.94840  0.61812  1.0000
  C   C6        1.0  0.94839  0.91917  0.38188  1.0000
  C   C7        1.0  0.31946  0.98019  0.05047  1.0000
  C   C8        1.0  0.98021  0.31944  0.94953  1.0000
  C   C9        1.0  0.98015  0.31943  0.55048  1.0000
  C   C10       1.0  0.31942  0.98020  0.44954  1.0000
  C   C11       1.0  0.36829  0.20766  0.08692  1.0000
  C   C12       1.0  0.20765  0.36829  0.91307  1.0000
  C   C13       1.0  0.20764  0.36826  0.58693  1.0000
  C   C14       1.0  0.36829  0.20763  0.41308  1.0000
  C   C15       1.0  0.20612  0.26887  0.13723  1.0000
  C   C16       1.0  0.26888  0.20610  0.86277  1.0000
  C   C17       1.0  0.26885  0.20611  0.63724  1.0000
  C   C18       1.0  0.20612  0.26887  0.36277  1.0000
  S   S1        1.0  0.47047  0.86598  0.25000  1.0000
  S   S2        1.0  0.86594  0.47049  0.75000  1.0000
  N   N1        1.0  0.69015  0.47376  0.25000  1.0000
  N   N2        1.0  0.47378  0.69016  0.75000  1.0000
  N   N3        1.0  0.99521  0.12289  0.15548  1.0000
  N   N4        1.0  0.12292  0.99518  0.84450  1.0000
  N   N5        1.0  0.12290  0.99516  0.65550  1.0000
  N   N6        1.0  0.99519  0.12289  0.34450  1.0000
  N   N7        1.0  0.09787  0.84723  0.06791  1.0000
  N   N8        1.0  0.84722  0.09787  0.93208  1.0000
  N   N9        1.0  0.84723  0.09788  0.56790  1.0000
  N   N10       1.0  0.09786  0.84720  0.43209  1.0000
  O   O1        1.0  0.45175  0.89403  0.00520  1.0000
  O   O2        1.0  0.89401  0.45177  0.99479  1.0000
  O   O3        1.0  0.89401  0.45172  0.50520  1.0000
  O   O4        1.0  0.45175  0.89400  0.49480  1.0000
