data_image0
_chemical_formula_structural       Cu2H6C10S2Br2N6
_chemical_formula_sum              "Cu2 H6 C10 S2 Br2 N6"
_cell_length_a       3.73681
_cell_length_b       5.67251
_cell_length_c       18.1238
_cell_angle_alpha    89.9992
_cell_angle_beta     90.0008
_cell_angle_gamma    104.434

_space_group_name_H-M_alt    "P 1"
_space_group_IT_number       1

loop_
  _space_group_symop_operation_xyz
  'x, y, z'

loop_
  _atom_site_type_symbol
  _atom_site_label
  _atom_site_symmetry_multiplicity
  _atom_site_fract_x
  _atom_site_fract_y
  _atom_site_fract_z
  _atom_site_occupancy
  Cu  Cu1       1.0  0.70592  0.75486  0.66003  1.0000
  Cu  Cu2       1.0  0.29412  0.24513  0.16001  1.0000
  H   H1        1.0  0.40761  0.28121  0.58520  1.0000
  H   H2        1.0  0.59238  0.71877  0.08519  1.0000
  H   H3        1.0  0.84182  0.98363  0.50514  1.0000
  H   H4        1.0  0.15814  0.01638  0.00514  1.0000
  H   H5        1.0  0.23631  0.40718  0.36349  1.0000
  H   H6        1.0  0.76369  0.59284  0.86348  1.0000
  C   C1        1.0  0.97772  0.30083  0.69311  1.0000
  C   C2        1.0  0.02231  0.69922  0.19310  1.0000
  C   C3        1.0  0.44520  0.40778  0.53898  1.0000
  C   C4        1.0  0.55479  0.59221  0.03897  1.0000
  C   C5        1.0  0.68572  0.79633  0.49568  1.0000
  C   C6        1.0  0.31426  0.20367  0.99568  1.0000
  C   C7        1.0  0.35509  0.47624  0.41674  1.0000
  C   C8        1.0  0.64491  0.52375  0.91673  1.0000
  C   C9        1.0  0.55332  0.71816  0.42564  1.0000
  C   C10       1.0  0.44672  0.28185  0.92563  1.0000
  S   S1        1.0  0.13901  0.58555  0.71911  1.0000
  S   S2        1.0  0.86095  0.41441  0.21912  1.0000
  Br  Br1       1.0  0.63548  0.93475  0.34500  1.0000
  Br  Br2       1.0  0.36447  0.06522  0.84500  1.0000
  N   N1        1.0  0.85625  0.09656  0.67464  1.0000
  N   N2        1.0  0.14377  0.90347  0.17464  1.0000
  N   N3        1.0  0.62752  0.64046  0.55323  1.0000
  N   N4        1.0  0.37251  0.35956  0.05322  1.0000
  N   N5        1.0  0.30505  0.32162  0.47402  1.0000
  N   N6        1.0  0.69498  0.67837  0.97402  1.0000
