data_image0
_chemical_formula_structural       Cu6H12C16S6N10
_chemical_formula_sum              "Cu6 H12 C16 S6 N10"
_cell_length_a       3.7042
_cell_length_b       8.49509
_cell_length_c       20.8131
_cell_angle_alpha    90.0004
_cell_angle_beta     90.8605
_cell_angle_gamma    89.9997

_space_group_name_H-M_alt    "P 1"
_space_group_IT_number       1

loop_
  _space_group_symop_operation_xyz
  'x, y, z'

loop_
  _atom_site_type_symbol
  _atom_site_label
  _atom_site_symmetry_multiplicity
  _atom_site_fract_x
  _atom_site_fract_y
  _atom_site_fract_z
  _atom_site_occupancy
  Cu  Cu1       1.0  0.57021  0.68091  0.40054  1.0000
  Cu  Cu2       1.0  0.57021  0.31909  0.90054  1.0000
  Cu  Cu3       1.0  0.06740  0.27013  0.43054  1.0000
  Cu  Cu4       1.0  0.06739  0.72988  0.93054  1.0000
  Cu  Cu5       1.0  0.07812  0.43938  0.16202  1.0000
  Cu  Cu6       1.0  0.07811  0.56062  0.66202  1.0000
  H   H1        1.0  0.06307  0.42454  0.30229  1.0000
  H   H2        1.0  0.06306  0.57546  0.80229  1.0000
  H   H3        1.0  0.86477  0.08880  0.11610  1.0000
  H   H4        1.0  0.86477  0.91120  0.61610  1.0000
  H   H5        1.0  0.31902  0.14238  0.11723  1.0000
  H   H6        1.0  0.31902  0.85762  0.61722  1.0000
  H   H7        1.0  0.19250  0.94205  0.13491  1.0000
  H   H8        1.0  0.19250  0.05795  0.63491  1.0000
  H   H9        1.0  0.09318  0.87006  0.24676  1.0000
  H   H10       1.0  0.09319  0.12994  0.74676  1.0000
  H   H11       1.0  0.06185  0.95673  0.36155  1.0000
  H   H12       1.0  0.06186  0.04327  0.86155  1.0000
  C   C1        1.0  0.07276  0.56568  0.51560  1.0000
  C   C2        1.0  0.07275  0.43432  0.01560  1.0000
  C   C3        1.0  0.57421  0.00616  0.46473  1.0000
  C   C4        1.0  0.57421  0.99384  0.96473  1.0000
  C   C5        1.0  0.57492  0.63385  0.25470  1.0000
  C   C6        1.0  0.57491  0.36616  0.75469  1.0000
  C   C7        1.0  0.07029  0.30009  0.28982  1.0000
  C   C8        1.0  0.07029  0.69991  0.78982  1.0000
  C   C9        1.0  0.09794  0.10846  0.21050  1.0000
  C   C10       1.0  0.09795  0.89153  0.71050  1.0000
  C   C11       1.0  0.12279  0.06647  0.14124  1.0000
  C   C12       1.0  0.12279  0.93352  0.64124  1.0000
  C   C13       1.0  0.08662  0.99462  0.25879  1.0000
  C   C14       1.0  0.08662  0.00538  0.75879  1.0000
  C   C15       1.0  0.06961  0.04175  0.32245  1.0000
  C   C16       1.0  0.06961  0.95825  0.82245  1.0000
  S   S1        1.0  0.07356  0.53759  0.43711  1.0000
  S   S2        1.0  0.07355  0.46242  0.93712  1.0000
  S   S3        1.0  0.57346  0.18847  0.49158  1.0000
  S   S4        1.0  0.57344  0.81153  0.99158  1.0000
  S   S5        1.0  0.58095  0.60861  0.17662  1.0000
  S   S6        1.0  0.58096  0.39139  0.67661  1.0000
  N   N1        1.0  0.07050  0.58469  0.57162  1.0000
  N   N2        1.0  0.07050  0.41531  0.07162  1.0000
  N   N3        1.0  0.57385  0.87689  0.44396  1.0000
  N   N4        1.0  0.57383  0.12311  0.94396  1.0000
  N   N5        1.0  0.56882  0.65398  0.31091  1.0000
  N   N6        1.0  0.56884  0.34602  0.81091  1.0000
  N   N7        1.0  0.06437  0.19639  0.33862  1.0000
  N   N8        1.0  0.06436  0.80361  0.83862  1.0000
  N   N9        1.0  0.08547  0.26407  0.22708  1.0000
  N   N10       1.0  0.08547  0.73593  0.72708  1.0000
