data_image0
_chemical_formula_structural       Cu4H44C48N8O24
_chemical_formula_sum              "Cu4 H44 C48 N8 O24"
_cell_length_a       8.60047
_cell_length_b       13.2128
_cell_length_c       15.2595
_cell_angle_alpha    115.645
_cell_angle_beta     95.8317
_cell_angle_gamma    90.0017

_space_group_name_H-M_alt    "P 1"
_space_group_IT_number       1

loop_
  _space_group_symop_operation_xyz
  'x, y, z'

loop_
  _atom_site_type_symbol
  _atom_site_label
  _atom_site_symmetry_multiplicity
  _atom_site_fract_x
  _atom_site_fract_y
  _atom_site_fract_z
  _atom_site_occupancy
  Cu  Cu1       1.0  0.46252  0.99531  0.57886  1.0000
  Cu  Cu2       1.0  0.03745  0.41647  0.42112  1.0000
  Cu  Cu3       1.0  0.53748  0.00469  0.42114  1.0000
  Cu  Cu4       1.0  0.96256  0.58352  0.57888  1.0000
  H   H1        1.0  0.05273  0.86173  0.28983  1.0000
  H   H2        1.0  0.44711  0.57174  0.71018  1.0000
  H   H3        1.0  0.94726  0.13828  0.71018  1.0000
  H   H4        1.0  0.55288  0.42826  0.28982  1.0000
  H   H5        1.0  0.97450  0.96940  0.38953  1.0000
  H   H6        1.0  0.52548  0.57990  0.61057  1.0000
  H   H7        1.0  0.02551  0.03060  0.61048  1.0000
  H   H8        1.0  0.47452  0.42011  0.38944  1.0000
  H   H9        1.0  0.17259  0.13212  0.89491  1.0000
  H   H10       1.0  0.32744  0.23741  0.10499  1.0000
  H   H11       1.0  0.82741  0.86787  0.10508  1.0000
  H   H12       1.0  0.67256  0.76259  0.89500  1.0000
  H   H13       1.0  0.21466  0.74594  0.41285  1.0000
  H   H14       1.0  0.28532  0.33308  0.58717  1.0000
  H   H15       1.0  0.78535  0.25406  0.58716  1.0000
  H   H16       1.0  0.71467  0.66693  0.41283  1.0000
  H   H17       1.0  0.09695  0.66484  0.30160  1.0000
  H   H18       1.0  0.40301  0.36318  0.69841  1.0000
  H   H19       1.0  0.90305  0.33516  0.69840  1.0000
  H   H20       1.0  0.59698  0.63681  0.30159  1.0000
  H   H21       1.0  0.98011  0.85529  0.48145  1.0000
  H   H22       1.0  0.51986  0.37384  0.51856  1.0000
  H   H23       1.0  0.01990  0.14472  0.51856  1.0000
  H   H24       1.0  0.48015  0.62616  0.48145  1.0000
  H   H25       1.0  0.86988  0.78445  0.36575  1.0000
  H   H26       1.0  0.63011  0.41863  0.63424  1.0000
  H   H27       1.0  0.13012  0.21556  0.63425  1.0000
  H   H28       1.0  0.36988  0.58137  0.36577  1.0000
  H   H29       1.0  0.32810  0.14828  0.76970  1.0000
  H   H30       1.0  0.17184  0.37872  0.23016  1.0000
  H   H31       1.0  0.67190  0.85171  0.23029  1.0000
  H   H32       1.0  0.82816  0.62128  0.76983  1.0000
  H   H33       1.0  0.37496  0.80499  0.63236  1.0000
  H   H34       1.0  0.12475  0.17268  0.36746  1.0000
  H   H35       1.0  0.62505  0.19500  0.36763  1.0000
  H   H36       1.0  0.87527  0.82732  0.63254  1.0000
  H   H37       1.0  0.22103  0.77286  0.74884  1.0000
  H   H38       1.0  0.27887  0.02418  0.25106  1.0000
  H   H39       1.0  0.77898  0.22714  0.25116  1.0000
  H   H40       1.0  0.72114  0.97581  0.74893  1.0000
  H   H41       1.0  0.08643  0.84854  0.89672  1.0000
  H   H42       1.0  0.41333  0.95199  0.10330  1.0000
  H   H43       1.0  0.91357  0.15145  0.10328  1.0000
  H   H44       1.0  0.58668  0.04801  0.89670  1.0000
  C   C1        1.0  0.05383  0.63428  0.42342  1.0000
  C   C2        1.0  0.44613  0.21082  0.57660  1.0000
  C   C3        1.0  0.94618  0.36572  0.57658  1.0000
  C   C4        1.0  0.55385  0.78918  0.42340  1.0000
  C   C5        1.0  0.05172  0.89820  0.36955  1.0000
  C   C6        1.0  0.44824  0.52856  0.63047  1.0000
  C   C7        1.0  0.94828  0.10180  0.63045  1.0000
  C   C8        1.0  0.55177  0.47144  0.36954  1.0000
  C   C9        1.0  0.21562  0.05808  0.83747  1.0000
  C   C10       1.0  0.28434  0.22079  0.16243  1.0000
  C   C11       1.0  0.78438  0.94191  0.16253  1.0000
  C   C12       1.0  0.71567  0.77921  0.83757  1.0000
  C   C13       1.0  0.21641  0.94389  0.41774  1.0000
  C   C14       1.0  0.28357  0.52608  0.58224  1.0000
  C   C15       1.0  0.78358  0.05612  0.58226  1.0000
  C   C16       1.0  0.71643  0.47392  0.41776  1.0000
  C   C17       1.0  0.09388  0.71406  0.38051  1.0000
  C   C18       1.0  0.40608  0.33350  0.61950  1.0000
  C   C19       1.0  0.90612  0.28594  0.61949  1.0000
  C   C20       1.0  0.59390  0.66651  0.38050  1.0000
  C   C21       1.0  0.98878  0.81339  0.40257  1.0000
  C   C22       1.0  0.51119  0.41079  0.59744  1.0000
  C   C23       1.0  0.01122  0.18661  0.59744  1.0000
  C   C24       1.0  0.48880  0.58921  0.40256  1.0000
  C   C25       1.0  0.30249  0.06716  0.76922  1.0000
  C   C26       1.0  0.19744  0.29808  0.23066  1.0000
  C   C27       1.0  0.69751  0.93283  0.23077  1.0000
  C   C28       1.0  0.80257  0.70192  0.76934  1.0000
  C   C29       1.0  0.32878  0.87523  0.69203  1.0000
  C   C30       1.0  0.17106  0.18333  0.30786  1.0000
  C   C31       1.0  0.67122  0.12476  0.30797  1.0000
  C   C32       1.0  0.82894  0.81667  0.69214  1.0000
  C   C33       1.0  0.24305  0.85808  0.75745  1.0000
  C   C34       1.0  0.25683  0.10079  0.24245  1.0000
  C   C35       1.0  0.75695  0.14192  0.24255  1.0000
  C   C36       1.0  0.74317  0.89920  0.75754  1.0000
  C   C37       1.0  0.18525  0.95109  0.83249  1.0000
  C   C38       1.0  0.31466  0.11878  0.16743  1.0000
  C   C39       1.0  0.81475  0.04891  0.16751  1.0000
  C   C40       1.0  0.68535  0.88122  0.83257  1.0000
  C   C41       1.0  0.09863  0.93399  0.90253  1.0000
  C   C42       1.0  0.40131  0.03161  0.09746  1.0000
  C   C43       1.0  0.90137  0.06600  0.09746  1.0000
  C   C44       1.0  0.59869  0.96839  0.90254  1.0000
  C   C45       1.0  0.66300  0.27446  0.83032  1.0000
  C   C46       1.0  0.83684  0.44448  0.16985  1.0000
  C   C47       1.0  0.33698  0.72554  0.16969  1.0000
  C   C48       1.0  0.16314  0.55553  0.83014  1.0000
  N   N1        1.0  0.35998  0.97779  0.69787  1.0000
  N   N2        1.0  0.13986  0.28003  0.30199  1.0000
  N   N3        1.0  0.64003  0.02221  0.30214  1.0000
  N   N4        1.0  0.86015  0.71997  0.69801  1.0000
  N   N5        1.0  0.03786  0.01711  0.97025  1.0000
  N   N6        1.0  0.46219  0.04690  0.02971  1.0000
  N   N7        1.0  0.96213  0.98289  0.02975  1.0000
  N   N8        1.0  0.53783  0.95310  0.97030  1.0000
  O   O1        1.0  0.01028  0.67649  0.50891  1.0000
  O   O2        1.0  0.48983  0.16761  0.49115  1.0000
  O   O3        1.0  0.98976  0.32351  0.49110  1.0000
  O   O4        1.0  0.51016  0.83240  0.50884  1.0000
  O   O5        1.0  0.24649  0.96069  0.50641  1.0000
  O   O6        1.0  0.25350  0.45424  0.49356  1.0000
  O   O7        1.0  0.75352  0.03932  0.49359  1.0000
  O   O8        1.0  0.74651  0.54577  0.50643  1.0000
  O   O9        1.0  0.07231  0.53025  0.37059  1.0000
  O   O10       1.0  0.42752  0.15958  0.62940  1.0000
  O   O11       1.0  0.92766  0.46974  0.62940  1.0000
  O   O12       1.0  0.57247  0.84042  0.37060  1.0000
  O   O13       1.0  0.31214  0.95984  0.36577  1.0000
  O   O14       1.0  0.18783  0.59397  0.63422  1.0000
  O   O15       1.0  0.68785  0.04015  0.63422  1.0000
  O   O16       1.0  0.81217  0.40602  0.36579  1.0000
  O   O17       1.0  0.67543  0.34404  0.80247  1.0000
  O   O18       1.0  0.82426  0.54189  0.19780  1.0000
  O   O19       1.0  0.32455  0.65596  0.19754  1.0000
  O   O20       1.0  0.17569  0.45812  0.80218  1.0000
  O   O21       1.0  0.65200  0.20717  0.86073  1.0000
  O   O22       1.0  0.84793  0.34678  0.13930  1.0000
  O   O23       1.0  0.34799  0.79282  0.13928  1.0000
  O   O24       1.0  0.15208  0.65324  0.86070  1.0000
