data_image0
_chemical_formula_structural       Cd2H24C24O12
_chemical_formula_sum              "Cd2 H24 C24 O12"
_cell_length_a       5.30354
_cell_length_b       6.51829
_cell_length_c       19.1637
_cell_angle_alpha    90.0001
_cell_angle_beta     90.0004
_cell_angle_gamma    114.019

_space_group_name_H-M_alt    "P 1"
_space_group_IT_number       1

loop_
  _space_group_symop_operation_xyz
  'x, y, z'

loop_
  _atom_site_type_symbol
  _atom_site_label
  _atom_site_symmetry_multiplicity
  _atom_site_fract_x
  _atom_site_fract_y
  _atom_site_fract_z
  _atom_site_occupancy
  Cd  Cd1       1.0  0.94133  0.00059  0.00007  1.0000
  Cd  Cd2       1.0  0.05866  0.99939  0.50008  1.0000
  H   H1        1.0  0.15764  0.45824  0.87143  1.0000
  H   H2        1.0  0.84235  0.54174  0.37142  1.0000
  H   H3        1.0  0.29799  0.45924  0.62834  1.0000
  H   H4        1.0  0.70200  0.54076  0.12834  1.0000
  H   H5        1.0  0.63039  0.91771  0.83903  1.0000
  H   H6        1.0  0.36963  0.08228  0.33900  1.0000
  H   H7        1.0  0.28505  0.91851  0.66109  1.0000
  H   H8        1.0  0.71496  0.08151  0.16108  1.0000
  H   H9        1.0  0.34792  0.28029  0.82699  1.0000
  H   H10       1.0  0.65211  0.71970  0.32698  1.0000
  H   H11       1.0  0.93075  0.28085  0.67300  1.0000
  H   H12       1.0  0.06924  0.71915  0.17301  1.0000
  H   H13       1.0  0.53855  0.07839  0.74999  1.0000
  H   H14       1.0  0.46147  0.92162  0.24999  1.0000
  H   H15       1.0  0.95389  0.91157  0.74993  1.0000
  H   H16       1.0  0.04611  0.08842  0.24992  1.0000
  H   H17       1.0  0.43550  0.86265  0.07155  1.0000
  H   H18       1.0  0.56451  0.13738  0.57156  1.0000
  H   H19       1.0  0.42845  0.86332  0.42857  1.0000
  H   H20       1.0  0.57155  0.13669  0.92857  1.0000
  H   H21       1.0  0.45397  0.62472  0.05055  1.0000
  H   H22       1.0  0.54602  0.37530  0.55055  1.0000
  H   H23       1.0  0.17253  0.62475  0.44939  1.0000
  H   H24       1.0  0.82747  0.37526  0.94940  1.0000
  C   C1        1.0  0.15256  0.76203  0.91466  1.0000
  C   C2        1.0  0.84742  0.23798  0.41465  1.0000
  C   C3        1.0  0.60783  0.76302  0.58546  1.0000
  C   C4        1.0  0.39222  0.23702  0.08545  1.0000
  C   C5        1.0  0.27698  0.63947  0.87242  1.0000
  C   C6        1.0  0.72306  0.36051  0.37241  1.0000
  C   C7        1.0  0.36026  0.64047  0.62749  1.0000
  C   C8        1.0  0.63970  0.35952  0.12749  1.0000
  C   C9        1.0  0.51614  0.73538  0.83666  1.0000
  C   C10       1.0  0.48389  0.26460  0.33665  1.0000
  C   C11       1.0  0.21691  0.73619  0.66329  1.0000
  C   C12       1.0  0.78306  0.26381  0.16329  1.0000
  C   C13       1.0  0.63406  0.61220  0.79334  1.0000
  C   C14       1.0  0.36597  0.38778  0.29334  1.0000
  C   C15       1.0  0.97547  0.61268  0.70651  1.0000
  C   C16       1.0  0.02448  0.38731  0.20651  1.0000
  C   C17       1.0  0.52023  0.37589  0.79299  1.0000
  C   C18       1.0  0.47978  0.62410  0.29298  1.0000
  C   C19       1.0  0.85378  0.37629  0.70699  1.0000
  C   C20       1.0  0.14619  0.62369  0.20698  1.0000
  C   C21       1.0  0.62952  0.26100  0.74996  1.0000
  C   C22       1.0  0.37050  0.73901  0.24996  1.0000
  C   C23       1.0  0.86239  0.72798  0.74994  1.0000
  C   C24       1.0  0.13761  0.27203  0.24993  1.0000
  O   O1        1.0  0.24482  0.97818  0.91300  1.0000
  O   O2        1.0  0.75520  0.02180  0.41300  1.0000
  O   O3        1.0  0.73246  0.97903  0.58720  1.0000
  O   O4        1.0  0.26752  0.02097  0.08719  1.0000
  O   O5        1.0  0.94458  0.64944  0.95328  1.0000
  O   O6        1.0  0.05540  0.35054  0.45327  1.0000
  O   O7        1.0  0.70321  0.65032  0.54686  1.0000
  O   O8        1.0  0.29680  0.34968  0.04686  1.0000
  O   O9        1.0  0.56327  0.78959  0.05993  1.0000
  O   O10       1.0  0.43673  0.21043  0.55993  1.0000
  O   O11       1.0  0.22760  0.78973  0.44014  1.0000
  O   O12       1.0  0.77241  0.21028  0.94014  1.0000
