data_image0
_chemical_formula_structural       Dy2P2H22C18S2N2O18
_chemical_formula_sum              "Dy2 P2 H22 C18 S2 N2 O18"
_cell_length_a       6.75003
_cell_length_b       7.52037
_cell_length_c       13.3357
_cell_angle_alpha    90.6527
_cell_angle_beta     93.2624
_cell_angle_gamma    101.855

_space_group_name_H-M_alt    "P 1"
_space_group_IT_number       1

loop_
  _space_group_symop_operation_xyz
  'x, y, z'

loop_
  _atom_site_type_symbol
  _atom_site_label
  _atom_site_symmetry_multiplicity
  _atom_site_fract_x
  _atom_site_fract_y
  _atom_site_fract_z
  _atom_site_occupancy
  Dy  Dy1       1.0  0.28520  0.76877  0.45492  1.0000
  Dy  Dy2       1.0  0.71480  0.23122  0.54508  1.0000
  P   P1        1.0  0.25079  0.38644  0.62071  1.0000
  P   P2        1.0  0.74921  0.61356  0.37929  1.0000
  H   H1        1.0  0.16779  0.10668  0.77429  1.0000
  H   H2        1.0  0.83221  0.89332  0.22571  1.0000
  H   H3        1.0  0.16660  0.12572  0.96134  1.0000
  H   H4        1.0  0.83340  0.87428  0.03866  1.0000
  H   H5        1.0  0.21450  0.31976  0.12027  1.0000
  H   H6        1.0  0.78550  0.68025  0.87974  1.0000
  H   H7        1.0  0.27361  0.62769  0.19928  1.0000
  H   H8        1.0  0.72638  0.37231  0.80072  1.0000
  H   H9        1.0  0.32950  0.89984  0.09603  1.0000
  H   H10       1.0  0.67050  0.10016  0.90397  1.0000
  H   H11       1.0  0.33489  0.87168  0.90778  1.0000
  H   H12       1.0  0.66511  0.12832  0.09222  1.0000
  H   H13       1.0  0.31054  0.67856  0.76635  1.0000
  H   H14       1.0  0.68946  0.32144  0.23365  1.0000
  H   H15       1.0  0.23139  0.39116  0.34445  1.0000
  H   H16       1.0  0.76861  0.60884  0.65554  1.0000
  H   H17       1.0  0.02421  0.41748  0.38626  1.0000
  H   H18       1.0  0.97579  0.58252  0.61374  1.0000
  H   H19       1.0  0.22998  0.92169  0.64493  1.0000
  H   H20       1.0  0.77002  0.07831  0.35508  1.0000
  H   H21       1.0  0.10957  0.03952  0.57611  1.0000
  H   H22       1.0  0.89043  0.96048  0.42389  1.0000
  C   C1        1.0  0.23916  0.39687  0.75821  1.0000
  C   C2        1.0  0.76084  0.60313  0.24179  1.0000
  C   C3        1.0  0.19726  0.23705  0.81405  1.0000
  C   C4        1.0  0.80274  0.76295  0.18595  1.0000
  C   C5        1.0  0.19674  0.24859  0.91719  1.0000
  C   C6        1.0  0.80326  0.75141  0.08281  1.0000
  C   C7        1.0  0.23429  0.41933  0.96796  1.0000
  C   C8        1.0  0.76571  0.58067  0.03204  1.0000
  C   C9        1.0  0.23714  0.43983  0.07380  1.0000
  C   C10       1.0  0.76287  0.56017  0.92620  1.0000
  C   C11       1.0  0.27191  0.61072  0.11808  1.0000
  C   C12       1.0  0.72809  0.38928  0.88192  1.0000
  C   C13       1.0  0.30462  0.76707  0.05832  1.0000
  C   C14       1.0  0.69538  0.23293  0.94168  1.0000
  C   C15       1.0  0.30595  0.75305  0.95498  1.0000
  C   C16       1.0  0.69406  0.24695  0.04502  1.0000
  C   C17       1.0  0.27116  0.57841  0.90901  1.0000
  C   C18       1.0  0.72884  0.42159  0.09099  1.0000
  S   S1        1.0  0.39622  0.08002  0.30922  1.0000
  S   S2        1.0  0.60378  0.91998  0.69078  1.0000
  N   N1        1.0  0.27258  0.55809  0.80659  1.0000
  N   N2        1.0  0.72742  0.44191  0.19341  1.0000
  O   O1        1.0  0.24783  0.58013  0.58779  1.0000
  O   O2        1.0  0.75217  0.41987  0.41221  1.0000
  O   O3        1.0  0.44333  0.32006  0.60359  1.0000
  O   O4        1.0  0.55667  0.67994  0.39641  1.0000
  O   O5        1.0  0.05835  0.24991  0.58479  1.0000
  O   O6        1.0  0.94165  0.75008  0.41521  1.0000
  O   O7        1.0  0.26703  0.89686  0.28749  1.0000
  O   O8        1.0  0.73297  0.10314  0.71251  1.0000
  O   O9        1.0  0.43331  0.08593  0.42291  1.0000
  O   O10       1.0  0.56669  0.91406  0.57708  1.0000
  O   O11       1.0  0.29839  0.22716  0.27478  1.0000
  O   O12       1.0  0.70161  0.77284  0.72522  1.0000
  O   O13       1.0  0.59509  0.09657  0.26173  1.0000
  O   O14       1.0  0.40491  0.90343  0.73827  1.0000
  O   O15       1.0  0.16018  0.48362  0.37065  1.0000
  O   O16       1.0  0.83982  0.51638  0.62935  1.0000
  O   O17       1.0  0.14101  0.91603  0.58253  1.0000
  O   O18       1.0  0.85899  0.08397  0.41747  1.0000
