data_image0
_chemical_formula_structural       Dy4P4H44C36S4N4O36
_chemical_formula_sum              "Dy4 P4 H44 C36 S4 N4 O36"
_cell_length_a       6.71815
_cell_length_b       13.3415
_cell_length_c       14.9729
_cell_angle_alpha    90.5409
_cell_angle_beta     90.0001
_cell_angle_gamma    90.0001

_space_group_name_H-M_alt    "P 1"
_space_group_IT_number       1

loop_
  _space_group_symop_operation_xyz
  'x, y, z'

loop_
  _atom_site_type_symbol
  _atom_site_label
  _atom_site_symmetry_multiplicity
  _atom_site_fract_x
  _atom_site_fract_y
  _atom_site_fract_z
  _atom_site_occupancy
  Dy  Dy1       1.0  0.87497  0.54748  0.61911  1.0000
  Dy  Dy2       1.0  0.37497  0.45252  0.88090  1.0000
  Dy  Dy3       1.0  0.12503  0.45252  0.38089  1.0000
  Dy  Dy4       1.0  0.62503  0.54748  0.11911  1.0000
  P   P1        1.0  0.86953  0.37778  0.80332  1.0000
  P   P2        1.0  0.36953  0.62222  0.69668  1.0000
  P   P3        1.0  0.13047  0.62222  0.19668  1.0000
  P   P4        1.0  0.63047  0.37778  0.30332  1.0000
  H   H1        1.0  0.85658  0.22514  0.94405  1.0000
  H   H2        1.0  0.35659  0.77485  0.55595  1.0000
  H   H3        1.0  0.14341  0.77485  0.05595  1.0000
  H   H4        1.0  0.64342  0.22515  0.44405  1.0000
  H   H5        1.0  0.85866  0.03781  0.93805  1.0000
  H   H6        1.0  0.35866  0.96219  0.56195  1.0000
  H   H7        1.0  0.14134  0.96219  0.06195  1.0000
  H   H8        1.0  0.64134  0.03781  0.43805  1.0000
  H   H9        1.0  0.85605  0.87828  0.84514  1.0000
  H   H10       1.0  0.35605  0.12172  0.65485  1.0000
  H   H11       1.0  0.14395  0.12172  0.15485  1.0000
  H   H12       1.0  0.64395  0.87828  0.34515  1.0000
  H   H13       1.0  0.86134  0.79824  0.69515  1.0000
  H   H14       1.0  0.36135  0.20176  0.80485  1.0000
  H   H15       1.0  0.13866  0.20176  0.30485  1.0000
  H   H16       1.0  0.63866  0.79824  0.19515  1.0000
  H   H17       1.0  0.86470  0.90022  0.55955  1.0000
  H   H18       1.0  0.36470  0.09978  0.94045  1.0000
  H   H19       1.0  0.13530  0.09978  0.44045  1.0000
  H   H20       1.0  0.63530  0.90023  0.05955  1.0000
  H   H21       1.0  0.86681  0.08914  0.57033  1.0000
  H   H22       1.0  0.36680  0.91086  0.92967  1.0000
  H   H23       1.0  0.13319  0.91086  0.42967  1.0000
  H   H24       1.0  0.63319  0.08914  0.07033  1.0000
  H   H25       1.0  0.86646  0.23145  0.66229  1.0000
  H   H26       1.0  0.36645  0.76855  0.83771  1.0000
  H   H27       1.0  0.13354  0.76855  0.33771  1.0000
  H   H28       1.0  0.63354  0.23145  0.16229  1.0000
  H   H29       1.0  0.05559  0.61012  0.79126  1.0000
  H   H30       1.0  0.55559  0.38988  0.70874  1.0000
  H   H31       1.0  0.94441  0.38988  0.20874  1.0000
  H   H32       1.0  0.44442  0.61012  0.29126  1.0000
  H   H33       1.0  0.83687  0.65115  0.80999  1.0000
  H   H34       1.0  0.33687  0.34885  0.69001  1.0000
  H   H35       1.0  0.16313  0.34885  0.19001  1.0000
  H   H36       1.0  0.66313  0.65115  0.30999  1.0000
  H   H37       1.0  0.71017  0.36760  0.55087  1.0000
  H   H38       1.0  0.21017  0.63240  0.94913  1.0000
  H   H39       1.0  0.28983  0.63240  0.44913  1.0000
  H   H40       1.0  0.78983  0.36760  0.05087  1.0000
  H   H41       1.0  0.66535  0.44300  0.47621  1.0000
  H   H42       1.0  0.16535  0.55700  0.02379  1.0000
  H   H43       1.0  0.33465  0.55700  0.52379  1.0000
  H   H44       1.0  0.83465  0.44300  0.97621  1.0000
  C   C1        1.0  0.86121  0.24006  0.80092  1.0000
  C   C2        1.0  0.36121  0.75994  0.69908  1.0000
  C   C3        1.0  0.13879  0.75994  0.19908  1.0000
  C   C4        1.0  0.63879  0.24006  0.30092  1.0000
  C   C5        1.0  0.86063  0.18481  0.88067  1.0000
  C   C6        1.0  0.36062  0.81519  0.61934  1.0000
  C   C7        1.0  0.13937  0.81519  0.11933  1.0000
  C   C8        1.0  0.63938  0.18481  0.38067  1.0000
  C   C9        1.0  0.86031  0.08154  0.87678  1.0000
  C   C10       1.0  0.36031  0.91846  0.62322  1.0000
  C   C11       1.0  0.13969  0.91846  0.12322  1.0000
  C   C12       1.0  0.63969  0.08154  0.37678  1.0000
  C   C13       1.0  0.86135  0.03009  0.79371  1.0000
  C   C14       1.0  0.36134  0.96991  0.70629  1.0000
  C   C15       1.0  0.13866  0.96991  0.20629  1.0000
  C   C16       1.0  0.63866  0.03009  0.29371  1.0000
  C   C17       1.0  0.86068  0.92422  0.78529  1.0000
  C   C18       1.0  0.36068  0.07578  0.71471  1.0000
  C   C19       1.0  0.13932  0.07578  0.21471  1.0000
  C   C20       1.0  0.63933  0.92422  0.28529  1.0000
  C   C21       1.0  0.86165  0.87948  0.70194  1.0000
  C   C22       1.0  0.36165  0.12052  0.79806  1.0000
  C   C23       1.0  0.13835  0.12052  0.29806  1.0000
  C   C24       1.0  0.63835  0.87948  0.20194  1.0000
  C   C25       1.0  0.86378  0.93863  0.62407  1.0000
  C   C26       1.0  0.36378  0.06137  0.87593  1.0000
  C   C27       1.0  0.13622  0.06137  0.37593  1.0000
  C   C28       1.0  0.63622  0.93863  0.12407  1.0000
  C   C29       1.0  0.86403  0.04201  0.62933  1.0000
  C   C30       1.0  0.36402  0.95799  0.87066  1.0000
  C   C31       1.0  0.13598  0.95799  0.37067  1.0000
  C   C32       1.0  0.63598  0.04201  0.12933  1.0000
  C   C33       1.0  0.86234  0.08848  0.71446  1.0000
  C   C34       1.0  0.36234  0.91152  0.78554  1.0000
  C   C35       1.0  0.13766  0.91152  0.28554  1.0000
  C   C36       1.0  0.63766  0.08848  0.21446  1.0000
  S   S1        1.0  0.91100  0.69242  0.46173  1.0000
  S   S2        1.0  0.41101  0.30758  0.03827  1.0000
  S   S3        1.0  0.08899  0.30758  0.53827  1.0000
  S   S4        1.0  0.58899  0.69242  0.96173  1.0000
  N   N1        1.0  0.86158  0.19104  0.72263  1.0000
  N   N2        1.0  0.36158  0.80896  0.77737  1.0000
  N   N3        1.0  0.13842  0.80896  0.27737  1.0000
  N   N4        1.0  0.63842  0.19104  0.22263  1.0000
  O   O1        1.0  0.82696  0.40950  0.70705  1.0000
  O   O2        1.0  0.32696  0.59050  0.79295  1.0000
  O   O3        1.0  0.17304  0.59050  0.29295  1.0000
  O   O4        1.0  0.67304  0.40950  0.20705  1.0000
  O   O5        1.0  0.70728  0.40964  0.86914  1.0000
  O   O6        1.0  0.20728  0.59036  0.63086  1.0000
  O   O7        1.0  0.29272  0.59036  0.13086  1.0000
  O   O8        1.0  0.79272  0.40964  0.36914  1.0000
  O   O9        1.0  0.07724  0.40121  0.83573  1.0000
  O   O10       1.0  0.57724  0.59879  0.66427  1.0000
  O   O11       1.0  0.92276  0.59879  0.16427  1.0000
  O   O12       1.0  0.42276  0.40121  0.33573  1.0000
  O   O13       1.0  0.84519  0.71483  0.55470  1.0000
  O   O14       1.0  0.34520  0.28517  0.94530  1.0000
  O   O15       1.0  0.15481  0.28517  0.44530  1.0000
  O   O16       1.0  0.65481  0.71482  0.05470  1.0000
  O   O17       1.0  0.92648  0.57878  0.45953  1.0000
  O   O18       1.0  0.42648  0.42122  0.04047  1.0000
  O   O19       1.0  0.07352  0.42122  0.54047  1.0000
  O   O20       1.0  0.57352  0.57878  0.95953  1.0000
  O   O21       1.0  0.11305  0.73607  0.44526  1.0000
  O   O22       1.0  0.61304  0.26392  0.05475  1.0000
  O   O23       1.0  0.88695  0.26393  0.55474  1.0000
  O   O24       1.0  0.38695  0.73607  0.94526  1.0000
  O   O25       1.0  0.76996  0.72763  0.39411  1.0000
  O   O26       1.0  0.26996  0.27237  0.10589  1.0000
  O   O27       1.0  0.23004  0.27237  0.60589  1.0000
  O   O28       1.0  0.73004  0.72763  0.89411  1.0000
  O   O29       1.0  0.92590  0.62398  0.76289  1.0000
  O   O30       1.0  0.42590  0.37602  0.73711  1.0000
  O   O31       1.0  0.07410  0.37602  0.23711  1.0000
  O   O32       1.0  0.57411  0.62398  0.26289  1.0000
  O   O33       1.0  0.65026  0.43445  0.54141  1.0000
  O   O34       1.0  0.15026  0.56555  0.95859  1.0000
  O   O35       1.0  0.34974  0.56555  0.45859  1.0000
  O   O36       1.0  0.84974  0.43445  0.04141  1.0000
