data_image0
_chemical_formula_structural       Y2P2H22C18S2N2O18
_chemical_formula_sum              "Y2 P2 H22 C18 S2 N2 O18"
_cell_length_a       6.75144
_cell_length_b       7.51631
_cell_length_c       13.3355
_cell_angle_alpha    90.6557
_cell_angle_beta     93.206
_cell_angle_gamma    101.865

_space_group_name_H-M_alt    "P 1"
_space_group_IT_number       1

loop_
  _space_group_symop_operation_xyz
  'x, y, z'

loop_
  _atom_site_type_symbol
  _atom_site_label
  _atom_site_symmetry_multiplicity
  _atom_site_fract_x
  _atom_site_fract_y
  _atom_site_fract_z
  _atom_site_occupancy
  Y   Y1        1.0  0.28479  0.76836  0.45514  1.0000
  Y   Y2        1.0  0.71521  0.23164  0.54486  1.0000
  P   P1        1.0  0.25140  0.38575  0.62078  1.0000
  P   P2        1.0  0.74859  0.61425  0.37922  1.0000
  H   H1        1.0  0.16560  0.10574  0.77420  1.0000
  H   H2        1.0  0.83440  0.89425  0.22580  1.0000
  H   H3        1.0  0.16579  0.12459  0.96141  1.0000
  H   H4        1.0  0.83421  0.87541  0.03858  1.0000
  H   H5        1.0  0.21245  0.31858  0.12012  1.0000
  H   H6        1.0  0.78755  0.68142  0.87988  1.0000
  H   H7        1.0  0.27277  0.62670  0.19934  1.0000
  H   H8        1.0  0.72724  0.37330  0.80066  1.0000
  H   H9        1.0  0.33224  0.89911  0.09623  1.0000
  H   H10       1.0  0.66776  0.10089  0.90378  1.0000
  H   H11       1.0  0.33616  0.87124  0.90787  1.0000
  H   H12       1.0  0.66384  0.12876  0.09213  1.0000
  H   H13       1.0  0.31192  0.67794  0.76650  1.0000
  H   H14       1.0  0.68808  0.32206  0.23350  1.0000
  H   H15       1.0  0.23028  0.39052  0.34390  1.0000
  H   H16       1.0  0.76972  0.60949  0.65610  1.0000
  H   H17       1.0  0.02354  0.41815  0.38556  1.0000
  H   H18       1.0  0.97646  0.58185  0.61444  1.0000
  H   H19       1.0  0.23001  0.91986  0.64513  1.0000
  H   H20       1.0  0.76999  0.08014  0.35487  1.0000
  H   H21       1.0  0.10849  0.03794  0.57676  1.0000
  H   H22       1.0  0.89151  0.96206  0.42324  1.0000
  C   C1        1.0  0.23939  0.39603  0.75825  1.0000
  C   C2        1.0  0.76060  0.60397  0.24175  1.0000
  C   C3        1.0  0.19629  0.23608  0.81408  1.0000
  C   C4        1.0  0.80370  0.76392  0.18592  1.0000
  C   C5        1.0  0.19610  0.24754  0.91721  1.0000
  C   C6        1.0  0.80390  0.75246  0.08279  1.0000
  C   C7        1.0  0.23439  0.41842  0.96796  1.0000
  C   C8        1.0  0.76561  0.58158  0.03204  1.0000
  C   C9        1.0  0.23649  0.43883  0.07373  1.0000
  C   C10       1.0  0.76352  0.56117  0.92627  1.0000
  C   C11       1.0  0.27203  0.60980  0.11812  1.0000
  C   C12       1.0  0.72798  0.39020  0.88188  1.0000
  C   C13       1.0  0.30605  0.76628  0.05842  1.0000
  C   C14       1.0  0.69396  0.23372  0.94158  1.0000
  C   C15       1.0  0.30735  0.75243  0.95507  1.0000
  C   C16       1.0  0.69265  0.24757  0.04493  1.0000
  C   C17       1.0  0.27216  0.57770  0.90912  1.0000
  C   C18       1.0  0.72784  0.42230  0.09088  1.0000
  S   S1        1.0  0.39639  0.07987  0.30923  1.0000
  S   S2        1.0  0.60361  0.92013  0.69077  1.0000
  N   N1        1.0  0.27377  0.55729  0.80671  1.0000
  N   N2        1.0  0.72623  0.44271  0.19329  1.0000
  O   O1        1.0  0.24847  0.57967  0.58814  1.0000
  O   O2        1.0  0.75153  0.42034  0.41186  1.0000
  O   O3        1.0  0.44407  0.31955  0.60367  1.0000
  O   O4        1.0  0.55593  0.68046  0.39632  1.0000
  O   O5        1.0  0.05903  0.24940  0.58461  1.0000
  O   O6        1.0  0.94096  0.75061  0.41539  1.0000
  O   O7        1.0  0.26863  0.89596  0.28740  1.0000
  O   O8        1.0  0.73136  0.10405  0.71260  1.0000
  O   O9        1.0  0.43290  0.08619  0.42291  1.0000
  O   O10       1.0  0.56710  0.91381  0.57709  1.0000
  O   O11       1.0  0.29719  0.22606  0.27449  1.0000
  O   O12       1.0  0.70282  0.77395  0.72552  1.0000
  O   O13       1.0  0.59577  0.09774  0.26190  1.0000
  O   O14       1.0  0.40423  0.90226  0.73810  1.0000
  O   O15       1.0  0.15970  0.48371  0.36996  1.0000
  O   O16       1.0  0.84030  0.51629  0.63004  1.0000
  O   O17       1.0  0.14090  0.91474  0.58284  1.0000
  O   O18       1.0  0.85909  0.08526  0.41716  1.0000
