data_image0
_chemical_formula_structural       Cd4H48C48O24
_chemical_formula_sum              "Cd4 H48 C48 O24"
_cell_length_a       8.06383
_cell_length_b       10.9194
_cell_length_c       14.2443
_cell_angle_alpha    100.01
_cell_angle_beta     90.0006
_cell_angle_gamma    89.9999

_space_group_name_H-M_alt    "P 1"
_space_group_IT_number       1

loop_
  _space_group_symop_operation_xyz
  'x, y, z'

loop_
  _atom_site_type_symbol
  _atom_site_label
  _atom_site_symmetry_multiplicity
  _atom_site_fract_x
  _atom_site_fract_y
  _atom_site_fract_z
  _atom_site_occupancy
  Cd  Cd1       1.0  0.94854  0.99247  0.03635  1.0000
  Cd  Cd2       1.0  0.44854  0.00753  0.96365  1.0000
  Cd  Cd3       1.0  0.85409  0.39055  0.08418  1.0000
  Cd  Cd4       1.0  0.35408  0.60944  0.91582  1.0000
  H   H1        1.0  0.69070  0.33279  0.24880  1.0000
  H   H2        1.0  0.19071  0.66722  0.75120  1.0000
  H   H3        1.0  0.71560  0.11602  0.36009  1.0000
  H   H4        1.0  0.21560  0.88399  0.63991  1.0000
  H   H5        1.0  0.75571  0.18920  0.52748  1.0000
  H   H6        1.0  0.25571  0.81081  0.47252  1.0000
  H   H7        1.0  0.51875  0.43294  0.36084  1.0000
  H   H8        1.0  0.01874  0.56707  0.63916  1.0000
  H   H9        1.0  0.46419  0.58386  0.50848  1.0000
  H   H10       1.0  0.96419  0.41614  0.49152  1.0000
  H   H11       1.0  0.56040  0.54276  0.66477  1.0000
  H   H12       1.0  0.06041  0.45724  0.33523  1.0000
  H   H13       1.0  0.75548  0.23487  0.69639  1.0000
  H   H14       1.0  0.25548  0.76513  0.30362  1.0000
  H   H15       1.0  0.73099  0.51264  0.78442  1.0000
  H   H16       1.0  0.23098  0.48736  0.21558  1.0000
  H   H17       1.0  0.72561  0.80457  0.25735  1.0000
  H   H18       1.0  0.22562  0.19543  0.74265  1.0000
  H   H19       1.0  0.75250  0.62106  0.39841  1.0000
  H   H20       1.0  0.25251  0.37894  0.60159  1.0000
  H   H21       1.0  0.74402  0.72775  0.56523  1.0000
  H   H22       1.0  0.24403  0.27225  0.43476  1.0000
  H   H23       1.0  0.53585  0.90747  0.34590  1.0000
  H   H24       1.0  0.03585  0.09254  0.65410  1.0000
  H   H25       1.0  0.42278  0.07389  0.46903  1.0000
  H   H26       1.0  0.92278  0.92611  0.53096  1.0000
  H   H27       1.0  0.47249  0.07165  0.64071  1.0000
  H   H28       1.0  0.97249  0.92835  0.35929  1.0000
  H   H29       1.0  0.59199  0.99401  0.76163  1.0000
  H   H30       1.0  0.09200  0.00598  0.23837  1.0000
  H   H31       1.0  0.82391  0.76579  0.72258  1.0000
  H   H32       1.0  0.32392  0.23421  0.27741  1.0000
  H   H33       1.0  0.11739  0.80749  0.11738  1.0000
  H   H34       1.0  0.61739  0.19251  0.88262  1.0000
  H   H35       1.0  0.92918  0.76064  0.11636  1.0000
  H   H36       1.0  0.42918  0.23936  0.88364  1.0000
  H   H37       1.0  0.12308  0.07491  0.88181  1.0000
  H   H38       1.0  0.62309  0.92508  0.11819  1.0000
  H   H39       1.0  0.96449  0.16872  0.90178  1.0000
  H   H40       1.0  0.46450  0.83128  0.09822  1.0000
  H   H41       1.0  0.20179  0.40368  0.04332  1.0000
  H   H42       1.0  0.70180  0.59632  0.95669  1.0000
  H   H43       1.0  0.13148  0.26571  0.00608  1.0000
  H   H44       1.0  0.63148  0.73428  0.99392  1.0000
  H   H45       1.0  0.51319  0.29768  0.09391  1.0000
  H   H46       1.0  0.01319  0.70231  0.90609  1.0000
  H   H47       1.0  0.48664  0.43651  0.07328  1.0000
  H   H48       1.0  0.98664  0.56349  0.92672  1.0000
  C   C1        1.0  0.76567  0.14516  0.18157  1.0000
  C   C2        1.0  0.26567  0.85484  0.81844  1.0000
  C   C3        1.0  0.70552  0.23789  0.26145  1.0000
  C   C4        1.0  0.20552  0.76212  0.73855  1.0000
  C   C5        1.0  0.68759  0.21053  0.34938  1.0000
  C   C6        1.0  0.18758  0.78948  0.65062  1.0000
  C   C7        1.0  0.64473  0.30078  0.43371  1.0000
  C   C8        1.0  0.14472  0.69923  0.56630  1.0000
  C   C9        1.0  0.69326  0.27669  0.52323  1.0000
  C   C10       1.0  0.19326  0.72332  0.47677  1.0000
  C   C11       1.0  0.56121  0.41294  0.42930  1.0000
  C   C12       1.0  0.06120  0.58707  0.57070  1.0000
  C   C13       1.0  0.53204  0.49864  0.51234  1.0000
  C   C14       1.0  0.03203  0.50137  0.48766  1.0000
  C   C15       1.0  0.58789  0.47629  0.60039  1.0000
  C   C16       1.0  0.08789  0.52372  0.39961  1.0000
  C   C17       1.0  0.66939  0.36391  0.60687  1.0000
  C   C18       1.0  0.16939  0.63609  0.39314  1.0000
  C   C19       1.0  0.72736  0.33291  0.69655  1.0000
  C   C20       1.0  0.22735  0.66709  0.30345  1.0000
  C   C21       1.0  0.75096  0.41288  0.77887  1.0000
  C   C22       1.0  0.25096  0.58711  0.22113  1.0000
  C   C23       1.0  0.80430  0.36942  0.86627  1.0000
  C   C24       1.0  0.30430  0.63058  0.13373  1.0000
  C   C25       1.0  0.80596  0.61277  0.21181  1.0000
  C   C26       1.0  0.30595  0.38723  0.78819  1.0000
  C   C27       1.0  0.74768  0.71808  0.28386  1.0000
  C   C28       1.0  0.24768  0.28192  0.71614  1.0000
  C   C29       1.0  0.71967  0.70847  0.37567  1.0000
  C   C30       1.0  0.21968  0.29153  0.62432  1.0000
  C   C31       1.0  0.64927  0.80635  0.44767  1.0000
  C   C32       1.0  0.14927  0.19365  0.55232  1.0000
  C   C33       1.0  0.67303  0.80428  0.54514  1.0000
  C   C34       1.0  0.17303  0.19572  0.45486  1.0000
  C   C35       1.0  0.55811  0.90528  0.42113  1.0000
  C   C36       1.0  0.05812  0.09472  0.57886  1.0000
  C   C37       1.0  0.49396  0.99871  0.49027  1.0000
  C   C38       1.0  0.99395  0.00129  0.50972  1.0000
  C   C39       1.0  0.52114  0.99710  0.58671  1.0000
  C   C40       1.0  0.02114  0.00291  0.41328  1.0000
  C   C41       1.0  0.61329  0.90069  0.61585  1.0000
  C   C42       1.0  0.11329  0.09932  0.38414  1.0000
  C   C43       1.0  0.65021  0.91342  0.71746  1.0000
  C   C44       1.0  0.15022  0.08658  0.28254  1.0000
  C   C45       1.0  0.75549  0.84506  0.76110  1.0000
  C   C46       1.0  0.25550  0.15494  0.23890  1.0000
  C   C47       1.0  0.80394  0.88550  0.86162  1.0000
  C   C48       1.0  0.30395  0.11449  0.13838  1.0000
  O   O1        1.0  0.81392  0.25416  0.86924  1.0000
  O   O2        1.0  0.31393  0.74584  0.13076  1.0000
  O   O3        1.0  0.83579  0.45496  0.93953  1.0000
  O   O4        1.0  0.33579  0.54504  0.06047  1.0000
  O   O5        1.0  0.75716  0.02933  0.18268  1.0000
  O   O6        1.0  0.25716  0.97067  0.81732  1.0000
  O   O7        1.0  0.83727  0.18507  0.11089  1.0000
  O   O8        1.0  0.33728  0.81494  0.88911  1.0000
  O   O9        1.0  0.00085  0.83633  0.11955  1.0000
  O   O10       1.0  0.50085  0.16366  0.88045  1.0000
  O   O11       1.0  0.05712  0.12835  0.93198  1.0000
  O   O12       1.0  0.55712  0.87164  0.06802  1.0000
  O   O13       1.0  0.12876  0.33774  0.05953  1.0000
  O   O14       1.0  0.62875  0.66226  0.94047  1.0000
  O   O15       1.0  0.57068  0.37311  0.08081  1.0000
  O   O16       1.0  0.07067  0.62689  0.91920  1.0000
  O   O17       1.0  0.82762  0.50565  0.23489  1.0000
  O   O18       1.0  0.32761  0.49436  0.76511  1.0000
  O   O19       1.0  0.82808  0.63074  0.12604  1.0000
  O   O20       1.0  0.32807  0.36926  0.87396  1.0000
  O   O21       1.0  0.93793  0.84235  0.89151  1.0000
  O   O22       1.0  0.43794  0.15764  0.10848  1.0000
  O   O23       1.0  0.72370  0.97041  0.91728  1.0000
  O   O24       1.0  0.22371  0.02959  0.08272  1.0000
