data_image0
_chemical_formula_structural       Cu2H40C28N20
_chemical_formula_sum              "Cu2 H40 C28 N20"
_cell_length_a       9.46256
_cell_length_b       9.68945
_cell_length_c       10.277
_cell_angle_alpha    88.6089
_cell_angle_beta     62.5423
_cell_angle_gamma    86.9541

_space_group_name_H-M_alt    "P 1"
_space_group_IT_number       1

loop_
  _space_group_symop_operation_xyz
  'x, y, z'

loop_
  _atom_site_type_symbol
  _atom_site_label
  _atom_site_symmetry_multiplicity
  _atom_site_fract_x
  _atom_site_fract_y
  _atom_site_fract_z
  _atom_site_occupancy
  Cu  Cu1       1.0  0.95485  0.24988  0.08962  1.0000
  Cu  Cu2       1.0  0.04515  0.75012  0.91039  1.0000
  H   H1        1.0  0.28791  0.26092  0.85816  1.0000
  H   H2        1.0  0.14684  0.76140  0.14168  1.0000
  H   H3        1.0  0.71208  0.73908  0.14184  1.0000
  H   H4        1.0  0.85315  0.23860  0.85833  1.0000
  H   H5        1.0  0.43447  0.26116  0.58812  1.0000
  H   H6        1.0  0.02307  0.76092  0.41178  1.0000
  H   H7        1.0  0.56553  0.73884  0.41189  1.0000
  H   H8        1.0  0.97693  0.23908  0.58822  1.0000
  H   H9        1.0  0.51211  0.34606  0.35599  1.0000
  H   H10       1.0  0.86847  0.84596  0.64375  1.0000
  H   H11       1.0  0.48789  0.65394  0.64401  1.0000
  H   H12       1.0  0.13153  0.15404  0.35626  1.0000
  H   H13       1.0  0.50614  0.25253  0.21304  1.0000
  H   H14       1.0  0.71946  0.75255  0.78687  1.0000
  H   H15       1.0  0.49386  0.74747  0.78696  1.0000
  H   H16       1.0  0.28054  0.24746  0.21314  1.0000
  H   H17       1.0  0.52552  0.16185  0.35527  1.0000
  H   H18       1.0  0.88120  0.66179  0.64464  1.0000
  H   H19       1.0  0.47448  0.83815  0.64473  1.0000
  H   H20       1.0  0.11880  0.33821  0.35536  1.0000
  H   H21       1.0  0.84650  0.03648  0.32055  1.0000
  H   H22       1.0  0.16766  0.53654  0.67938  1.0000
  H   H23       1.0  0.15350  0.96352  0.67944  1.0000
  H   H24       1.0  0.83234  0.46346  0.32061  1.0000
  H   H25       1.0  0.70859  0.02515  0.59045  1.0000
  H   H26       1.0  0.29935  0.52517  0.40946  1.0000
  H   H27       1.0  0.29142  0.97485  0.40955  1.0000
  H   H28       1.0  0.70065  0.47483  0.59053  1.0000
  H   H29       1.0  0.49732  0.06056  0.82226  1.0000
  H   H30       1.0  0.31979  0.56074  0.17754  1.0000
  H   H31       1.0  0.50268  0.93944  0.17773  1.0000
  H   H32       1.0  0.68021  0.43926  0.82246  1.0000
  H   H33       1.0  0.51718  0.14134  0.96613  1.0000
  H   H34       1.0  0.48371  0.64148  0.03376  1.0000
  H   H35       1.0  0.48282  0.85866  0.03387  1.0000
  H   H36       1.0  0.51629  0.35852  0.96623  1.0000
  H   H37       1.0  0.68596  0.05448  0.82400  1.0000
  H   H38       1.0  0.51012  0.55450  0.17578  1.0000
  H   H39       1.0  0.31404  0.94552  0.17600  1.0000
  H   H40       1.0  0.48988  0.44550  0.82421  1.0000
  C   C1        1.0  0.22450  0.25570  0.79307  1.0000
  C   C2        1.0  0.01824  0.75619  0.20678  1.0000
  C   C3        1.0  0.77550  0.74430  0.20693  1.0000
  C   C4        1.0  0.98176  0.24381  0.79322  1.0000
  C   C5        1.0  0.30563  0.25589  0.64190  1.0000
  C   C6        1.0  0.94805  0.75603  0.35797  1.0000
  C   C7        1.0  0.69438  0.74411  0.35810  1.0000
  C   C8        1.0  0.05194  0.24397  0.64204  1.0000
  C   C9        1.0  0.22001  0.24998  0.55954  1.0000
  C   C10       1.0  0.77998  0.75003  0.44047  1.0000
  C   C11       1.0  0.46745  0.25299  0.33088  1.0000
  C   C12       1.0  0.79868  0.75289  0.66901  1.0000
  C   C13       1.0  0.53254  0.74701  0.66912  1.0000
  C   C14       1.0  0.20132  0.24712  0.33100  1.0000
  C   C15       1.0  0.81035  0.13079  0.38568  1.0000
  C   C16       1.0  0.19644  0.63088  0.61432  1.0000
  C   C17       1.0  0.18966  0.86921  0.61431  1.0000
  C   C18       1.0  0.80357  0.36911  0.38567  1.0000
  C   C19       1.0  0.73392  0.12551  0.53721  1.0000
  C   C20       1.0  0.27140  0.62553  0.46277  1.0000
  C   C21       1.0  0.26608  0.87449  0.46278  1.0000
  C   C22       1.0  0.72861  0.37447  0.53723  1.0000
  C   C23       1.0  0.68999  0.24999  0.61978  1.0000
  C   C24       1.0  0.31001  0.75001  0.38021  1.0000
  C   C25       1.0  0.57747  0.11947  0.84847  1.0000
  C   C26       1.0  0.42617  0.61957  0.15139  1.0000
  C   C27       1.0  0.42253  0.88053  0.15153  1.0000
  C   C28       1.0  0.57384  0.38043  0.84860  1.0000
  N   N1        1.0  0.11067  0.09885  0.09642  1.0000
  N   N2        1.0  0.20730  0.59863  0.90341  1.0000
  N   N3        1.0  0.88932  0.90115  0.90360  1.0000
  N   N4        1.0  0.79270  0.40136  0.09660  1.0000
  N   N5        1.0  0.17412  0.01538  0.99994  1.0000
  N   N6        1.0  0.17417  0.51529  0.99995  1.0000
  N   N7        1.0  0.82588  0.98462  0.00005  1.0000
  N   N8        1.0  0.82584  0.48472  0.00004  1.0000
  N   N9        1.0  0.23982  0.93150  0.90767  1.0000
  N   N10       1.0  0.14758  0.43147  0.09224  1.0000
  N   N11       1.0  0.76017  0.06851  0.09233  1.0000
  N   N12       1.0  0.85243  0.56851  0.90777  1.0000
  N   N13       1.0  0.06443  0.24964  0.87054  1.0000
  N   N14       1.0  0.93558  0.75036  0.12946  1.0000
  N   N15       1.0  0.29438  0.25014  0.41087  1.0000
  N   N16       1.0  0.70561  0.74986  0.58913  1.0000
  N   N17       1.0  0.84522  0.24994  0.30910  1.0000
  N   N18       1.0  0.15479  0.75006  0.69089  1.0000
  N   N19       1.0  0.61554  0.24997  0.76874  1.0000
  N   N20       1.0  0.38447  0.75003  0.23125  1.0000
