data_image0
_chemical_formula_structural       Cu2H36C36S4N4Cl2
_chemical_formula_sum              "Cu2 H36 C36 S4 N4 Cl2"
_cell_length_a       6.36243
_cell_length_b       12.1166
_cell_length_c       12.5723
_cell_angle_alpha    111.124
_cell_angle_beta     92.6866
_cell_angle_gamma    100.81

_space_group_name_H-M_alt    "P 1"
_space_group_IT_number       1

loop_
  _space_group_symop_operation_xyz
  'x, y, z'

loop_
  _atom_site_type_symbol
  _atom_site_label
  _atom_site_symmetry_multiplicity
  _atom_site_fract_x
  _atom_site_fract_y
  _atom_site_fract_z
  _atom_site_occupancy
  Cu  Cu1       1.0  0.39793  0.40159  0.13279  1.0000
  Cu  Cu2       1.0  0.60205  0.59841  0.86722  1.0000
  H   H1        1.0  0.92131  0.06067  0.00495  1.0000
  H   H2        1.0  0.07869  0.93932  0.99506  1.0000
  H   H3        1.0  0.63914  0.05653  0.98949  1.0000
  H   H4        1.0  0.36085  0.94347  0.01051  1.0000
  H   H5        1.0  0.64259  0.11016  0.19241  1.0000
  H   H6        1.0  0.35739  0.88986  0.80759  1.0000
  H   H7        1.0  0.92826  0.11771  0.20723  1.0000
  H   H8        1.0  0.07171  0.88230  0.79278  1.0000
  H   H9        1.0  0.05887  0.20720  0.90441  1.0000
  H   H10       1.0  0.94114  0.79280  0.09560  1.0000
  H   H11       1.0  0.92968  0.33060  0.92758  1.0000
  H   H12       1.0  0.07035  0.66940  0.07242  1.0000
  H   H13       1.0  0.50523  0.27143  0.87505  1.0000
  H   H14       1.0  0.49481  0.72856  0.12494  1.0000
  H   H15       1.0  0.22430  0.14393  0.70998  1.0000
  H   H16       1.0  0.77571  0.85607  0.29000  1.0000
  H   H17       1.0  0.29120  0.95678  0.56254  1.0000
  H   H18       1.0  0.70882  0.04320  0.43746  1.0000
  H   H19       1.0  0.64094  0.89540  0.58084  1.0000
  H   H20       1.0  0.35910  0.10459  0.41918  1.0000
  H   H21       1.0  0.92112  0.02380  0.74496  1.0000
  H   H22       1.0  0.07890  0.97619  0.25506  1.0000
  H   H23       1.0  0.64196  0.32034  0.34050  1.0000
  H   H24       1.0  0.35801  0.67966  0.65950  1.0000
  H   H25       1.0  0.83584  0.44503  0.33713  1.0000
  H   H26       1.0  0.16416  0.55498  0.66287  1.0000
  H   H27       1.0  0.70778  0.26200  0.49534  1.0000
  H   H28       1.0  0.29222  0.73800  0.50466  1.0000
  H   H29       1.0  0.95512  0.24465  0.64446  1.0000
  H   H30       1.0  0.04487  0.75535  0.35553  1.0000
  H   H31       1.0  0.35362  0.31175  0.65142  1.0000
  H   H32       1.0  0.64636  0.68825  0.34858  1.0000
  H   H33       1.0  0.49867  0.39712  0.51086  1.0000
  H   H34       1.0  0.50132  0.60289  0.48914  1.0000
  H   H35       1.0  0.24939  0.40914  0.35834  1.0000
  H   H36       1.0  0.75060  0.59090  0.64168  1.0000
  C   C1        1.0  0.86565  0.31770  0.12668  1.0000
  C   C2        1.0  0.13432  0.68229  0.87332  1.0000
  C   C3        1.0  0.79554  0.10961  0.03858  1.0000
  C   C4        1.0  0.20446  0.89039  0.96144  1.0000
  C   C5        1.0  0.79820  0.14508  0.16908  1.0000
  C   C6        1.0  0.20179  0.85493  0.83092  1.0000
  C   C7        1.0  0.91402  0.44741  0.14240  1.0000
  C   C8        1.0  0.08596  0.55260  0.85759  1.0000
  C   C9        1.0  0.90406  0.23523  0.91833  1.0000
  C   C10       1.0  0.09595  0.76476  0.08167  1.0000
  C   C11       1.0  0.73295  0.15685  0.81919  1.0000
  C   C12       1.0  0.26707  0.84315  0.18080  1.0000
  C   C13       1.0  0.53493  0.18950  0.80976  1.0000
  C   C14       1.0  0.46512  0.81049  0.19022  1.0000
  C   C15       1.0  0.37694  0.11737  0.71786  1.0000
  C   C16       1.0  0.62307  0.88262  0.28212  1.0000
  C   C17       1.0  0.41442  0.01199  0.63477  1.0000
  C   C18       1.0  0.58559  0.98802  0.36523  1.0000
  C   C19       1.0  0.60994  0.97787  0.64457  1.0000
  C   C20       1.0  0.39009  0.02212  0.35545  1.0000
  C   C21       1.0  0.76826  0.05034  0.73668  1.0000
  C   C22       1.0  0.23176  0.94965  0.26332  1.0000
  C   C23       1.0  0.81098  0.34994  0.32893  1.0000
  C   C24       1.0  0.18900  0.65006  0.67106  1.0000
  C   C25       1.0  0.96239  0.33722  0.41792  1.0000
  C   C26       1.0  0.03759  0.66278  0.58208  1.0000
  C   C27       1.0  0.88175  0.29070  0.49838  1.0000
  C   C28       1.0  0.11824  0.70931  0.50161  1.0000
  C   C29       1.0  0.02122  0.28048  0.58198  1.0000
  C   C30       1.0  0.97877  0.71951  0.41801  1.0000
  C   C31       1.0  0.24376  0.31803  0.58582  1.0000
  C   C32       1.0  0.75623  0.68196  0.41417  1.0000
  C   C33       1.0  0.32523  0.36523  0.50594  1.0000
  C   C34       1.0  0.67475  0.63478  0.49406  1.0000
  C   C35       1.0  0.18591  0.37392  0.42180  1.0000
  C   C36       1.0  0.81408  0.62607  0.57819  1.0000
  S   S1        1.0  0.70803  0.50883  0.11856  1.0000
  S   S2        1.0  0.29197  0.49117  0.88143  1.0000
  S   S3        1.0  0.17286  0.52476  0.18410  1.0000
  S   S4        1.0  0.82713  0.47525  0.81590  1.0000
  N   N1        1.0  0.84358  0.22708  0.02562  1.0000
  N   N2        1.0  0.15643  0.77292  0.97438  1.0000
  N   N3        1.0  0.84070  0.27849  0.21239  1.0000
  N   N4        1.0  0.15929  0.72151  0.78762  1.0000
  Cl  Cl1       1.0  0.32753  0.20906  0.10998  1.0000
  Cl  Cl2       1.0  0.67248  0.79093  0.89003  1.0000
