data_image0
_chemical_formula_structural       Cu2H36C36S4Br2N4
_chemical_formula_sum              "Cu2 H36 C36 S4 Br2 N4"
_cell_length_a       6.47235
_cell_length_b       12.0469
_cell_length_c       12.6855
_cell_angle_alpha    111.282
_cell_angle_beta     94.254
_cell_angle_gamma    100.504

_space_group_name_H-M_alt    "P 1"
_space_group_IT_number       1

loop_
  _space_group_symop_operation_xyz
  'x, y, z'

loop_
  _atom_site_type_symbol
  _atom_site_label
  _atom_site_symmetry_multiplicity
  _atom_site_fract_x
  _atom_site_fract_y
  _atom_site_fract_z
  _atom_site_occupancy
  Cu  Cu1       1.0  0.40394  0.41463  0.13855  1.0000
  Cu  Cu2       1.0  0.59606  0.58536  0.86144  1.0000
  H   H1        1.0  0.91470  0.06240  0.00972  1.0000
  H   H2        1.0  0.08531  0.93759  0.99028  1.0000
  H   H3        1.0  0.63740  0.06099  0.99831  1.0000
  H   H4        1.0  0.36261  0.93901  0.00168  1.0000
  H   H5        1.0  0.66186  0.11744  0.20078  1.0000
  H   H6        1.0  0.33814  0.88255  0.79922  1.0000
  H   H7        1.0  0.94350  0.12518  0.21202  1.0000
  H   H8        1.0  0.05651  0.87482  0.78798  1.0000
  H   H9        1.0  0.03824  0.20476  0.90623  1.0000
  H   H10       1.0  0.96177  0.79522  0.09376  1.0000
  H   H11       1.0  0.91961  0.33238  0.93192  1.0000
  H   H12       1.0  0.08042  0.66761  0.06808  1.0000
  H   H13       1.0  0.49110  0.27360  0.89006  1.0000
  H   H14       1.0  0.50895  0.72642  0.10996  1.0000
  H   H15       1.0  0.20219  0.15041  0.72682  1.0000
  H   H16       1.0  0.79780  0.84963  0.27323  1.0000
  H   H17       1.0  0.25762  0.96569  0.57051  1.0000
  H   H18       1.0  0.74232  0.03432  0.42953  1.0000
  H   H19       1.0  0.60342  0.90284  0.57993  1.0000
  H   H20       1.0  0.39649  0.09715  0.42009  1.0000
  H   H21       1.0  0.89134  0.02668  0.74325  1.0000
  H   H22       1.0  0.10860  0.97331  0.25674  1.0000
  H   H23       1.0  0.66748  0.33507  0.34583  1.0000
  H   H24       1.0  0.33253  0.66493  0.65417  1.0000
  H   H25       1.0  0.86792  0.45608  0.34315  1.0000
  H   H26       1.0  0.13208  0.54393  0.65685  1.0000
  H   H27       1.0  0.72793  0.26457  0.49151  1.0000
  H   H28       1.0  0.27209  0.73542  0.50848  1.0000
  H   H29       1.0  0.96818  0.23816  0.63828  1.0000
  H   H30       1.0  0.03185  0.76182  0.36170  1.0000
  H   H31       1.0  0.36169  0.30103  0.65039  1.0000
  H   H32       1.0  0.63834  0.69895  0.34959  1.0000
  H   H33       1.0  0.50999  0.39090  0.51654  1.0000
  H   H34       1.0  0.49003  0.60909  0.48344  1.0000
  H   H35       1.0  0.26754  0.41209  0.36633  1.0000
  H   H36       1.0  0.73246  0.58791  0.63366  1.0000
  C   C1        1.0  0.87033  0.32371  0.13122  1.0000
  C   C2        1.0  0.12967  0.67629  0.86878  1.0000
  C   C3        1.0  0.79547  0.11356  0.04498  1.0000
  C   C4        1.0  0.20454  0.88644  0.95502  1.0000
  C   C5        1.0  0.81088  0.15168  0.17525  1.0000
  C   C6        1.0  0.18913  0.84832  0.82475  1.0000
  C   C7        1.0  0.91726  0.45393  0.14588  1.0000
  C   C8        1.0  0.08274  0.54607  0.85411  1.0000
  C   C9        1.0  0.88980  0.23632  0.92279  1.0000
  C   C10       1.0  0.11022  0.76367  0.07720  1.0000
  C   C11       1.0  0.71174  0.15946  0.82570  1.0000
  C   C12       1.0  0.28825  0.84055  0.17431  1.0000
  C   C13       1.0  0.51577  0.19287  0.82142  1.0000
  C   C14       1.0  0.48425  0.80715  0.17859  1.0000
  C   C15       1.0  0.35336  0.12309  0.73011  1.0000
  C   C16       1.0  0.64663  0.87693  0.26992  1.0000
  C   C17       1.0  0.38439  0.01940  0.64224  1.0000
  C   C18       1.0  0.61556  0.98062  0.35779  1.0000
  C   C19       1.0  0.57796  0.98448  0.64699  1.0000
  C   C20       1.0  0.42198  0.01552  0.35303  1.0000
  C   C21       1.0  0.74050  0.05440  0.73870  1.0000
  C   C22       1.0  0.25946  0.94559  0.26130  1.0000
  C   C23       1.0  0.83412  0.35994  0.33384  1.0000
  C   C24       1.0  0.16588  0.64006  0.66615  1.0000
  C   C25       1.0  0.98203  0.34162  0.42082  1.0000
  C   C26       1.0  0.01798  0.65838  0.57918  1.0000
  C   C27       1.0  0.89985  0.29178  0.49692  1.0000
  C   C28       1.0  0.10016  0.70822  0.50307  1.0000
  C   C29       1.0  0.03530  0.27636  0.57910  1.0000
  C   C30       1.0  0.96473  0.72363  0.42089  1.0000
  C   C31       1.0  0.25532  0.31162  0.58580  1.0000
  C   C32       1.0  0.74470  0.68838  0.41418  1.0000
  C   C33       1.0  0.33837  0.36147  0.50988  1.0000
  C   C34       1.0  0.66164  0.63853  0.49012  1.0000
  C   C35       1.0  0.20294  0.37553  0.42717  1.0000
  C   C36       1.0  0.79706  0.62448  0.57282  1.0000
  S   S1        1.0  0.71314  0.51665  0.12375  1.0000
  S   S2        1.0  0.28686  0.48334  0.87624  1.0000
  S   S3        1.0  0.17342  0.53280  0.18530  1.0000
  S   S4        1.0  0.82658  0.46720  0.81469  1.0000
  Br  Br1       1.0  0.33113  0.21026  0.11924  1.0000
  Br  Br2       1.0  0.66888  0.78973  0.88076  1.0000
  N   N1        1.0  0.84130  0.23085  0.03088  1.0000
  N   N2        1.0  0.15872  0.76914  0.96912  1.0000
  N   N3        1.0  0.85330  0.28611  0.21727  1.0000
  N   N4        1.0  0.14670  0.71389  0.78272  1.0000
