data_image0
_chemical_formula_structural       Pr2H42C48N2Cl6O16
_chemical_formula_sum              "Pr2 H42 C48 N2 Cl6 O16"
_cell_length_a       9.50612
_cell_length_b       11.7937
_cell_length_c       14.3433
_cell_angle_alpha    82.36
_cell_angle_beta     78.2521
_cell_angle_gamma    76.5637

_space_group_name_H-M_alt    "P 1"
_space_group_IT_number       1

loop_
  _space_group_symop_operation_xyz
  'x, y, z'

loop_
  _atom_site_type_symbol
  _atom_site_label
  _atom_site_symmetry_multiplicity
  _atom_site_fract_x
  _atom_site_fract_y
  _atom_site_fract_z
  _atom_site_occupancy
  Pr  Pr1       1.0  0.29388  0.44875  0.49747  1.0000
  Pr  Pr2       1.0  0.70612  0.55126  0.50252  1.0000
  H   H1        1.0  0.91545  0.59523  0.19658  1.0000
  H   H2        1.0  0.08455  0.40477  0.80342  1.0000
  H   H3        1.0  0.02307  0.61067  0.02253  1.0000
  H   H4        1.0  0.97692  0.38932  0.97747  1.0000
  H   H5        1.0  0.43018  0.38999  0.08281  1.0000
  H   H6        1.0  0.56980  0.61001  0.91719  1.0000
  H   H7        1.0  0.32334  0.37823  0.25736  1.0000
  H   H8        1.0  0.67665  0.62178  0.74264  1.0000
  H   H9        1.0  0.70700  0.34383  0.79660  1.0000
  H   H10       1.0  0.29300  0.65617  0.20340  1.0000
  H   H11       1.0  0.68297  0.24366  0.96221  1.0000
  H   H12       1.0  0.31704  0.75634  0.03779  1.0000
  H   H13       1.0  0.29294  0.14218  0.92351  1.0000
  H   H14       1.0  0.70707  0.85781  0.07648  1.0000
  H   H15       1.0  0.32023  0.24186  0.75700  1.0000
  H   H16       1.0  0.67978  0.75814  0.24300  1.0000
  H   H17       1.0  0.55777  0.20193  0.24928  1.0000
  H   H18       1.0  0.44223  0.79806  0.75071  1.0000
  H   H19       1.0  0.73203  0.12007  0.10715  1.0000
  H   H20       1.0  0.26798  0.87993  0.89285  1.0000
  H   H21       1.0  0.07101  0.26534  0.17654  1.0000
  H   H22       1.0  0.92899  0.73466  0.82347  1.0000
  H   H23       1.0  0.89438  0.34624  0.31828  1.0000
  H   H24       1.0  0.10560  0.65376  0.68173  1.0000
  H   H25       1.0  0.15852  0.69074  0.50640  1.0000
  H   H26       1.0  0.84148  0.30926  0.49360  1.0000
  H   H27       1.0  0.01452  0.64190  0.51451  1.0000
  H   H28       1.0  0.98548  0.35811  0.48549  1.0000
  H   H29       1.0  0.10503  0.28276  0.67735  1.0000
  H   H30       1.0  0.89496  0.71724  0.32265  1.0000
  H   H31       1.0  0.90235  0.08809  0.71563  1.0000
  H   H32       1.0  0.09766  0.91190  0.28437  1.0000
  H   H33       1.0  0.97794  0.17821  0.77361  1.0000
  H   H34       1.0  0.02206  0.82178  0.22639  1.0000
  H   H35       1.0  0.04747  0.02333  0.78039  1.0000
  H   H36       1.0  0.95253  0.97667  0.21961  1.0000
  H   H37       1.0  0.17777  0.93771  0.62741  1.0000
  H   H38       1.0  0.82225  0.06229  0.37259  1.0000
  H   H39       1.0  0.26396  0.03418  0.53797  1.0000
  H   H40       1.0  0.73606  0.96582  0.46203  1.0000
  H   H41       1.0  0.07815  0.02527  0.54046  1.0000
  H   H42       1.0  0.92187  0.97473  0.45953  1.0000
  C   C1        1.0  0.04645  0.47887  0.34138  1.0000
  C   C2        1.0  0.95354  0.52114  0.65862  1.0000
  C   C3        1.0  0.11333  0.48731  0.23777  1.0000
  C   C4        1.0  0.88666  0.51269  0.76223  1.0000
  C   C5        1.0  0.02907  0.55258  0.17139  1.0000
  C   C6        1.0  0.97091  0.44742  0.82861  1.0000
  C   C7        1.0  0.08802  0.56037  0.07428  1.0000
  C   C8        1.0  0.91197  0.43963  0.92572  1.0000
  C   C9        1.0  0.23248  0.50119  0.04357  1.0000
  C   C10       1.0  0.76751  0.49881  0.95642  1.0000
  C   C11       1.0  0.31791  0.43477  0.10842  1.0000
  C   C12       1.0  0.68208  0.56522  0.89158  1.0000
  C   C13       1.0  0.25795  0.42835  0.20555  1.0000
  C   C14       1.0  0.74205  0.57165  0.79445  1.0000
  C   C15       1.0  0.52076  0.36700  0.67048  1.0000
  C   C16       1.0  0.47924  0.63300  0.32952  1.0000
  C   C17       1.0  0.51415  0.29983  0.76726  1.0000
  C   C18       1.0  0.48584  0.70018  0.23274  1.0000
  C   C19       1.0  0.61748  0.29851  0.82465  1.0000
  C   C20       1.0  0.38253  0.70149  0.17535  1.0000
  C   C21       1.0  0.60384  0.24298  0.91716  1.0000
  C   C22       1.0  0.39617  0.75702  0.08284  1.0000
  C   C23       1.0  0.48511  0.18881  0.95192  1.0000
  C   C24       1.0  0.51490  0.81119  0.04808  1.0000
  C   C25       1.0  0.38330  0.18615  0.89486  1.0000
  C   C26       1.0  0.61671  0.81385  0.10514  1.0000
  C   C27       1.0  0.39877  0.24153  0.80275  1.0000
  C   C28       1.0  0.60124  0.75847  0.19726  1.0000
  C   C29       1.0  0.61039  0.33053  0.37709  1.0000
  C   C30       1.0  0.38960  0.66947  0.62291  1.0000
  C   C31       1.0  0.71614  0.27857  0.29305  1.0000
  C   C32       1.0  0.28385  0.72142  0.70694  1.0000
  C   C33       1.0  0.67029  0.21498  0.23312  1.0000
  C   C34       1.0  0.32970  0.78502  0.76687  1.0000
  C   C35       1.0  0.76729  0.16933  0.15387  1.0000
  C   C36       1.0  0.23271  0.83066  0.84614  1.0000
  C   C37       1.0  0.91055  0.18839  0.13432  1.0000
  C   C38       1.0  0.08945  0.81161  0.86569  1.0000
  C   C39       1.0  0.95919  0.25081  0.19304  1.0000
  C   C40       1.0  0.04080  0.74919  0.80696  1.0000
  C   C41       1.0  0.86078  0.29528  0.27227  1.0000
  C   C42       1.0  0.13921  0.70472  0.72774  1.0000
  C   C43       1.0  0.15124  0.21922  0.62347  1.0000
  C   C44       1.0  0.84876  0.78078  0.37653  1.0000
  C   C45       1.0  0.00433  0.10010  0.73431  1.0000
  C   C46       1.0  0.99567  0.89990  0.26569  1.0000
  C   C47       1.0  0.16098  0.02263  0.58491  1.0000
  C   C48       1.0  0.83904  0.97737  0.41509  1.0000
  N   N1        1.0  0.11253  0.11564  0.64865  1.0000
  N   N2        1.0  0.88748  0.88436  0.35136  1.0000
  Cl  Cl1       1.0  0.30596  0.51062  0.92288  1.0000
  Cl  Cl2       1.0  0.69403  0.48937  0.07711  1.0000
  Cl  Cl3       1.0  0.46007  0.12389  0.06841  1.0000
  Cl  Cl4       1.0  0.53995  0.87609  0.93159  1.0000
  Cl  Cl5       1.0  0.02994  0.13221  0.03474  1.0000
  Cl  Cl6       1.0  0.97008  0.86779  0.96526  1.0000
  O   O1        1.0  0.91345  0.53058  0.36574  1.0000
  O   O2        1.0  0.08655  0.46943  0.63426  1.0000
  O   O3        1.0  0.12357  0.41615  0.40086  1.0000
  O   O4        1.0  0.87642  0.58386  0.59914  1.0000
  O   O5        1.0  0.61498  0.43095  0.64518  1.0000
  O   O6        1.0  0.38501  0.56905  0.35482  1.0000
  O   O7        1.0  0.42837  0.35640  0.62088  1.0000
  O   O8        1.0  0.57162  0.64360  0.37911  1.0000
  O   O9        1.0  0.65690  0.38743  0.43041  1.0000
  O   O10       1.0  0.34308  0.61257  0.56960  1.0000
  O   O11       1.0  0.47945  0.31615  0.39067  1.0000
  O   O12       1.0  0.52053  0.68385  0.60932  1.0000
  O   O13       1.0  0.10823  0.65135  0.47153  1.0000
  O   O14       1.0  0.89177  0.34866  0.52846  1.0000
  O   O15       1.0  0.23142  0.24494  0.54670  1.0000
  O   O16       1.0  0.76858  0.75507  0.45330  1.0000
