data_image0
_chemical_formula_structural       Tb2H42C56O24
_chemical_formula_sum              "Tb2 H42 C56 O24"
_cell_length_a       9.1556
_cell_length_b       14.0476
_cell_length_c       16.2582
_cell_angle_alpha    85.2182
_cell_angle_beta     77.4633
_cell_angle_gamma    72.5347

_space_group_name_H-M_alt    "P 1"
_space_group_IT_number       1

loop_
  _space_group_symop_operation_xyz
  'x, y, z'

loop_
  _atom_site_type_symbol
  _atom_site_label
  _atom_site_symmetry_multiplicity
  _atom_site_fract_x
  _atom_site_fract_y
  _atom_site_fract_z
  _atom_site_occupancy
  Tb  Tb1       1.0  0.22464  0.53079  0.49758  1.0000
  Tb  Tb2       1.0  0.77536  0.46921  0.50241  1.0000
  H   H1        1.0  0.23495  0.72638  0.51440  1.0000
  H   H2        1.0  0.76505  0.27362  0.48560  1.0000
  H   H3        1.0  0.39980  0.67666  0.45834  1.0000
  H   H4        1.0  0.60020  0.32334  0.54166  1.0000
  H   H5        1.0  0.09738  0.68824  0.37903  1.0000
  H   H6        1.0  0.90262  0.31176  0.62096  1.0000
  H   H7        1.0  0.99369  0.61234  0.38027  1.0000
  H   H8        1.0  0.00631  0.38766  0.61973  1.0000
  H   H9        1.0  0.60227  0.53364  0.76608  1.0000
  H   H10       1.0  0.39774  0.46635  0.23392  1.0000
  H   H11       1.0  0.14842  0.65867  0.70577  1.0000
  H   H12       1.0  0.85159  0.34134  0.29423  1.0000
  H   H13       1.0  0.12855  0.29454  0.74429  1.0000
  H   H14       1.0  0.87144  0.70546  0.25571  1.0000
  H   H15       1.0  0.51748  0.18231  0.54079  1.0000
  H   H16       1.0  0.48252  0.81769  0.45922  1.0000
  H   H17       1.0  0.49865  0.60660  0.91134  1.0000
  H   H18       1.0  0.50136  0.39339  0.08866  1.0000
  H   H19       1.0  0.04518  0.73575  0.84939  1.0000
  H   H20       1.0  0.95483  0.26425  0.15061  1.0000
  H   H21       1.0  0.17467  0.12270  0.80985  1.0000
  H   H22       1.0  0.82532  0.87730  0.19015  1.0000
  H   H23       1.0  0.56175  0.01206  0.60415  1.0000
  H   H24       1.0  0.43825  0.98795  0.39586  1.0000
  H   H25       1.0  0.34652  0.83192  0.86329  1.0000
  H   H26       1.0  0.65348  0.16808  0.13671  1.0000
  H   H27       1.0  0.07520  0.79566  0.10941  1.0000
  H   H28       1.0  0.92481  0.20433  0.89059  1.0000
  H   H29       1.0  0.67688  0.91836  0.77457  1.0000
  H   H30       1.0  0.32312  0.08164  0.22543  1.0000
  H   H31       1.0  0.36535  0.83779  0.64765  1.0000
  H   H32       1.0  0.63465  0.16221  0.35235  1.0000
  H   H33       1.0  0.35039  0.99723  0.90252  1.0000
  H   H34       1.0  0.64961  0.00277  0.09748  1.0000
  H   H35       1.0  0.07595  0.96501  0.14839  1.0000
  H   H36       1.0  0.92405  0.03499  0.85161  1.0000
  H   H37       1.0  0.89902  0.78119  0.70319  1.0000
  H   H38       1.0  0.10097  0.21881  0.29682  1.0000
  H   H39       1.0  0.58876  0.69753  0.57792  1.0000
  H   H40       1.0  0.41124  0.30248  0.42208  1.0000
  H   H41       1.0  0.27681  0.20457  0.01336  1.0000
  H   H42       1.0  0.72319  0.79543  0.98665  1.0000
  C   C1        1.0  0.44134  0.55011  0.64172  1.0000
  C   C2        1.0  0.55868  0.44988  0.35828  1.0000
  C   C3        1.0  0.29558  0.34998  0.59770  1.0000
  C   C4        1.0  0.70442  0.65003  0.40229  1.0000
  C   C5        1.0  0.38084  0.59195  0.72824  1.0000
  C   C6        1.0  0.61917  0.40805  0.27175  1.0000
  C   C7        1.0  0.32057  0.24972  0.63826  1.0000
  C   C8        1.0  0.67942  0.75028  0.36175  1.0000
  C   C9        1.0  0.48035  0.57706  0.78557  1.0000
  C   C10       1.0  0.51965  0.42293  0.21443  1.0000
  C   C11       1.0  0.22387  0.64837  0.75132  1.0000
  C   C12       1.0  0.77614  0.35163  0.24868  1.0000
  C   C13       1.0  0.22281  0.23222  0.71386  1.0000
  C   C14       1.0  0.77718  0.76778  0.28614  1.0000
  C   C15       1.0  0.44246  0.16953  0.59981  1.0000
  C   C16       1.0  0.55754  0.83047  0.40020  1.0000
  C   C17       1.0  0.42347  0.61779  0.86563  1.0000
  C   C18       1.0  0.57653  0.38220  0.13437  1.0000
  C   C19       1.0  0.16617  0.69019  0.83086  1.0000
  C   C20       1.0  0.83384  0.30981  0.16914  1.0000
  C   C21       1.0  0.24731  0.13723  0.75041  1.0000
  C   C22       1.0  0.75268  0.86277  0.24959  1.0000
  C   C23       1.0  0.46742  0.07388  0.63491  1.0000
  C   C24       1.0  0.53258  0.92612  0.36510  1.0000
  C   C25       1.0  0.26690  0.67400  0.88713  1.0000
  C   C26       1.0  0.73311  0.32600  0.11287  1.0000
  C   C27       1.0  0.36958  0.05799  0.71058  1.0000
  C   C28       1.0  0.63041  0.94202  0.28943  1.0000
  C   C29       1.0  0.21138  0.80409  0.98472  1.0000
  C   C30       1.0  0.78863  0.19591  0.01528  1.0000
  C   C31       1.0  0.51086  0.88659  0.71230  1.0000
  C   C32       1.0  0.48913  0.11341  0.28770  1.0000
  C   C33       1.0  0.28855  0.86055  0.92582  1.0000
  C   C34       1.0  0.71145  0.13945  0.07417  1.0000
  C   C35       1.0  0.13472  0.84128  0.06521  1.0000
  C   C36       1.0  0.86529  0.15871  0.93479  1.0000
  C   C37       1.0  0.65843  0.87076  0.73058  1.0000
  C   C38       1.0  0.34156  0.12924  0.26942  1.0000
  C   C39       1.0  0.48305  0.82421  0.65901  1.0000
  C   C40       1.0  0.51695  0.17580  0.34098  1.0000
  C   C41       1.0  0.28975  0.95366  0.94810  1.0000
  C   C42       1.0  0.71025  0.04634  0.05190  1.0000
  C   C43       1.0  0.13592  0.93450  0.08652  1.0000
  C   C44       1.0  0.86408  0.06550  0.91348  1.0000
  C   C45       1.0  0.78234  0.79352  0.69092  1.0000
  C   C46       1.0  0.21766  0.20648  0.30909  1.0000
  C   C47       1.0  0.60723  0.74610  0.62091  1.0000
  C   C48       1.0  0.39277  0.25391  0.37909  1.0000
  C   C49       1.0  0.21383  0.99180  0.02822  1.0000
  C   C50       1.0  0.78617  0.00819  0.97178  1.0000
  C   C51       1.0  0.75821  0.73157  0.63492  1.0000
  C   C52       1.0  0.24179  0.26843  0.36508  1.0000
  C   C53       1.0  0.21321  0.09020  0.05309  1.0000
  C   C54       1.0  0.78678  0.90980  0.94691  1.0000
  C   C55       1.0  0.89330  0.65304  0.58848  1.0000
  C   C56       1.0  0.10670  0.34696  0.41152  1.0000
  O   O1        1.0  0.34657  0.56888  0.59194  1.0000
  O   O2        1.0  0.65342  0.43112  0.40805  1.0000
  O   O3        1.0  0.28467  0.69468  0.46022  1.0000
  O   O4        1.0  0.71533  0.30532  0.53978  1.0000
  O   O5        1.0  0.03074  0.65974  0.58311  1.0000
  O   O6        1.0  0.96926  0.34028  0.41688  1.0000
  O   O7        1.0  0.09498  0.61962  0.38914  1.0000
  O   O8        1.0  0.90502  0.38038  0.61086  1.0000
  O   O9        1.0  0.16479  0.41797  0.61832  1.0000
  O   O10       1.0  0.83520  0.58203  0.38169  1.0000
  O   O11       1.0  0.41569  0.50001  0.37828  1.0000
  O   O12       1.0  0.58431  0.49998  0.62171  1.0000
  O   O13       1.0  0.40306  0.36856  0.53938  1.0000
  O   O14       1.0  0.59693  0.63144  0.46062  1.0000
  O   O15       1.0  0.13064  0.41770  0.44617  1.0000
  O   O16       1.0  0.86936  0.58231  0.55383  1.0000
  O   O17       1.0  0.20582  0.71108  0.96876  1.0000
  O   O18       1.0  0.79419  0.28891  0.03124  1.0000
  O   O19       1.0  0.38611  0.96577  0.74941  1.0000
  O   O20       1.0  0.61387  0.03423  0.25060  1.0000
  O   O21       1.0  0.15810  0.12538  0.12384  1.0000
  O   O22       1.0  0.84189  0.87461  0.87616  1.0000
  O   O23       1.0  0.28143  0.14203  0.98905  1.0000
  O   O24       1.0  0.71858  0.85797  0.01096  1.0000
