data_image0
_chemical_formula_structural       Cu4H60C44N8O16
_chemical_formula_sum              "Cu4 H60 C44 N8 O16"
_cell_length_a       8.76491
_cell_length_b       12.8297
_cell_length_c       13.0543
_cell_angle_alpha    119.426
_cell_angle_beta     92.6506
_cell_angle_gamma    89.9905

_space_group_name_H-M_alt    "P 1"
_space_group_IT_number       1

loop_
  _space_group_symop_operation_xyz
  'x, y, z'

loop_
  _atom_site_type_symbol
  _atom_site_label
  _atom_site_symmetry_multiplicity
  _atom_site_fract_x
  _atom_site_fract_y
  _atom_site_fract_z
  _atom_site_occupancy
  Cu  Cu1       1.0  0.56495  0.97678  0.40346  1.0000
  Cu  Cu2       1.0  0.93515  0.57347  0.59665  1.0000
  Cu  Cu3       1.0  0.43505  0.02323  0.59655  1.0000
  Cu  Cu4       1.0  0.06479  0.42661  0.40345  1.0000
  H   H1        1.0  0.75715  0.11681  0.32742  1.0000
  H   H2        1.0  0.74268  0.78918  0.67288  1.0000
  H   H3        1.0  0.24285  0.88319  0.67258  1.0000
  H   H4        1.0  0.25732  0.21082  0.32712  1.0000
  H   H5        1.0  0.66535  0.67763  0.10754  1.0000
  H   H6        1.0  0.83487  0.57005  0.89276  1.0000
  H   H7        1.0  0.33465  0.32238  0.89246  1.0000
  H   H8        1.0  0.16513  0.42994  0.10724  1.0000
  H   H9        1.0  0.55578  0.69769  0.00090  1.0000
  H   H10       1.0  0.94455  0.69658  0.99946  1.0000
  H   H11       1.0  0.44421  0.30232  0.99910  1.0000
  H   H12       1.0  0.05545  0.30342  0.00054  1.0000
  H   H13       1.0  0.48973  0.75211  0.14586  1.0000
  H   H14       1.0  0.01061  0.60606  0.85450  1.0000
  H   H15       1.0  0.51026  0.24790  0.85414  1.0000
  H   H16       1.0  0.98939  0.39394  0.14549  1.0000
  H   H17       1.0  0.80908  0.18664  0.14903  1.0000
  H   H18       1.0  0.69108  0.03754  0.85119  1.0000
  H   H19       1.0  0.19092  0.81336  0.85097  1.0000
  H   H20       1.0  0.30892  0.96246  0.14881  1.0000
  H   H21       1.0  0.90086  0.06618  0.03100  1.0000
  H   H22       1.0  0.59939  0.03519  0.96929  1.0000
  H   H23       1.0  0.09914  0.93382  0.96900  1.0000
  H   H24       1.0  0.40061  0.96481  0.03071  1.0000
  H   H25       1.0  0.98141  0.13427  0.17775  1.0000
  H   H26       1.0  0.51884  0.95639  0.82254  1.0000
  H   H27       1.0  0.01859  0.86574  0.82225  1.0000
  H   H28       1.0  0.48117  0.04361  0.17746  1.0000
  H   H29       1.0  0.47785  0.36996  0.52781  1.0000
  H   H30       1.0  0.02208  0.84211  0.47212  1.0000
  H   H31       1.0  0.52216  0.63004  0.47220  1.0000
  H   H32       1.0  0.97792  0.15788  0.52787  1.0000
  H   H33       1.0  0.63456  0.38638  0.62314  1.0000
  H   H34       1.0  0.86541  0.76327  0.37675  1.0000
  H   H35       1.0  0.36544  0.61362  0.37687  1.0000
  H   H36       1.0  0.13459  0.23672  0.62325  1.0000
  H   H37       1.0  0.42817  0.71272  0.71775  1.0000
  H   H38       1.0  0.07200  0.99478  0.28199  1.0000
  H   H39       1.0  0.57182  0.28727  0.28224  1.0000
  H   H40       1.0  0.92800  0.00523  0.71800  1.0000
  H   H41       1.0  0.51013  0.58040  0.60739  1.0000
  H   H42       1.0  0.98991  0.97293  0.39238  1.0000
  H   H43       1.0  0.48988  0.41959  0.39261  1.0000
  H   H44       1.0  0.01009  0.02707  0.60763  1.0000
  H   H45       1.0  0.36837  0.61742  0.83309  1.0000
  H   H46       1.0  0.13192  0.78418  0.16686  1.0000
  H   H47       1.0  0.63162  0.38258  0.16692  1.0000
  H   H48       1.0  0.86808  0.21582  0.83313  1.0000
  H   H49       1.0  0.56277  0.59451  0.79760  1.0000
  H   H50       1.0  0.93747  0.79677  0.20220  1.0000
  H   H51       1.0  0.43723  0.40549  0.20241  1.0000
  H   H52       1.0  0.06253  0.20323  0.79780  1.0000
  H   H53       1.0  0.44348  0.41117  0.77817  1.0000
  H   H54       1.0  0.05665  0.63293  0.22184  1.0000
  H   H55       1.0  0.55652  0.58883  0.22184  1.0000
  H   H56       1.0  0.94335  0.36707  0.77815  1.0000
  H   H57       1.0  0.29593  0.41180  0.68283  1.0000
  H   H58       1.0  0.20412  0.72891  0.31724  1.0000
  H   H59       1.0  0.70408  0.58820  0.31717  1.0000
  H   H60       1.0  0.79588  0.27109  0.68275  1.0000
  C   C1        1.0  0.74234  0.89763  0.06380  1.0000
  C   C2        1.0  0.75841  0.83399  0.93664  1.0000
  C   C3        1.0  0.25767  0.10237  0.93621  1.0000
  C   C4        1.0  0.24160  0.16601  0.06336  1.0000
  C   C5        1.0  0.50541  0.22472  0.56125  1.0000
  C   C6        1.0  0.99443  0.66344  0.43871  1.0000
  C   C7        1.0  0.49460  0.77528  0.43874  1.0000
  C   C8        1.0  0.00559  0.33652  0.56125  1.0000
  C   C9        1.0  0.79075  0.01587  0.14232  1.0000
  C   C10       1.0  0.70965  0.87357  0.85805  1.0000
  C   C11       1.0  0.20925  0.98413  0.85768  1.0000
  C   C12       1.0  0.29035  0.12643  0.14195  1.0000
  C   C13       1.0  0.66964  0.85717  0.13367  1.0000
  C   C14       1.0  0.83085  0.72353  0.86674  1.0000
  C   C15       1.0  0.33037  0.14283  0.86633  1.0000
  C   C16       1.0  0.16915  0.27647  0.13326  1.0000
  C   C17       1.0  0.59070  0.73976  0.09480  1.0000
  C   C18       1.0  0.90965  0.64487  0.90556  1.0000
  C   C19       1.0  0.40930  0.26024  0.90521  1.0000
  C   C20       1.0  0.09034  0.35513  0.09443  1.0000
  C   C21       1.0  0.87425  0.10514  0.12356  1.0000
  C   C22       1.0  0.62601  0.98153  0.87674  1.0000
  C   C23       1.0  0.12575  0.89486  0.87645  1.0000
  C   C24       1.0  0.37399  0.01847  0.12327  1.0000
  C   C25       1.0  0.51281  0.35843  0.60336  1.0000
  C   C26       1.0  0.98715  0.75503  0.39657  1.0000
  C   C27       1.0  0.48719  0.64158  0.39664  1.0000
  C   C28       1.0  0.01286  0.24495  0.60341  1.0000
  C   C29       1.0  0.26479  0.57469  0.60611  1.0000
  C   C30       1.0  0.23525  0.96844  0.39376  1.0000
  C   C31       1.0  0.73523  0.42528  0.39385  1.0000
  C   C32       1.0  0.76476  0.03156  0.60622  1.0000
  C   C33       1.0  0.42076  0.61436  0.67117  1.0000
  C   C34       1.0  0.07934  0.94307  0.32864  1.0000
  C   C35       1.0  0.57924  0.38562  0.32881  1.0000
  C   C36       1.0  0.92066  0.05693  0.67135  1.0000
  C   C37       1.0  0.44466  0.56961  0.76032  1.0000
  C   C38       1.0  0.05551  0.80916  0.23956  1.0000
  C   C39       1.0  0.55534  0.43039  0.23968  1.0000
  C   C40       1.0  0.94449  0.19084  0.76044  1.0000
  C   C41       1.0  0.41787  0.43471  0.70897  1.0000
  C   C42       1.0  0.08220  0.72568  0.29102  1.0000
  C   C43       1.0  0.58213  0.56528  0.29103  1.0000
  C   C44       1.0  0.91780  0.27432  0.70897  1.0000
  N   N1        1.0  0.67437  0.94430  0.24666  1.0000
  N   N2        1.0  0.82575  0.69752  0.75368  1.0000
  N   N3        1.0  0.32564  0.05570  0.75334  1.0000
  N   N4        1.0  0.17425  0.30248  0.24632  1.0000
  N   N5        1.0  0.74802  0.03866  0.24974  1.0000
  N   N6        1.0  0.75205  0.78880  0.75060  1.0000
  N   N7        1.0  0.25198  0.96134  0.75025  1.0000
  N   N8        1.0  0.24795  0.21121  0.24939  1.0000
  O   O1        1.0  0.56256  0.15636  0.46247  1.0000
  O   O2        1.0  0.93747  0.69405  0.53762  1.0000
  O   O3        1.0  0.43743  0.84363  0.53753  1.0000
  O   O4        1.0  0.06252  0.30599  0.46238  1.0000
  O   O5        1.0  0.26258  0.49288  0.49868  1.0000
  O   O6        1.0  0.23726  0.99443  0.50132  1.0000
  O   O7        1.0  0.73737  0.50712  0.50132  1.0000
  O   O8        1.0  0.76274  0.00558  0.49868  1.0000
  O   O9        1.0  0.14958  0.62471  0.66587  1.0000
  O   O10       1.0  0.35057  0.95836  0.33402  1.0000
  O   O11       1.0  0.85045  0.37531  0.33417  1.0000
  O   O12       1.0  0.64944  0.04164  0.66597  1.0000
  O   O13       1.0  0.44491  0.19220  0.62806  1.0000
  O   O14       1.0  0.05462  0.56400  0.37188  1.0000
  O   O15       1.0  0.55508  0.80782  0.37195  1.0000
  O   O16       1.0  0.94537  0.43598  0.62814  1.0000
