data_image0
_chemical_formula_structural       Cu4H54C50N8O14
_chemical_formula_sum              "Cu4 H54 C50 N8 O14"
_cell_length_a       11.4351
_cell_length_b       11.4394
_cell_length_c       12.2349
_cell_angle_alpha    114.592
_cell_angle_beta     113.784
_cell_angle_gamma    94.9327

_space_group_name_H-M_alt    "P 1"
_space_group_IT_number       1

loop_
  _space_group_symop_operation_xyz
  'x, y, z'

loop_
  _atom_site_type_symbol
  _atom_site_label
  _atom_site_symmetry_multiplicity
  _atom_site_fract_x
  _atom_site_fract_y
  _atom_site_fract_z
  _atom_site_occupancy
  Cu  Cu1       1.0  0.97291  0.85638  0.88851  1.0000
  Cu  Cu2       1.0  0.02709  0.14361  0.11149  1.0000
  Cu  Cu3       1.0  0.97386  0.86104  0.14715  1.0000
  Cu  Cu4       1.0  0.02614  0.13896  0.85285  1.0000
  H   H1        1.0  0.77124  0.62693  0.52762  1.0000
  H   H2        1.0  0.22875  0.37308  0.47238  1.0000
  H   H3        1.0  0.78943  0.69647  0.42673  1.0000
  H   H4        1.0  0.21055  0.30353  0.57328  1.0000
  H   H5        1.0  0.77903  0.79749  0.57739  1.0000
  H   H6        1.0  0.22096  0.20251  0.42261  1.0000
  H   H7        1.0  0.36960  0.75861  0.71361  1.0000
  H   H8        1.0  0.63038  0.24138  0.28639  1.0000
  H   H9        1.0  0.39770  0.93020  0.82205  1.0000
  H   H10       1.0  0.60229  0.06981  0.17795  1.0000
  H   H11       1.0  0.33819  0.86765  0.64322  1.0000
  H   H12       1.0  0.66180  0.13235  0.35677  1.0000
  H   H13       1.0  0.83657  0.47608  0.31039  1.0000
  H   H14       1.0  0.16343  0.52392  0.68961  1.0000
  H   H15       1.0  0.99460  0.45062  0.34218  1.0000
  H   H16       1.0  0.00540  0.54938  0.65782  1.0000
  H   H17       1.0  0.87457  0.40669  0.17304  1.0000
  H   H18       1.0  0.12543  0.59331  0.82696  1.0000
  H   H19       1.0  0.24939  0.00921  0.50806  1.0000
  H   H20       1.0  0.75060  0.99079  0.49194  1.0000
  H   H21       1.0  0.15736  0.01937  0.59851  1.0000
  H   H22       1.0  0.84264  0.98064  0.40149  1.0000
  H   H23       1.0  0.09512  0.04483  0.45414  1.0000
  H   H24       1.0  0.90488  0.95517  0.54586  1.0000
  H   H25       1.0  0.38952  0.11130  0.26216  1.0000
  H   H26       1.0  0.61048  0.88869  0.73783  1.0000
  H   H27       1.0  0.42635  0.96246  0.17978  1.0000
  H   H28       1.0  0.57365  0.03753  0.82020  1.0000
  H   H29       1.0  0.43889  0.79630  0.27939  1.0000
  H   H30       1.0  0.56112  0.20369  0.72060  1.0000
  H   H31       1.0  0.53775  0.78838  0.49659  1.0000
  H   H32       1.0  0.46226  0.21162  0.50340  1.0000
  H   H33       1.0  0.57315  0.84641  0.16010  1.0000
  H   H34       1.0  0.42686  0.15360  0.83991  1.0000
  H   H35       1.0  0.47242  0.79196  0.98222  1.0000
  H   H36       1.0  0.52759  0.20805  0.01779  1.0000
  H   H37       1.0  0.65969  0.68592  0.23576  1.0000
  H   H38       1.0  0.34031  0.31409  0.76425  1.0000
  H   H39       1.0  0.38914  0.55065  0.81142  1.0000
  H   H40       1.0  0.61087  0.44935  0.18859  1.0000
  H   H41       1.0  0.71481  0.40409  0.72032  1.0000
  H   H42       1.0  0.28520  0.59591  0.27967  1.0000
  H   H43       1.0  0.63495  0.49457  0.80908  1.0000
  H   H44       1.0  0.36507  0.50542  0.19092  1.0000
  H   H45       1.0  0.51075  0.64595  0.72323  1.0000
  H   H46       1.0  0.48925  0.35404  0.27677  1.0000
  H   H47       1.0  0.35473  0.64807  0.51185  1.0000
  H   H48       1.0  0.64528  0.35193  0.48815  1.0000
  H   H49       1.0  0.22213  0.86286  0.89607  1.0000
  H   H50       1.0  0.77785  0.13714  0.10392  1.0000
  H   H51       1.0  0.91673  0.59079  0.10876  1.0000
  H   H52       1.0  0.08328  0.40921  0.89125  1.0000
  H   H53       1.0  0.82264  0.91930  0.99419  1.0000
  H   H54       1.0  0.17736  0.08070  0.00581  1.0000
  C   C1        1.0  0.81864  0.71739  0.53159  1.0000
  C   C2        1.0  0.18135  0.28261  0.46842  1.0000
  C   C3        1.0  0.96746  0.75940  0.61400  1.0000
  C   C4        1.0  0.03253  0.24061  0.38600  1.0000
  C   C5        1.0  0.06676  0.76608  0.57299  1.0000
  C   C6        1.0  0.93323  0.23393  0.42701  1.0000
  C   C7        1.0  0.19044  0.81454  0.69270  1.0000
  C   C8        1.0  0.80956  0.18547  0.30731  1.0000
  C   C9        1.0  0.33091  0.84429  0.71894  1.0000
  C   C10       1.0  0.66908  0.15571  0.28106  1.0000
  C   C11       1.0  0.91588  0.48087  0.28199  1.0000
  C   C12       1.0  0.08412  0.51913  0.71801  1.0000
  C   C13       1.0  0.97164  0.61922  0.31184  1.0000
  C   C14       1.0  0.02836  0.38078  0.68817  1.0000
  C   C15       1.0  0.04277  0.74073  0.43733  1.0000
  C   C16       1.0  0.95722  0.25927  0.56268  1.0000
  C   C17       1.0  0.07524  0.83926  0.40395  1.0000
  C   C18       1.0  0.92477  0.16074  0.59605  1.0000
  C   C19       1.0  0.14845  0.98593  0.49664  1.0000
  C   C20       1.0  0.85155  0.01408  0.50336  1.0000
  C   C21       1.0  0.23024  0.93022  0.15767  1.0000
  C   C22       1.0  0.76976  0.06977  0.84232  1.0000
  C   C23       1.0  0.37996  0.00730  0.24350  1.0000
  C   C24       1.0  0.62005  0.99269  0.75649  1.0000
  C   C25       1.0  0.44446  0.00512  0.37640  1.0000
  C   C26       1.0  0.55555  0.99487  0.62358  1.0000
  C   C27       1.0  0.46618  0.88635  0.37628  1.0000
  C   C28       1.0  0.53382  0.11364  0.62370  1.0000
  C   C29       1.0  0.52110  0.88139  0.49820  1.0000
  C   C30       1.0  0.47891  0.11860  0.50179  1.0000
  C   C31       1.0  0.68428  0.82935  0.05263  1.0000
  C   C32       1.0  0.31572  0.17065  0.94737  1.0000
  C   C33       1.0  0.55719  0.77955  0.05638  1.0000
  C   C34       1.0  0.44281  0.22046  0.94363  1.0000
  C   C35       1.0  0.58921  0.60433  0.13219  1.0000
  C   C36       1.0  0.41079  0.39568  0.86782  1.0000
  C   C37       1.0  0.52753  0.63553  0.02744  1.0000
  C   C38       1.0  0.47248  0.36448  0.97257  1.0000
  C   C39       1.0  0.43801  0.52895  0.89486  1.0000
  C   C40       1.0  0.56199  0.47106  0.10515  1.0000
  C   C41       1.0  0.81050  0.61677  0.84257  1.0000
  C   C42       1.0  0.18950  0.38323  0.15742  1.0000
  C   C43       1.0  0.68254  0.49541  0.74702  1.0000
  C   C44       1.0  0.31746  0.50458  0.25298  1.0000
  C   C45       1.0  0.58711  0.49649  0.61971  1.0000
  C   C46       1.0  0.41289  0.50351  0.38029  1.0000
  C   C47       1.0  0.50447  0.57998  0.62468  1.0000
  C   C48       1.0  0.49553  0.42002  0.37532  1.0000
  C   C49       1.0  0.41887  0.58292  0.50681  1.0000
  C   C50       1.0  0.58113  0.41707  0.49320  1.0000
  N   N1        1.0  0.02861  0.80093  0.74906  1.0000
  N   N2        1.0  0.97138  0.19907  0.25094  1.0000
  N   N3        1.0  0.16188  0.83319  0.79432  1.0000
  N   N4        1.0  0.83812  0.16682  0.20568  1.0000
  N   N5        1.0  0.96447  0.64884  0.21377  1.0000
  N   N6        1.0  0.03553  0.35115  0.78624  1.0000
  N   N7        1.0  0.02621  0.78081  0.26735  1.0000
  N   N8        1.0  0.97380  0.21918  0.73265  1.0000
  O   O1        1.0  0.16505  0.95693  0.22454  1.0000
  O   O2        1.0  0.83495  0.04307  0.77546  1.0000
  O   O3        1.0  0.18137  0.85002  0.03057  1.0000
  O   O4        1.0  0.81862  0.14998  0.96943  1.0000
  O   O5        1.0  0.79405  0.83227  0.14290  1.0000
  O   O6        1.0  0.20596  0.16772  0.85710  1.0000
  O   O7        1.0  0.67237  0.86453  0.96431  1.0000
  O   O8        1.0  0.32763  0.13547  0.03569  1.0000
  O   O9        1.0  0.88566  0.63767  0.96168  1.0000
  O   O10       1.0  0.11435  0.36234  0.03832  1.0000
  O   O11       1.0  0.82927  0.68832  0.78997  1.0000
  O   O12       1.0  0.17072  0.31168  0.21002  1.0000
  O   O13       1.0  0.92429  0.94509  0.03127  1.0000
  O   O14       1.0  0.07571  0.05492  0.96874  1.0000
