data_image0
_chemical_formula_structural       Er2H26C32O24
_chemical_formula_sum              "Er2 H26 C32 O24"
_cell_length_a       7.74544
_cell_length_b       10.1903
_cell_length_c       10.9725
_cell_angle_alpha    88.4663
_cell_angle_beta     80.2606
_cell_angle_gamma    75.5383

_space_group_name_H-M_alt    "P 1"
_space_group_IT_number       1

loop_
  _space_group_symop_operation_xyz
  'x, y, z'

loop_
  _atom_site_type_symbol
  _atom_site_label
  _atom_site_symmetry_multiplicity
  _atom_site_fract_x
  _atom_site_fract_y
  _atom_site_fract_z
  _atom_site_occupancy
  Er  Er1       1.0  0.19066  0.73354  0.92992  1.0000
  Er  Er2       1.0  0.80935  0.26645  0.07008  1.0000
  H   H1        1.0  0.21665  0.32595  0.57348  1.0000
  H   H2        1.0  0.78335  0.67405  0.42652  1.0000
  H   H3        1.0  0.33833  0.53031  0.55362  1.0000
  H   H4        1.0  0.66166  0.46969  0.44638  1.0000
  H   H5        1.0  0.32199  0.66560  0.35947  1.0000
  H   H6        1.0  0.67798  0.33441  0.64054  1.0000
  H   H7        1.0  0.29171  0.09398  0.25128  1.0000
  H   H8        1.0  0.70828  0.90601  0.74871  1.0000
  H   H9        1.0  0.46291  0.76954  0.50254  1.0000
  H   H10       1.0  0.53709  0.23046  0.49746  1.0000
  H   H11       1.0  0.03654  0.12060  0.63252  1.0000
  H   H12       1.0  0.96346  0.87940  0.36748  1.0000
  H   H13       1.0  0.68561  0.66798  0.21412  1.0000
  H   H14       1.0  0.31440  0.33203  0.78587  1.0000
  H   H15       1.0  0.40063  0.95718  0.91199  1.0000
  H   H16       1.0  0.59937  0.04284  0.08802  1.0000
  H   H17       1.0  0.39814  0.88922  0.04287  1.0000
  H   H18       1.0  0.60185  0.11079  0.95713  1.0000
  H   H19       1.0  0.55169  0.63976  0.81927  1.0000
  H   H20       1.0  0.44832  0.36026  0.18073  1.0000
  H   H21       1.0  0.60185  0.58083  0.94550  1.0000
  H   H22       1.0  0.39817  0.41918  0.05450  1.0000
  H   H23       1.0  0.95186  0.92381  0.12496  1.0000
  H   H24       1.0  0.04813  0.07619  0.87504  1.0000
  H   H25       1.0  0.84739  0.91170  0.01815  1.0000
  H   H26       1.0  0.15261  0.08828  0.98186  1.0000
  C   C1        1.0  0.19565  0.61503  0.15985  1.0000
  C   C2        1.0  0.80436  0.38497  0.84015  1.0000
  C   C3        1.0  0.18049  0.54366  0.28002  1.0000
  C   C4        1.0  0.81952  0.45634  0.71998  1.0000
  C   C5        1.0  0.10352  0.43117  0.29329  1.0000
  C   C6        1.0  0.89648  0.56883  0.70671  1.0000
  C   C7        1.0  0.12302  0.35292  0.39915  1.0000
  C   C8        1.0  0.87698  0.64708  0.60085  1.0000
  C   C9        1.0  0.20872  0.38708  0.49108  1.0000
  C   C10       1.0  0.79128  0.61292  0.50892  1.0000
  C   C11       1.0  0.27767  0.50123  0.47922  1.0000
  C   C12       1.0  0.72232  0.49878  0.52078  1.0000
  C   C13       1.0  0.26439  0.57859  0.37326  1.0000
  C   C14       1.0  0.73561  0.42141  0.62674  1.0000
  C   C15       1.0  0.00012  0.39129  0.20188  1.0000
  C   C16       1.0  0.99989  0.60871  0.79812  1.0000
  C   C17       1.0  0.15992  0.12083  0.44043  1.0000
  C   C18       1.0  0.84007  0.87918  0.55957  1.0000
  C   C19       1.0  0.28542  0.05035  0.34318  1.0000
  C   C20       1.0  0.71458  0.94965  0.65682  1.0000
  C   C21       1.0  0.39483  0.92262  0.36463  1.0000
  C   C22       1.0  0.60517  0.07737  0.63537  1.0000
  C   C23       1.0  0.37884  0.86803  0.48357  1.0000
  C   C24       1.0  0.62115  0.13197  0.51643  1.0000
  C   C25       1.0  0.25119  0.93929  0.58002  1.0000
  C   C26       1.0  0.74880  0.06071  0.41999  1.0000
  C   C27       1.0  0.13991  0.06627  0.55846  1.0000
  C   C28       1.0  0.86009  0.93373  0.44154  1.0000
  C   C29       1.0  0.22958  0.87686  0.70498  1.0000
  C   C30       1.0  0.77041  0.12314  0.29503  1.0000
  C   C31       1.0  0.51883  0.84612  0.25770  1.0000
  C   C32       1.0  0.48117  0.15387  0.74231  1.0000
  O   O1        1.0  0.24096  0.72675  0.14940  1.0000
  O   O2        1.0  0.75903  0.27325  0.85060  1.0000
  O   O3        1.0  0.17160  0.55539  0.06386  1.0000
  O   O4        1.0  0.82844  0.44460  0.93613  1.0000
  O   O5        1.0  0.83885  0.45831  0.19662  1.0000
  O   O6        1.0  0.16115  0.54169  0.80338  1.0000
  O   O7        1.0  0.07285  0.28172  0.13956  1.0000
  O   O8        1.0  0.92716  0.71829  0.86044  1.0000
  O   O9        1.0  0.53981  0.89277  0.15212  1.0000
  O   O10       1.0  0.46018  0.10724  0.84787  1.0000
  O   O11       1.0  0.60519  0.72143  0.28504  1.0000
  O   O12       1.0  0.39481  0.27857  0.71496  1.0000
  O   O13       1.0  0.34045  0.76597  0.72552  1.0000
  O   O14       1.0  0.65956  0.23401  0.27447  1.0000
  O   O15       1.0  0.09929  0.93340  0.78966  1.0000
  O   O16       1.0  0.90071  0.06660  0.21034  1.0000
  O   O17       1.0  0.04434  0.24330  0.41645  1.0000
  O   O18       1.0  0.95566  0.75670  0.58355  1.0000
  O   O19       1.0  0.32950  0.91072  0.97371  1.0000
  O   O20       1.0  0.67050  0.08929  0.02630  1.0000
  O   O21       1.0  0.49909  0.62227  0.90357  1.0000
  O   O22       1.0  0.50093  0.37773  0.09643  1.0000
  O   O23       1.0  0.94674  0.86086  0.05859  1.0000
  O   O24       1.0  0.05327  0.13913  0.94141  1.0000
