data_image0
_chemical_formula_structural       Zn2H20C24O10
_chemical_formula_sum              "Zn2 H20 C24 O10"
_cell_length_a       6.41555
_cell_length_b       7.53141
_cell_length_c       11.7677
_cell_angle_alpha    102.818
_cell_angle_beta     90.0007
_cell_angle_gamma    90.001

_space_group_name_H-M_alt    "P 1"
_space_group_IT_number       1

loop_
  _space_group_symop_operation_xyz
  'x, y, z'

loop_
  _atom_site_type_symbol
  _atom_site_label
  _atom_site_symmetry_multiplicity
  _atom_site_fract_x
  _atom_site_fract_y
  _atom_site_fract_z
  _atom_site_occupancy
  Zn  Zn1       1.0  0.15592  0.28243  0.46314  1.0000
  Zn  Zn2       1.0  0.65592  0.71758  0.53685  1.0000
  H   H1        1.0  0.80716  0.08794  0.43647  1.0000
  H   H2        1.0  0.30716  0.91205  0.56353  1.0000
  H   H3        1.0  0.95825  0.02791  0.53608  1.0000
  H   H4        1.0  0.45825  0.97209  0.46393  1.0000
  H   H5        1.0  0.78440  0.47457  0.68768  1.0000
  H   H6        1.0  0.28439  0.52542  0.31230  1.0000
  H   H7        1.0  0.50560  0.18704  0.76215  1.0000
  H   H8        1.0  0.00560  0.81296  0.23784  1.0000
  H   H9        1.0  0.44576  0.18202  0.11904  1.0000
  H   H10       1.0  0.94574  0.81799  0.88097  1.0000
  H   H11       1.0  0.88031  0.15466  0.22567  1.0000
  H   H12       1.0  0.38027  0.84532  0.77432  1.0000
  H   H13       1.0  0.56570  0.14647  0.95034  1.0000
  H   H14       1.0  0.06568  0.85350  0.04966  1.0000
  H   H15       1.0  0.14768  0.28805  0.12889  1.0000
  H   H16       1.0  0.64767  0.71197  0.87112  1.0000
  H   H17       1.0  0.28576  0.38909  0.95490  1.0000
  H   H18       1.0  0.78576  0.61094  0.04511  1.0000
  H   H19       1.0  0.06089  0.37835  0.78266  1.0000
  H   H20       1.0  0.56091  0.62167  0.21734  1.0000
  C   C1        1.0  0.48680  0.38618  0.60479  1.0000
  C   C2        1.0  0.98678  0.61383  0.39520  1.0000
  C   C3        1.0  0.65441  0.38202  0.68882  1.0000
  C   C4        1.0  0.15440  0.61797  0.31117  1.0000
  C   C5        1.0  0.64422  0.27242  0.76503  1.0000
  C   C6        1.0  0.14421  0.72757  0.23497  1.0000
  C   C7        1.0  0.46960  0.13919  0.29408  1.0000
  C   C8        1.0  0.96957  0.86081  0.70593  1.0000
  C   C9        1.0  0.56048  0.15939  0.18251  1.0000
  C   C10       1.0  0.06046  0.84061  0.81750  1.0000
  C   C11       1.0  0.76548  0.16869  0.15953  1.0000
  C   C12       1.0  0.26545  0.83131  0.84047  1.0000
  C   C13       1.0  0.79388  0.26673  0.85720  1.0000
  C   C14       1.0  0.29389  0.73326  0.14280  1.0000
  C   C15       1.0  0.72322  0.20165  0.95310  1.0000
  C   C16       1.0  0.22323  0.79833  0.04690  1.0000
  C   C17       1.0  0.84696  0.21243  0.05288  1.0000
  C   C18       1.0  0.34695  0.78757  0.94712  1.0000
  C   C19       1.0  0.05145  0.27907  0.05148  1.0000
  C   C20       1.0  0.55144  0.72095  0.94852  1.0000
  C   C21       1.0  0.12705  0.33718  0.95436  1.0000
  C   C22       1.0  0.62705  0.66284  0.04565  1.0000
  C   C23       1.0  0.99975  0.33324  0.85802  1.0000
  C   C24       1.0  0.49975  0.66677  0.14198  1.0000
  O   O1        1.0  0.33094  0.27791  0.60035  1.0000
  O   O2        1.0  0.83095  0.72208  0.39965  1.0000
  O   O3        1.0  0.49372  0.49566  0.53532  1.0000
  O   O4        1.0  0.99372  0.50433  0.46468  1.0000
  O   O5        1.0  0.57185  0.07891  0.36927  1.0000
  O   O6        1.0  0.07181  0.92107  0.63074  1.0000
  O   O7        1.0  0.27659  0.19160  0.30759  1.0000
  O   O8        1.0  0.77654  0.80842  0.69242  1.0000
  O   O9        1.0  0.92553  0.12282  0.49121  1.0000
  O   O10       1.0  0.42552  0.87718  0.50879  1.0000
