data_image0
_chemical_formula_structural       Er2H26C32O24
_chemical_formula_sum              "Er2 H26 C32 O24"
_cell_length_a       7.16199
_cell_length_b       10.8473
_cell_length_c       11.0795
_cell_angle_alpha    85.9195
_cell_angle_beta     78.3829
_cell_angle_gamma    78.4841

_space_group_name_H-M_alt    "P 1"
_space_group_IT_number       1

loop_
  _space_group_symop_operation_xyz
  'x, y, z'

loop_
  _atom_site_type_symbol
  _atom_site_label
  _atom_site_symmetry_multiplicity
  _atom_site_fract_x
  _atom_site_fract_y
  _atom_site_fract_z
  _atom_site_occupancy
  Er  Er1       1.0  0.16898  0.24472  0.43556  1.0000
  Er  Er2       1.0  0.83108  0.75527  0.56438  1.0000
  H   H1        1.0  0.67405  0.23547  0.70599  1.0000
  H   H2        1.0  0.32594  0.76455  0.29398  1.0000
  H   H3        1.0  0.95201  0.42327  0.62368  1.0000
  H   H4        1.0  0.04796  0.57672  0.37627  1.0000
  H   H5        1.0  0.82759  0.43108  0.52395  1.0000
  H   H6        1.0  0.17238  0.56891  0.47600  1.0000
  H   H7        1.0  0.61631  0.16568  0.41026  1.0000
  H   H8        1.0  0.38387  0.83439  0.58960  1.0000
  H   H9        1.0  0.52207  0.05241  0.38829  1.0000
  H   H10       1.0  0.47797  0.94717  0.61295  1.0000
  H   H11       1.0  0.39003  0.39077  0.54794  1.0000
  H   H12       1.0  0.60994  0.60922  0.45206  1.0000
  H   H13       1.0  0.42362  0.44033  0.40854  1.0000
  H   H14       1.0  0.57638  0.55965  0.59146  1.0000
  H   H15       1.0  0.22304  0.83290  0.07414  1.0000
  H   H16       1.0  0.77696  0.16708  0.92582  1.0000
  H   H17       1.0  0.33682  0.03656  0.05005  1.0000
  H   H18       1.0  0.66319  0.96341  0.94992  1.0000
  H   H19       1.0  0.31291  0.16852  0.85681  1.0000
  H   H20       1.0  0.68710  0.83146  0.14317  1.0000
  H   H21       1.0  0.43075  0.29863  0.01224  1.0000
  H   H22       1.0  0.56926  0.70138  0.98775  1.0000
  H   H23       1.0  0.28350  0.61087  0.75968  1.0000
  H   H24       1.0  0.71648  0.38914  0.24030  1.0000
  H   H25       1.0  0.02461  0.63294  0.14421  1.0000
  H   H26       1.0  0.97539  0.36707  0.85576  1.0000
  C   C1        1.0  0.17027  0.12206  0.66335  1.0000
  C   C2        1.0  0.82974  0.87795  0.33661  1.0000
  C   C3        1.0  0.02129  0.87877  0.69806  1.0000
  C   C4        1.0  0.97868  0.12123  0.30190  1.0000
  C   C5        1.0  0.18118  0.04135  0.77770  1.0000
  C   C6        1.0  0.81883  0.95864  0.22225  1.0000
  C   C7        1.0  0.11185  0.92718  0.79227  1.0000
  C   C8        1.0  0.88815  0.07282  0.20769  1.0000
  C   C9        1.0  0.12865  0.85445  0.90046  1.0000
  C   C10       1.0  0.87133  0.14554  0.09950  1.0000
  C   C11       1.0  0.21453  0.89125  0.99076  1.0000
  C   C12       1.0  0.78546  0.10874  0.00920  1.0000
  C   C13       1.0  0.27988  0.00483  0.97614  1.0000
  C   C14       1.0  0.72013  0.99515  0.02383  1.0000
  C   C15       1.0  0.26340  0.07936  0.86987  1.0000
  C   C16       1.0  0.73662  0.92063  0.13010  1.0000
  C   C17       1.0  0.20645  0.39783  0.21602  1.0000
  C   C18       1.0  0.79355  0.60220  0.78396  1.0000
  C   C19       1.0  0.49259  0.38017  0.76515  1.0000
  C   C20       1.0  0.50740  0.61984  0.23481  1.0000
  C   C21       1.0  0.22943  0.46037  0.09041  1.0000
  C   C22       1.0  0.77057  0.53964  0.90956  1.0000
  C   C23       1.0  0.35384  0.39287  0.99316  1.0000
  C   C24       1.0  0.64616  0.60715  0.00682  1.0000
  C   C25       1.0  0.37364  0.44662  0.87375  1.0000
  C   C26       1.0  0.62635  0.55337  0.12624  1.0000
  C   C27       1.0  0.27301  0.56838  0.85210  1.0000
  C   C28       1.0  0.72699  0.43162  0.14787  1.0000
  C   C29       1.0  0.15106  0.63472  0.94963  1.0000
  C   C30       1.0  0.84893  0.36528  0.05034  1.0000
  C   C31       1.0  0.12592  0.58167  0.06904  1.0000
  C   C32       1.0  0.87406  0.41835  0.93093  1.0000
  O   O1        1.0  0.22355  0.22842  0.65279  1.0000
  O   O2        1.0  0.77627  0.77164  0.34725  1.0000
  O   O3        1.0  0.11146  0.08034  0.57503  1.0000
  O   O4        1.0  0.88873  0.91962  0.42488  1.0000
  O   O5        1.0  0.84003  0.91059  0.70125  1.0000
  O   O6        1.0  0.15994  0.08945  0.29870  1.0000
  O   O7        1.0  0.12928  0.79585  0.62367  1.0000
  O   O8        1.0  0.87067  0.20413  0.37631  1.0000
  O   O9        1.0  0.06040  0.43898  0.30088  1.0000
  O   O10       1.0  0.93957  0.56102  0.69909  1.0000
  O   O11       1.0  0.33292  0.30238  0.23590  1.0000
  O   O12       1.0  0.66713  0.69768  0.76408  1.0000
  O   O13       1.0  0.59815  0.26707  0.78584  1.0000
  O   O14       1.0  0.40182  0.73292  0.21414  1.0000
  O   O15       1.0  0.49736  0.42584  0.65890  1.0000
  O   O16       1.0  0.50266  0.57417  0.34111  1.0000
  O   O17       1.0  0.03927  0.74972  0.92247  1.0000
  O   O18       1.0  0.96072  0.25028  0.07750  1.0000
  O   O19       1.0  0.91806  0.36998  0.56467  1.0000
  O   O20       1.0  0.08192  0.63001  0.43528  1.0000
  O   O21       1.0  0.49303  0.13298  0.42812  1.0000
  O   O22       1.0  0.50699  0.86727  0.57191  1.0000
  O   O23       1.0  0.33491  0.40025  0.47196  1.0000
  O   O24       1.0  0.66502  0.59981  0.52804  1.0000
