data_image0
_chemical_formula_structural       Pr4H44C52O28
_chemical_formula_sum              "Pr4 H44 C52 O28"
_cell_length_a       7.32954
_cell_length_b       13.2578
_cell_length_c       13.6211
_cell_angle_alpha    99.0965
_cell_angle_beta     90
_cell_angle_gamma    89.9998

_space_group_name_H-M_alt    "P 1"
_space_group_IT_number       1

loop_
  _space_group_symop_operation_xyz
  'x, y, z'

loop_
  _atom_site_type_symbol
  _atom_site_label
  _atom_site_symmetry_multiplicity
  _atom_site_fract_x
  _atom_site_fract_y
  _atom_site_fract_z
  _atom_site_occupancy
  Pr  Pr1       1.0  0.91541  0.81510  0.52515  1.0000
  Pr  Pr2       1.0  0.41541  0.68490  0.47485  1.0000
  Pr  Pr3       1.0  0.08459  0.18489  0.47485  1.0000
  Pr  Pr4       1.0  0.58459  0.31510  0.52515  1.0000
  H   H1        1.0  0.07802  0.01195  0.66189  1.0000
  H   H2        1.0  0.57802  0.48805  0.33811  1.0000
  H   H3        1.0  0.92197  0.98805  0.33811  1.0000
  H   H4        1.0  0.42198  0.51195  0.66189  1.0000
  H   H5        1.0  0.96524  0.93155  0.71223  1.0000
  H   H6        1.0  0.46524  0.56845  0.28777  1.0000
  H   H7        1.0  0.03475  0.06845  0.28777  1.0000
  H   H8        1.0  0.53476  0.43155  0.71223  1.0000
  H   H9        1.0  0.62991  0.84717  0.03697  1.0000
  H   H10       1.0  0.12991  0.65283  0.96304  1.0000
  H   H11       1.0  0.37009  0.15283  0.96303  1.0000
  H   H12       1.0  0.87009  0.34717  0.03696  1.0000
  H   H13       1.0  0.14546  0.90348  0.87569  1.0000
  H   H14       1.0  0.64546  0.59652  0.12431  1.0000
  H   H15       1.0  0.85454  0.09652  0.12431  1.0000
  H   H16       1.0  0.35454  0.40348  0.87569  1.0000
  H   H17       1.0  0.96159  0.90160  0.02748  1.0000
  H   H18       1.0  0.46159  0.59840  0.97252  1.0000
  H   H19       1.0  0.03841  0.09840  0.97252  1.0000
  H   H20       1.0  0.53841  0.40160  0.02748  1.0000
  H   H21       1.0  0.10804  0.86840  0.18458  1.0000
  H   H22       1.0  0.60804  0.63160  0.81541  1.0000
  H   H23       1.0  0.89196  0.13160  0.81542  1.0000
  H   H24       1.0  0.39196  0.36840  0.18458  1.0000
  H   H25       1.0  0.73971  0.88057  0.18512  1.0000
  H   H26       1.0  0.23971  0.61943  0.81488  1.0000
  H   H27       1.0  0.26030  0.11943  0.81488  1.0000
  H   H28       1.0  0.76029  0.38057  0.18512  1.0000
  H   H29       1.0  0.37638  0.81255  0.26897  1.0000
  H   H30       1.0  0.87638  0.68745  0.73103  1.0000
  H   H31       1.0  0.62363  0.18745  0.73103  1.0000
  H   H32       1.0  0.12362  0.31255  0.26897  1.0000
  H   H33       1.0  0.32611  0.87570  0.74138  1.0000
  H   H34       1.0  0.82611  0.62430  0.25862  1.0000
  H   H35       1.0  0.67389  0.12430  0.25862  1.0000
  H   H36       1.0  0.17389  0.37570  0.74138  1.0000
  H   H37       1.0  0.66538  0.86089  0.87274  1.0000
  H   H38       1.0  0.16538  0.63911  0.12726  1.0000
  H   H39       1.0  0.33462  0.13911  0.12726  1.0000
  H   H40       1.0  0.83462  0.36089  0.87274  1.0000
  H   H41       1.0  0.94204  0.55991  0.56733  1.0000
  H   H42       1.0  0.44204  0.94009  0.43267  1.0000
  H   H43       1.0  0.05795  0.44009  0.43267  1.0000
  H   H44       1.0  0.55795  0.05991  0.56733  1.0000
  C   C1        1.0  0.38069  0.85847  0.12270  1.0000
  C   C2        1.0  0.88069  0.64153  0.87730  1.0000
  C   C3        1.0  0.61932  0.14153  0.87730  1.0000
  C   C4        1.0  0.11931  0.35847  0.12270  1.0000
  C   C5        1.0  0.48338  0.86127  0.03619  1.0000
  C   C6        1.0  0.98338  0.63873  0.96381  1.0000
  C   C7        1.0  0.51662  0.13873  0.96381  1.0000
  C   C8        1.0  0.01662  0.36127  0.03619  1.0000
  C   C9        1.0  0.40249  0.87638  0.94647  1.0000
  C   C10       1.0  0.90248  0.62362  0.05353  1.0000
  C   C11       1.0  0.59752  0.12362  0.05353  1.0000
  C   C12       1.0  0.09752  0.37638  0.94647  1.0000
  C   C13       1.0  0.21206  0.89191  0.94465  1.0000
  C   C14       1.0  0.71207  0.60809  0.05535  1.0000
  C   C15       1.0  0.78794  0.10809  0.05535  1.0000
  C   C16       1.0  0.28793  0.39191  0.94465  1.0000
  C   C17       1.0  0.10864  0.89009  0.03015  1.0000
  C   C18       1.0  0.60864  0.60991  0.96985  1.0000
  C   C19       1.0  0.89136  0.10991  0.96985  1.0000
  C   C20       1.0  0.39136  0.39009  0.03015  1.0000
  C   C21       1.0  0.19050  0.87231  0.11850  1.0000
  C   C22       1.0  0.69050  0.62769  0.88150  1.0000
  C   C23       1.0  0.80950  0.12770  0.88151  1.0000
  C   C24       1.0  0.30950  0.37231  0.11850  1.0000
  C   C25       1.0  0.72884  0.83115  0.32888  1.0000
  C   C26       1.0  0.22883  0.66885  0.67112  1.0000
  C   C27       1.0  0.27117  0.16885  0.67112  1.0000
  C   C28       1.0  0.77117  0.33115  0.32888  1.0000
  C   C29       1.0  0.64569  0.85093  0.23571  1.0000
  C   C30       1.0  0.14569  0.64907  0.76429  1.0000
  C   C31       1.0  0.35431  0.14907  0.76429  1.0000
  C   C32       1.0  0.85431  0.35093  0.23571  1.0000
  C   C33       1.0  0.46641  0.83913  0.21451  1.0000
  C   C34       1.0  0.96641  0.66086  0.78549  1.0000
  C   C35       1.0  0.53360  0.16086  0.78549  1.0000
  C   C36       1.0  0.03359  0.33914  0.21451  1.0000
  C   C37       1.0  0.60129  0.84749  0.68264  1.0000
  C   C38       1.0  0.10129  0.65251  0.31736  1.0000
  C   C39       1.0  0.39871  0.15251  0.31736  1.0000
  C   C40       1.0  0.89871  0.34749  0.68264  1.0000
  C   C41       1.0  0.46744  0.86772  0.76406  1.0000
  C   C42       1.0  0.96744  0.63228  0.23594  1.0000
  C   C43       1.0  0.53256  0.13228  0.23594  1.0000
  C   C44       1.0  0.03256  0.36772  0.76407  1.0000
  C   C45       1.0  0.51950  0.86980  0.85925  1.0000
  C   C46       1.0  0.01950  0.63020  0.14075  1.0000
  C   C47       1.0  0.48050  0.13020  0.14075  1.0000
  C   C48       1.0  0.98050  0.36980  0.85925  1.0000
  C   C49       1.0  0.79804  0.56547  0.54476  1.0000
  C   C50       1.0  0.29804  0.93452  0.45524  1.0000
  C   C51       1.0  0.20196  0.43453  0.45524  1.0000
  C   C52       1.0  0.70196  0.06547  0.54476  1.0000
  O   O1        1.0  0.89262  0.86226  0.34819  1.0000
  O   O2        1.0  0.39262  0.63773  0.65181  1.0000
  O   O3        1.0  0.10738  0.13774  0.65181  1.0000
  O   O4        1.0  0.60738  0.36226  0.34819  1.0000
  O   O5        1.0  0.64240  0.78538  0.39103  1.0000
  O   O6        1.0  0.14240  0.71462  0.60896  1.0000
  O   O7        1.0  0.35760  0.21462  0.60896  1.0000
  O   O8        1.0  0.85760  0.28538  0.39104  1.0000
  O   O9        1.0  0.54301  0.83056  0.59282  1.0000
  O   O10       1.0  0.04301  0.66943  0.40718  1.0000
  O   O11       1.0  0.45699  0.16944  0.40718  1.0000
  O   O12       1.0  0.95699  0.33057  0.59282  1.0000
  O   O13       1.0  0.77247  0.84507  0.70099  1.0000
  O   O14       1.0  0.27247  0.65493  0.29901  1.0000
  O   O15       1.0  0.22753  0.15493  0.29901  1.0000
  O   O16       1.0  0.72753  0.34507  0.70099  1.0000
  O   O17       1.0  0.73888  0.65457  0.53652  1.0000
  O   O18       1.0  0.23887  0.84543  0.46349  1.0000
  O   O19       1.0  0.26112  0.34543  0.46348  1.0000
  O   O20       1.0  0.76112  0.15457  0.53652  1.0000
  O   O21       1.0  0.70234  0.48643  0.52918  1.0000
  O   O22       1.0  0.20234  0.01357  0.47082  1.0000
  O   O23       1.0  0.29766  0.51357  0.47082  1.0000
  O   O24       1.0  0.79766  0.98643  0.52918  1.0000
  O   O25       1.0  0.07165  0.93855  0.66982  1.0000
  O   O26       1.0  0.57165  0.56145  0.33018  1.0000
  O   O27       1.0  0.92835  0.06145  0.33018  1.0000
  O   O28       1.0  0.42835  0.43855  0.66982  1.0000
