data_image0
_chemical_formula_structural       Cu4H24C20N8O14
_chemical_formula_sum              "Cu4 H24 C20 N8 O14"
_cell_length_a       6.8956
_cell_length_b       10.1903
_cell_length_c       10.6474
_cell_angle_alpha    107.443
_cell_angle_beta     93.1464
_cell_angle_gamma    104.656

_space_group_name_H-M_alt    "P 1"
_space_group_IT_number       1

loop_
  _space_group_symop_operation_xyz
  'x, y, z'

loop_
  _atom_site_type_symbol
  _atom_site_label
  _atom_site_symmetry_multiplicity
  _atom_site_fract_x
  _atom_site_fract_y
  _atom_site_fract_z
  _atom_site_occupancy
  Cu  Cu1       1.0  0.08913  0.32050  0.69021  1.0000
  Cu  Cu2       1.0  0.91102  0.67946  0.30979  1.0000
  Cu  Cu3       1.0  0.99999  0.99997  0.49992  1.0000
  Cu  Cu4       1.0  0.00013  0.49996  0.00003  1.0000
  H   H1        1.0  0.05123  0.10220  0.73695  1.0000
  H   H2        1.0  0.94872  0.89768  0.26288  1.0000
  H   H3        1.0  0.96159  0.23711  0.87235  1.0000
  H   H4        1.0  0.03889  0.76283  0.12770  1.0000
  H   H5        1.0  0.74582  0.17545  0.45460  1.0000
  H   H6        1.0  0.25411  0.82459  0.54554  1.0000
  H   H7        1.0  0.63846  0.17010  0.58111  1.0000
  H   H8        1.0  0.36165  0.82993  0.41908  1.0000
  H   H9        1.0  0.20378  0.59803  0.58105  1.0000
  H   H10       1.0  0.79624  0.40196  0.41898  1.0000
  H   H11       1.0  0.09652  0.82433  0.96328  1.0000
  H   H12       1.0  0.90333  0.17555  0.03675  1.0000
  H   H13       1.0  0.34803  0.51125  0.41096  1.0000
  H   H14       1.0  0.65201  0.48880  0.58906  1.0000
  H   H15       1.0  0.37350  0.93853  0.77245  1.0000
  H   H16       1.0  0.62633  0.06145  0.22759  1.0000
  H   H17       1.0  0.12662  0.93762  0.76796  1.0000
  H   H18       1.0  0.87319  0.06231  0.23211  1.0000
  H   H19       1.0  0.39039  0.14394  0.99264  1.0000
  H   H20       1.0  0.60953  0.85614  0.00731  1.0000
  H   H21       1.0  0.45116  0.58478  0.21813  1.0000
  H   H22       1.0  0.54903  0.41531  0.78193  1.0000
  H   H23       1.0  0.47342  0.39754  0.00683  1.0000
  H   H24       1.0  0.52672  0.60258  0.99321  1.0000
  C   C1        1.0  0.22855  0.24207  0.42641  1.0000
  C   C2        1.0  0.77139  0.75793  0.57353  1.0000
  C   C3        1.0  0.16710  0.62118  0.68143  1.0000
  C   C4        1.0  0.83291  0.37879  0.31860  1.0000
  C   C5        1.0  0.30281  0.28539  0.31107  1.0000
  C   C6        1.0  0.69713  0.71466  0.68889  1.0000
  C   C7        1.0  0.11415  0.73809  0.87897  1.0000
  C   C8        1.0  0.88576  0.26181  0.12106  1.0000
  C   C9        1.0  0.31286  0.18079  0.19167  1.0000
  C   C10       1.0  0.68703  0.81928  0.80827  1.0000
  C   C11       1.0  0.35505  0.43037  0.31900  1.0000
  C   C12       1.0  0.64497  0.56969  0.68101  1.0000
  C   C13       1.0  0.37789  0.22384  0.08412  1.0000
  C   C14       1.0  0.62203  0.77625  0.91584  1.0000
  C   C15       1.0  0.25030  0.02138  0.16908  1.0000
  C   C16       1.0  0.74954  0.97867  0.83082  1.0000
  C   C17       1.0  0.41428  0.47174  0.21036  1.0000
  C   C18       1.0  0.58582  0.52835  0.78966  1.0000
  C   C19       1.0  0.42623  0.36788  0.09290  1.0000
  C   C20       1.0  0.57383  0.63223  0.90711  1.0000
  N   N1        1.0  0.11085  0.52854  0.74559  1.0000
  N   N2        1.0  0.88924  0.47141  0.25442  1.0000
  N   N3        1.0  0.07709  0.60119  0.86869  1.0000
  N   N4        1.0  0.92295  0.39872  0.13133  1.0000
  N   N5        1.0  0.17218  0.75373  0.76282  1.0000
  N   N6        1.0  0.82772  0.24621  0.23722  1.0000
  N   N7        1.0  0.22378  0.87893  0.72787  1.0000
  N   N8        1.0  0.77605  0.12103  0.27219  1.0000
  O   O1        1.0  0.18913  0.33793  0.52174  1.0000
  O   O2        1.0  0.81085  0.66204  0.47822  1.0000
  O   O3        1.0  0.12390  0.13511  0.66925  1.0000
  O   O4        1.0  0.87612  0.86479  0.33061  1.0000
  O   O5        1.0  0.00296  0.33236  0.86063  1.0000
  O   O6        1.0  0.99741  0.66760  0.13941  1.0000
  O   O7        1.0  0.74212  0.23093  0.54854  1.0000
  O   O8        1.0  0.25786  0.76913  0.45161  1.0000
  O   O9        1.0  0.20489  0.11102  0.41744  1.0000
  O   O10       1.0  0.79503  0.88897  0.58244  1.0000
  O   O11       1.0  0.05898  0.95715  0.14085  1.0000
  O   O12       1.0  0.94088  0.04291  0.85905  1.0000
  O   O13       1.0  0.38542  0.95772  0.16525  1.0000
  O   O14       1.0  0.61441  0.04231  0.83464  1.0000
