data_image0
_chemical_formula_structural       Zn4H32C48N8O24
_chemical_formula_sum              "Zn4 H32 C48 N8 O24"
_cell_length_a       9.48633
_cell_length_b       10.5534
_cell_length_c       12.6443
_cell_angle_alpha    90
_cell_angle_beta     104.845
_cell_angle_gamma    89.9999

_space_group_name_H-M_alt    "P 1"
_space_group_IT_number       1

loop_
  _space_group_symop_operation_xyz
  'x, y, z'

loop_
  _atom_site_type_symbol
  _atom_site_label
  _atom_site_symmetry_multiplicity
  _atom_site_fract_x
  _atom_site_fract_y
  _atom_site_fract_z
  _atom_site_occupancy
  Zn  Zn1       1.0  0.55377  0.31857  0.21359  1.0000
  Zn  Zn2       1.0  0.94623  0.81857  0.28641  1.0000
  Zn  Zn3       1.0  0.44623  0.68143  0.78641  1.0000
  Zn  Zn4       1.0  0.05377  0.18143  0.71359  1.0000
  H   H1        1.0  0.63560  0.01874  0.84065  1.0000
  H   H2        1.0  0.86440  0.51874  0.65935  1.0000
  H   H3        1.0  0.36440  0.98126  0.15935  1.0000
  H   H4        1.0  0.13560  0.48126  0.34065  1.0000
  H   H5        1.0  0.79306  0.15563  0.17198  1.0000
  H   H6        1.0  0.70694  0.65563  0.32802  1.0000
  H   H7        1.0  0.20694  0.84437  0.82801  1.0000
  H   H8        1.0  0.29306  0.34437  0.67199  1.0000
  H   H9        1.0  0.37752  0.26098  0.99267  1.0000
  H   H10       1.0  0.12249  0.76098  0.50733  1.0000
  H   H11       1.0  0.62249  0.73902  0.00733  1.0000
  H   H12       1.0  0.87751  0.23902  0.49267  1.0000
  H   H13       1.0  0.27374  0.04487  0.51435  1.0000
  H   H14       1.0  0.22626  0.54487  0.98565  1.0000
  H   H15       1.0  0.72626  0.95512  0.48565  1.0000
  H   H16       1.0  0.77374  0.45513  0.01435  1.0000
  H   H17       1.0  0.61897  0.27228  0.44654  1.0000
  H   H18       1.0  0.88103  0.77228  0.05346  1.0000
  H   H19       1.0  0.38103  0.72772  0.55346  1.0000
  H   H20       1.0  0.11897  0.22772  0.94654  1.0000
  H   H21       1.0  0.25493  0.18806  0.19157  1.0000
  H   H22       1.0  0.24507  0.68806  0.30843  1.0000
  H   H23       1.0  0.74507  0.81194  0.80843  1.0000
  H   H24       1.0  0.75493  0.31194  0.69157  1.0000
  H   H25       1.0  0.92938  0.02869  0.08551  1.0000
  H   H26       1.0  0.57062  0.52868  0.41450  1.0000
  H   H27       1.0  0.07062  0.97132  0.91450  1.0000
  H   H28       1.0  0.42938  0.47132  0.58551  1.0000
  H   H29       1.0  0.47977  0.11953  0.65047  1.0000
  H   H30       1.0  0.02023  0.61953  0.84952  1.0000
  H   H31       1.0  0.52023  0.88047  0.34952  1.0000
  H   H32       1.0  0.97977  0.38047  0.15048  1.0000
  C   C1        1.0  0.36259  0.12427  0.80661  1.0000
  C   C2        1.0  0.13741  0.62428  0.69339  1.0000
  C   C3        1.0  0.63741  0.87573  0.19339  1.0000
  C   C4        1.0  0.86259  0.37573  0.30661  1.0000
  C   C5        1.0  0.49061  0.13653  0.90476  1.0000
  C   C6        1.0  0.00939  0.63653  0.59524  1.0000
  C   C7        1.0  0.50940  0.86347  0.09524  1.0000
  C   C8        1.0  0.99061  0.36347  0.40476  1.0000
  C   C9        1.0  0.62119  0.07374  0.91006  1.0000
  C   C10       1.0  0.87881  0.57374  0.58994  1.0000
  C   C11       1.0  0.37881  0.92627  0.08994  1.0000
  C   C12       1.0  0.12119  0.42626  0.41006  1.0000
  C   C13       1.0  0.73388  0.07973  0.00681  1.0000
  C   C14       1.0  0.76612  0.57973  0.49320  1.0000
  C   C15       1.0  0.26612  0.92027  0.99319  1.0000
  C   C16       1.0  0.23388  0.42027  0.50681  1.0000
  C   C17       1.0  0.70961  0.15009  0.09483  1.0000
  C   C18       1.0  0.79039  0.65010  0.40518  1.0000
  C   C19       1.0  0.29039  0.84991  0.90517  1.0000
  C   C20       1.0  0.20960  0.34991  0.59483  1.0000
  C   C21       1.0  0.47620  0.20750  0.99488  1.0000
  C   C22       1.0  0.02380  0.70750  0.50512  1.0000
  C   C23       1.0  0.52380  0.79250  0.00512  1.0000
  C   C24       1.0  0.97620  0.29250  0.49488  1.0000
  C   C25       1.0  0.11077  0.03643  0.30085  1.0000
  C   C26       1.0  0.38923  0.53642  0.19915  1.0000
  C   C27       1.0  0.88923  0.96357  0.69915  1.0000
  C   C28       1.0  0.61077  0.46358  0.80085  1.0000
  C   C29       1.0  0.24909  0.10839  0.34810  1.0000
  C   C30       1.0  0.25091  0.60839  0.15190  1.0000
  C   C31       1.0  0.75092  0.89161  0.65190  1.0000
  C   C32       1.0  0.74908  0.39161  0.84810  1.0000
  C   C33       1.0  0.32108  0.09962  0.45894  1.0000
  C   C34       1.0  0.17892  0.59962  0.04106  1.0000
  C   C35       1.0  0.67892  0.90038  0.54106  1.0000
  C   C36       1.0  0.82108  0.40038  0.95894  1.0000
  C   C37       1.0  0.45579  0.16088  0.49697  1.0000
  C   C38       1.0  0.04421  0.66087  0.00303  1.0000
  C   C39       1.0  0.54421  0.83912  0.50303  1.0000
  C   C40       1.0  0.95579  0.33912  0.99697  1.0000
  C   C41       1.0  0.51388  0.22503  0.42060  1.0000
  C   C42       1.0  0.98612  0.72503  0.07940  1.0000
  C   C43       1.0  0.48612  0.77497  0.57940  1.0000
  C   C44       1.0  0.01388  0.27497  0.92060  1.0000
  C   C45       1.0  0.31188  0.17753  0.27760  1.0000
  C   C46       1.0  0.18812  0.67753  0.22240  1.0000
  C   C47       1.0  0.68812  0.82247  0.72240  1.0000
  C   C48       1.0  0.81188  0.32247  0.77760  1.0000
  N   N1        1.0  0.58390  0.21291  0.08737  1.0000
  N   N2        1.0  0.91610  0.71291  0.41263  1.0000
  N   N3        1.0  0.41610  0.78709  0.91263  1.0000
  N   N4        1.0  0.08390  0.28709  0.58737  1.0000
  N   N5        1.0  0.44388  0.23226  0.31396  1.0000
  N   N6        1.0  0.05611  0.73225  0.18603  1.0000
  N   N7        1.0  0.55612  0.76774  0.68603  1.0000
  N   N8        1.0  0.94388  0.26774  0.81397  1.0000
  O   O1        1.0  0.24324  0.17060  0.82077  1.0000
  O   O2        1.0  0.25676  0.67060  0.67924  1.0000
  O   O3        1.0  0.75676  0.82940  0.17923  1.0000
  O   O4        1.0  0.74324  0.32940  0.32077  1.0000
  O   O5        1.0  0.37531  0.07004  0.72108  1.0000
  O   O6        1.0  0.12469  0.57004  0.77893  1.0000
  O   O7        1.0  0.62469  0.92996  0.27893  1.0000
  O   O8        1.0  0.87532  0.42996  0.22108  1.0000
  O   O9        1.0  0.85838  0.01774  0.01195  1.0000
  O   O10       1.0  0.64162  0.51774  0.48805  1.0000
  O   O11       1.0  0.14162  0.98226  0.98805  1.0000
  O   O12       1.0  0.35837  0.48226  0.51195  1.0000
  O   O13       1.0  0.07760  0.95110  0.36375  1.0000
  O   O14       1.0  0.42240  0.45110  0.13625  1.0000
  O   O15       1.0  0.92240  0.04889  0.63625  1.0000
  O   O16       1.0  0.57760  0.54889  0.86375  1.0000
  O   O17       1.0  0.03999  0.05954  0.20457  1.0000
  O   O18       1.0  0.46001  0.55954  0.29543  1.0000
  O   O19       1.0  0.96001  0.94046  0.79543  1.0000
  O   O20       1.0  0.53999  0.44046  0.70457  1.0000
  O   O21       1.0  0.53570  0.16012  0.60126  1.0000
  O   O22       1.0  0.96430  0.66012  0.89874  1.0000
  O   O23       1.0  0.46430  0.83988  0.39874  1.0000
  O   O24       1.0  0.03570  0.33988  0.10126  1.0000
