data_image0
_chemical_formula_structural       Zn8H24C56N8O32
_chemical_formula_sum              "Zn8 H24 C56 N8 O32"
_cell_length_a       10.0403
_cell_length_b       10.0403
_cell_length_c       16.5906
_cell_angle_alpha    82.1694
_cell_angle_beta     82.1696
_cell_angle_gamma    89.7895

_space_group_name_H-M_alt    "P 1"
_space_group_IT_number       1

loop_
  _space_group_symop_operation_xyz
  'x, y, z'

loop_
  _atom_site_type_symbol
  _atom_site_label
  _atom_site_symmetry_multiplicity
  _atom_site_fract_x
  _atom_site_fract_y
  _atom_site_fract_z
  _atom_site_occupancy
  Zn  Zn1       1.0  0.18444  0.29532  0.80972  1.0000
  Zn  Zn2       1.0  0.70468  0.81556  0.69029  1.0000
  Zn  Zn3       1.0  0.81556  0.70468  0.19028  1.0000
  Zn  Zn4       1.0  0.29531  0.18444  0.30972  1.0000
  Zn  Zn5       1.0  0.69308  0.30691  0.75000  1.0000
  Zn  Zn6       1.0  0.30692  0.69309  0.25000  1.0000
  Zn  Zn7       1.0  0.19170  0.80829  0.75000  1.0000
  Zn  Zn8       1.0  0.80830  0.19170  0.25000  1.0000
  H   H1        1.0  0.14176  0.53060  0.03013  1.0000
  H   H2        1.0  0.46940  0.85824  0.46987  1.0000
  H   H3        1.0  0.85824  0.46940  0.96987  1.0000
  H   H4        1.0  0.53060  0.14176  0.53013  1.0000
  H   H5        1.0  0.13072  0.72935  0.10750  1.0000
  H   H6        1.0  0.27065  0.86928  0.39250  1.0000
  H   H7        1.0  0.86928  0.27065  0.89250  1.0000
  H   H8        1.0  0.72935  0.13072  0.60750  1.0000
  H   H9        1.0  0.14220  0.96239  0.02901  1.0000
  H   H10       1.0  0.03760  0.85780  0.47099  1.0000
  H   H11       1.0  0.85780  0.03760  0.97099  1.0000
  H   H12       1.0  0.96239  0.14220  0.52901  1.0000
  H   H13       1.0  0.46000  0.38788  0.52770  1.0000
  H   H14       1.0  0.61212  0.54000  0.97230  1.0000
  H   H15       1.0  0.54000  0.61212  0.47230  1.0000
  H   H16       1.0  0.38788  0.46000  0.02770  1.0000
  H   H17       1.0  0.26132  0.41946  0.44939  1.0000
  H   H18       1.0  0.58053  0.73868  0.05061  1.0000
  H   H19       1.0  0.73868  0.58054  0.55061  1.0000
  H   H20       1.0  0.41947  0.26132  0.94939  1.0000
  H   H21       1.0  0.02788  0.38818  0.52835  1.0000
  H   H22       1.0  0.61183  0.97212  0.97166  1.0000
  H   H23       1.0  0.97212  0.61183  0.47165  1.0000
  H   H24       1.0  0.38817  0.02788  0.02835  1.0000
  C   C1        1.0  0.17283  0.54840  0.85634  1.0000
  C   C2        1.0  0.45160  0.82717  0.64366  1.0000
  C   C3        1.0  0.82717  0.45160  0.14366  1.0000
  C   C4        1.0  0.54840  0.17283  0.35634  1.0000
  C   C5        1.0  0.16281  0.65541  0.91266  1.0000
  C   C6        1.0  0.34459  0.83719  0.58734  1.0000
  C   C7        1.0  0.83719  0.34459  0.08734  1.0000
  C   C8        1.0  0.65541  0.16281  0.41266  1.0000
  C   C9        1.0  0.14833  0.63291  0.99818  1.0000
  C   C10       1.0  0.36709  0.85167  0.50182  1.0000
  C   C11       1.0  0.85167  0.36709  0.00182  1.0000
  C   C12       1.0  0.63291  0.14833  0.49818  1.0000
  C   C13       1.0  0.14205  0.74400  0.04080  1.0000
  C   C14       1.0  0.25600  0.85796  0.45920  1.0000
  C   C15       1.0  0.85796  0.25600  0.95920  1.0000
  C   C16       1.0  0.74400  0.14205  0.54080  1.0000
  C   C17       1.0  0.14853  0.87382  0.99761  1.0000
  C   C18       1.0  0.12618  0.85147  0.50239  1.0000
  C   C19       1.0  0.85147  0.12618  0.00239  1.0000
  C   C20       1.0  0.87382  0.14853  0.49761  1.0000
  C   C21       1.0  0.16309  0.88861  0.91210  1.0000
  C   C22       1.0  0.11139  0.83691  0.58790  1.0000
  C   C23       1.0  0.83691  0.11139  0.08790  1.0000
  C   C24       1.0  0.88861  0.16309  0.41210  1.0000
  C   C25       1.0  0.17332  0.02035  0.85526  1.0000
  C   C26       1.0  0.97965  0.82668  0.64474  1.0000
  C   C27       1.0  0.82668  0.97965  0.14474  1.0000
  C   C28       1.0  0.02035  0.17332  0.35526  1.0000
  C   C29       1.0  0.44108  0.32460  0.70105  1.0000
  C   C30       1.0  0.67540  0.55891  0.79895  1.0000
  C   C31       1.0  0.55891  0.67540  0.29895  1.0000
  C   C32       1.0  0.32460  0.44108  0.20105  1.0000
  C   C33       1.0  0.33448  0.34555  0.64454  1.0000
  C   C34       1.0  0.65445  0.66552  0.85546  1.0000
  C   C35       1.0  0.66552  0.65445  0.35546  1.0000
  C   C36       1.0  0.34555  0.33448  0.14454  1.0000
  C   C37       1.0  0.35736  0.37735  0.55910  1.0000
  C   C38       1.0  0.62265  0.64263  0.94090  1.0000
  C   C39       1.0  0.64264  0.62265  0.44090  1.0000
  C   C40       1.0  0.37735  0.35737  0.05910  1.0000
  C   C41       1.0  0.24661  0.39411  0.51608  1.0000
  C   C42       1.0  0.60589  0.75338  0.98393  1.0000
  C   C43       1.0  0.75339  0.60589  0.48392  1.0000
  C   C44       1.0  0.39411  0.24661  0.01608  1.0000
  C   C45       1.0  0.11680  0.37746  0.55942  1.0000
  C   C46       1.0  0.62254  0.88320  0.94058  1.0000
  C   C47       1.0  0.88321  0.62254  0.44058  1.0000
  C   C48       1.0  0.37747  0.11680  0.05942  1.0000
  C   C49       1.0  0.10206  0.34555  0.64480  1.0000
  C   C50       1.0  0.65444  0.89794  0.85520  1.0000
  C   C51       1.0  0.89794  0.65445  0.35520  1.0000
  C   C52       1.0  0.34556  0.10206  0.14480  1.0000
  C   C53       1.0  0.97058  0.32444  0.70155  1.0000
  C   C54       1.0  0.67556  0.02942  0.79845  1.0000
  C   C55       1.0  0.02942  0.67556  0.29845  1.0000
  C   C56       1.0  0.32444  0.97058  0.20155  1.0000
  N   N1        1.0  0.16983  0.78069  0.87270  1.0000
  N   N2        1.0  0.21931  0.83017  0.62730  1.0000
  N   N3        1.0  0.83017  0.21931  0.12730  1.0000
  N   N4        1.0  0.78069  0.16983  0.37270  1.0000
  N   N5        1.0  0.20950  0.33122  0.68454  1.0000
  N   N6        1.0  0.66878  0.79050  0.81546  1.0000
  N   N7        1.0  0.79050  0.66878  0.31546  1.0000
  N   N8        1.0  0.33122  0.20950  0.18454  1.0000
  O   O1        1.0  0.18581  0.58611  0.77994  1.0000
  O   O2        1.0  0.41389  0.81419  0.72006  1.0000
  O   O3        1.0  0.81419  0.41389  0.22006  1.0000
  O   O4        1.0  0.58611  0.18581  0.27994  1.0000
  O   O5        1.0  0.16751  0.42624  0.89085  1.0000
  O   O6        1.0  0.57376  0.83249  0.60915  1.0000
  O   O7        1.0  0.83248  0.57376  0.10915  1.0000
  O   O8        1.0  0.42624  0.16751  0.39085  1.0000
  O   O9        1.0  0.18583  0.01635  0.77891  1.0000
  O   O10       1.0  0.98365  0.81417  0.72109  1.0000
  O   O11       1.0  0.81417  0.98365  0.22109  1.0000
  O   O12       1.0  0.01635  0.18583  0.27891  1.0000
  O   O13       1.0  0.16847  0.12728  0.88949  1.0000
  O   O14       1.0  0.87272  0.83153  0.61051  1.0000
  O   O15       1.0  0.83153  0.87272  0.11051  1.0000
  O   O16       1.0  0.12728  0.16847  0.38949  1.0000
  O   O17       1.0  0.40244  0.30285  0.77745  1.0000
  O   O18       1.0  0.69715  0.59756  0.72255  1.0000
  O   O19       1.0  0.59756  0.69715  0.22255  1.0000
  O   O20       1.0  0.30285  0.40244  0.27745  1.0000
  O   O21       1.0  0.56357  0.33009  0.66735  1.0000
  O   O22       1.0  0.66991  0.43643  0.83265  1.0000
  O   O23       1.0  0.43643  0.66991  0.33265  1.0000
  O   O24       1.0  0.33009  0.56357  0.16735  1.0000
  O   O25       1.0  0.97708  0.30274  0.77769  1.0000
  O   O26       1.0  0.69726  0.02292  0.72231  1.0000
  O   O27       1.0  0.02292  0.69726  0.22231  1.0000
  O   O28       1.0  0.30274  0.97708  0.27769  1.0000
  O   O29       1.0  0.86233  0.32957  0.66891  1.0000
  O   O30       1.0  0.67043  0.13767  0.83109  1.0000
  O   O31       1.0  0.13767  0.67043  0.33109  1.0000
  O   O32       1.0  0.32957  0.86233  0.16891  1.0000
