data_image0
_chemical_formula_structural       Zn4H12C28N4O16
_chemical_formula_sum              "Zn4 H12 C28 N4 O16"
_cell_length_a       6.38901
_cell_length_b       7.70074
_cell_length_c       14.3265
_cell_angle_alpha    90.0003
_cell_angle_beta     89.9988
_cell_angle_gamma    90

_space_group_name_H-M_alt    "P 1"
_space_group_IT_number       1

loop_
  _space_group_symop_operation_xyz
  'x, y, z'

loop_
  _atom_site_type_symbol
  _atom_site_label
  _atom_site_symmetry_multiplicity
  _atom_site_fract_x
  _atom_site_fract_y
  _atom_site_fract_z
  _atom_site_occupancy
  Zn  Zn1       1.0  1.00000  0.75001  0.71157  1.0000
  Zn  Zn2       1.0  0.50000  0.25001  0.78844  1.0000
  Zn  Zn3       1.0  0.00000  0.25000  0.28843  1.0000
  Zn  Zn4       1.0  0.50000  0.74999  0.21156  1.0000
  H   H1        1.0  0.72396  0.58596  0.03013  1.0000
  H   H2        1.0  0.77603  0.08595  0.46988  1.0000
  H   H3        1.0  0.22395  0.41405  0.46989  1.0000
  H   H4        1.0  0.27604  0.91404  0.03013  1.0000
  H   H5        1.0  0.27606  0.41405  0.96987  1.0000
  H   H6        1.0  0.22395  0.91404  0.53011  1.0000
  H   H7        1.0  0.77604  0.58596  0.53012  1.0000
  H   H8        1.0  0.72397  0.08596  0.96987  1.0000
  H   H9        1.0  0.99999  0.75001  0.11894  1.0000
  H   H10       1.0  0.49999  0.25000  0.38108  1.0000
  H   H11       1.0  0.00001  0.25000  0.88107  1.0000
  H   H12       1.0  0.49999  0.75000  0.61893  1.0000
  C   C1        1.0  0.71362  0.55502  0.83325  1.0000
  C   C2        1.0  0.78637  0.05502  0.66675  1.0000
  C   C3        1.0  0.21360  0.44500  0.66676  1.0000
  C   C4        1.0  0.28639  0.94498  0.83325  1.0000
  C   C5        1.0  0.28640  0.44499  0.16675  1.0000
  C   C6        1.0  0.21363  0.94498  0.33324  1.0000
  C   C7        1.0  0.78638  0.55500  0.33325  1.0000
  C   C8        1.0  0.71362  0.05501  0.16675  1.0000
  C   C9        1.0  0.85339  0.65926  0.89694  1.0000
  C   C10       1.0  0.64661  0.15926  0.60307  1.0000
  C   C11       1.0  0.35337  0.34073  0.60308  1.0000
  C   C12       1.0  0.14662  0.84073  0.89693  1.0000
  C   C13       1.0  0.14662  0.34072  0.10306  1.0000
  C   C14       1.0  0.35339  0.84074  0.39693  1.0000
  C   C15       1.0  0.64662  0.65926  0.39693  1.0000
  C   C16       1.0  0.85339  0.15926  0.10305  1.0000
  C   C17       1.0  0.84629  0.65829  0.99423  1.0000
  C   C18       1.0  0.65371  0.15827  0.50579  1.0000
  C   C19       1.0  0.34627  0.34173  0.50579  1.0000
  C   C20       1.0  0.15372  0.84174  0.99423  1.0000
  C   C21       1.0  0.15371  0.34171  0.00576  1.0000
  C   C22       1.0  0.34628  0.84172  0.49422  1.0000
  C   C23       1.0  0.65372  0.65827  0.49421  1.0000
  C   C24       1.0  0.84630  0.15828  0.00576  1.0000
  C   C25       1.0  1.00000  0.74999  0.04291  1.0000
  C   C26       1.0  0.49999  0.25000  0.45710  1.0000
  C   C27       1.0  0.00002  0.25000  0.95708  1.0000
  C   C28       1.0  0.49999  0.75001  0.54290  1.0000
  N   N1        1.0  0.00000  0.75002  0.85148  1.0000
  N   N2        1.0  0.50000  0.25000  0.64853  1.0000
  N   N3        1.0  0.00001  0.24999  0.14852  1.0000
  N   N4        1.0  0.50000  0.75000  0.35147  1.0000
  O   O1        1.0  0.71707  0.58837  0.74711  1.0000
  O   O2        1.0  0.78292  0.08835  0.75289  1.0000
  O   O3        1.0  0.21709  0.41165  0.75291  1.0000
  O   O4        1.0  0.28292  0.91166  0.74711  1.0000
  O   O5        1.0  0.28292  0.41163  0.25289  1.0000
  O   O6        1.0  0.21709  0.91164  0.24710  1.0000
  O   O7        1.0  0.78291  0.58833  0.24710  1.0000
  O   O8        1.0  0.71708  0.08835  0.25289  1.0000
  O   O9        1.0  0.60915  0.43258  0.87237  1.0000
  O   O10       1.0  0.89085  0.93258  0.62764  1.0000
  O   O11       1.0  0.10914  0.56742  0.62765  1.0000
  O   O12       1.0  0.39087  0.06742  0.87236  1.0000
  O   O13       1.0  0.39086  0.56743  0.12763  1.0000
  O   O14       1.0  0.10915  0.06741  0.37236  1.0000
  O   O15       1.0  0.89085  0.43257  0.37236  1.0000
  O   O16       1.0  0.60914  0.93258  0.12764  1.0000
