data_image0
_chemical_formula_structural       Ga2FeH28C26N2
_chemical_formula_sum              "Ga2 Fe1 H28 C26 N2"
_cell_length_a       7.5191
_cell_length_b       8.80895
_cell_length_c       9.68184
_cell_angle_alpha    64.2284
_cell_angle_beta     76.3893
_cell_angle_gamma    73.6025

_space_group_name_H-M_alt    "P 1"
_space_group_IT_number       1

loop_
  _space_group_symop_operation_xyz
  'x, y, z'

loop_
  _atom_site_type_symbol
  _atom_site_label
  _atom_site_symmetry_multiplicity
  _atom_site_fract_x
  _atom_site_fract_y
  _atom_site_fract_z
  _atom_site_occupancy
  Ga  Ga1       1.0  0.82916  0.84540  0.79665  1.0000
  Ga  Ga2       1.0  0.17084  0.15460  0.20335  1.0000
  Fe  Fe1       1.0  1.00000  1.00000  1.00000  1.0000
  H   H1        1.0  0.61341  0.02695  0.04996  1.0000
  H   H2        1.0  0.38658  0.97304  0.95003  1.0000
  H   H3        1.0  0.25361  0.72678  0.93608  1.0000
  H   H4        1.0  0.74638  0.27321  0.06393  1.0000
  H   H5        1.0  0.96324  0.65593  0.16453  1.0000
  H   H6        1.0  0.03675  0.34407  0.83547  1.0000
  H   H7        1.0  0.92265  0.85435  0.32239  1.0000
  H   H8        1.0  0.07735  0.14566  0.67761  1.0000
  H   H9        1.0  0.82909  0.16005  0.32838  1.0000
  H   H10       1.0  0.17091  0.83996  0.67162  1.0000
  H   H11       1.0  0.89051  0.35397  0.29688  1.0000
  H   H12       1.0  0.10949  0.64603  0.70312  1.0000
  H   H13       1.0  0.95695  0.16254  0.45964  1.0000
  H   H14       1.0  0.04306  0.83747  0.54036  1.0000
  H   H15       1.0  0.36282  0.29533  0.93880  1.0000
  H   H16       1.0  0.63718  0.70467  0.06119  1.0000
  H   H17       1.0  0.37990  0.38758  0.06426  1.0000
  H   H18       1.0  0.62010  0.61242  0.93573  1.0000
  H   H19       1.0  0.17212  0.45018  0.97910  1.0000
  H   H20       1.0  0.82787  0.54982  0.02089  1.0000
  H   H21       1.0  0.19928  0.37707  0.30376  1.0000
  H   H22       1.0  0.80070  0.62294  0.69624  1.0000
  H   H23       1.0  0.18365  0.56488  0.43616  1.0000
  H   H24       1.0  0.81634  0.43512  0.56385  1.0000
  H   H25       1.0  0.35921  0.45726  0.66152  1.0000
  H   H26       1.0  0.64079  0.54274  0.33849  1.0000
  H   H27       1.0  0.56540  0.16832  0.74304  1.0000
  H   H28       1.0  0.43461  0.83168  0.25695  1.0000
  C   C1        1.0  0.83144  0.04282  0.84205  1.0000
  C   C2        1.0  0.16856  0.95718  0.15795  1.0000
  C   C3        1.0  0.27427  0.91339  0.03021  1.0000
  C   C4        1.0  0.72573  0.08661  0.96979  1.0000
  C   C5        1.0  0.79638  0.21651  0.97867  1.0000
  C   C6        1.0  0.20361  0.78348  0.02133  1.0000
  C   C7        1.0  0.94896  0.25501  0.85714  1.0000
  C   C8        1.0  0.05103  0.74499  0.14287  1.0000
  C   C9        1.0  0.96984  0.14910  0.77388  1.0000
  C   C10       1.0  0.03016  0.85090  0.22613  1.0000
  C   C11       1.0  0.93949  0.21367  0.33706  1.0000
  C   C12       1.0  0.06052  0.78633  0.66294  1.0000
  C   C13       1.0  0.28456  0.34042  0.02946  1.0000
  C   C14       1.0  0.71544  0.65958  0.97053  1.0000
  C   C15       1.0  0.38771  0.16050  0.44888  1.0000
  C   C16       1.0  0.61229  0.83951  0.55111  1.0000
  C   C17       1.0  0.27692  0.33064  0.40082  1.0000
  C   C18       1.0  0.72308  0.66937  0.59919  1.0000
  C   C19       1.0  0.26780  0.43443  0.47564  1.0000
  C   C20       1.0  0.73221  0.56556  0.52435  1.0000
  C   C21       1.0  0.36927  0.37384  0.60243  1.0000
  C   C22       1.0  0.63072  0.62616  0.39758  1.0000
  C   C23       1.0  0.48227  0.21285  0.64955  1.0000
  C   C24       1.0  0.51774  0.78715  0.35044  1.0000
  C   C25       1.0  0.50301  0.89859  0.42511  1.0000
  C   C26       1.0  0.49699  0.10141  0.57489  1.0000
  N   N1        1.0  0.39062  0.05715  0.37760  1.0000
  N   N2        1.0  0.60938  0.94285  0.62240  1.0000
