data_image0
_chemical_formula_structural       Cd2H24C26N12O8
_chemical_formula_sum              "Cd2 H24 C26 N12 O8"
_cell_length_a       7.99522
_cell_length_b       8.33097
_cell_length_c       11.5916
_cell_angle_alpha    90.9265
_cell_angle_beta     103.88
_cell_angle_gamma    100.439

_space_group_name_H-M_alt    "P 1"
_space_group_IT_number       1

loop_
  _space_group_symop_operation_xyz
  'x, y, z'

loop_
  _atom_site_type_symbol
  _atom_site_label
  _atom_site_symmetry_multiplicity
  _atom_site_fract_x
  _atom_site_fract_y
  _atom_site_fract_z
  _atom_site_occupancy
  Cd  Cd1       1.0  0.10524  0.15104  0.15685  1.0000
  Cd  Cd2       1.0  0.89476  0.84896  0.84315  1.0000
  H   H1        1.0  0.08219  0.76993  0.52972  1.0000
  H   H2        1.0  0.91781  0.23007  0.47028  1.0000
  H   H3        1.0  0.06507  0.59024  0.13367  1.0000
  H   H4        1.0  0.93493  0.40976  0.86633  1.0000
  H   H5        1.0  0.79295  0.78132  0.30621  1.0000
  H   H6        1.0  0.20705  0.21869  0.69378  1.0000
  H   H7        1.0  0.90428  0.82646  0.19148  1.0000
  H   H8        1.0  0.09572  0.17354  0.80852  1.0000
  H   H9        1.0  0.37628  0.93240  0.71314  1.0000
  H   H10       1.0  0.62372  0.06760  0.28686  1.0000
  H   H11       1.0  0.60519  0.18839  0.75011  1.0000
  H   H12       1.0  0.39481  0.81161  0.24989  1.0000
  H   H13       1.0  0.61600  0.38855  0.59457  1.0000
  H   H14       1.0  0.38400  0.61145  0.40543  1.0000
  H   H15       1.0  0.41157  0.33092  0.39223  1.0000
  H   H16       1.0  0.58843  0.66908  0.60778  1.0000
  H   H17       1.0  0.47711  0.04994  0.12289  1.0000
  H   H18       1.0  0.52289  0.95007  0.87711  1.0000
  H   H19       1.0  0.48603  0.85095  0.07609  1.0000
  H   H20       1.0  0.51397  0.14905  0.92391  1.0000
  H   H21       1.0  0.55312  0.58760  0.12526  1.0000
  H   H22       1.0  0.44688  0.41240  0.87474  1.0000
  H   H23       1.0  0.63715  0.42058  0.08569  1.0000
  H   H24       1.0  0.36285  0.57943  0.91431  1.0000
  C   C1        1.0  0.02396  0.53949  0.21030  1.0000
  C   C2        1.0  0.97604  0.46051  0.78970  1.0000
  C   C3        1.0  0.91816  0.78486  0.28186  1.0000
  C   C4        1.0  0.08184  0.21514  0.71814  1.0000
  C   C5        1.0  0.06489  0.89659  0.36741  1.0000
  C   C6        1.0  0.93511  0.10341  0.63259  1.0000
  C   C7        1.0  0.26564  0.99349  0.53324  1.0000
  C   C8        1.0  0.73436  0.00650  0.46676  1.0000
  C   C9        1.0  0.38270  0.02042  0.64530  1.0000
  C   C10       1.0  0.61730  0.97957  0.35470  1.0000
  C   C11       1.0  0.50796  0.16479  0.66483  1.0000
  C   C12       1.0  0.49204  0.83521  0.33517  1.0000
  C   C13       1.0  0.51538  0.27750  0.57573  1.0000
  C   C14       1.0  0.48462  0.72250  0.42428  1.0000
  C   C15       1.0  0.40045  0.24882  0.46323  1.0000
  C   C16       1.0  0.59955  0.75119  0.53677  1.0000
  C   C17       1.0  0.27489  0.10378  0.44224  1.0000
  C   C18       1.0  0.72511  0.89622  0.55775  1.0000
  C   C19       1.0  0.25112  0.93109  0.99427  1.0000
  C   C20       1.0  0.74887  0.06891  0.00573  1.0000
  C   C21       1.0  0.44801  0.96606  0.04391  1.0000
  C   C22       1.0  0.55199  0.03395  0.95609  1.0000
  C   C23       1.0  0.37096  0.36315  0.09739  1.0000
  C   C24       1.0  0.62904  0.63685  0.90261  1.0000
  C   C25       1.0  0.52047  0.47711  0.06443  1.0000
  C   C26       1.0  0.47953  0.52289  0.93557  1.0000
  N   N1        1.0  0.03251  0.39206  0.25030  1.0000
  N   N2        1.0  0.96749  0.60794  0.74970  1.0000
  N   N3        1.0  0.96069  0.38255  0.34582  1.0000
  N   N4        1.0  0.03931  0.61745  0.65418  1.0000
  N   N5        1.0  0.90981  0.51762  0.36507  1.0000
  N   N6        1.0  0.09019  0.48238  0.63493  1.0000
  N   N7        1.0  0.94874  0.61759  0.28079  1.0000
  N   N8        1.0  0.05126  0.38241  0.71921  1.0000
  N   N9        1.0  0.12944  0.86514  0.48313  1.0000
  N   N10       1.0  0.87056  0.13486  0.51687  1.0000
  N   N11       1.0  0.14877  0.03799  0.33968  1.0000
  N   N12       1.0  0.85123  0.96201  0.66032  1.0000
  O   O1        1.0  0.15298  0.90649  0.06721  1.0000
  O   O2        1.0  0.84701  0.09351  0.93279  1.0000
  O   O3        1.0  0.19102  0.92597  0.88166  1.0000
  O   O4        1.0  0.80898  0.07403  0.11834  1.0000
  O   O5        1.0  0.21565  0.34522  0.02999  1.0000
  O   O6        1.0  0.78435  0.65477  0.97000  1.0000
  O   O7        1.0  0.40580  0.28800  0.19257  1.0000
  O   O8        1.0  0.59420  0.71200  0.80743  1.0000
