data_image0
_chemical_formula_structural       Zn2H24C32N20O8
_chemical_formula_sum              "Zn2 H24 C32 N20 O8"
_cell_length_a       8.57817
_cell_length_b       9.7735
_cell_length_c       12.0353
_cell_angle_alpha    111.887
_cell_angle_beta     110.878
_cell_angle_gamma    90.001

_space_group_name_H-M_alt    "P 1"
_space_group_IT_number       1

loop_
  _space_group_symop_operation_xyz
  'x, y, z'

loop_
  _atom_site_type_symbol
  _atom_site_label
  _atom_site_symmetry_multiplicity
  _atom_site_fract_x
  _atom_site_fract_y
  _atom_site_fract_z
  _atom_site_occupancy
  Zn  Zn1       1.0  0.45333  0.75003  0.00001  1.0000
  Zn  Zn2       1.0  0.54668  0.24997  0.99999  1.0000
  H   H1        1.0  0.29182  0.26567  0.16003  1.0000
  H   H2        1.0  0.13202  0.23424  0.83998  1.0000
  H   H3        1.0  0.70818  0.73433  0.83998  1.0000
  H   H4        1.0  0.86797  0.76576  0.16002  1.0000
  H   H5        1.0  0.09125  0.15482  0.05060  1.0000
  H   H6        1.0  0.04089  0.34510  0.94943  1.0000
  H   H7        1.0  0.90875  0.84518  0.94939  1.0000
  H   H8        1.0  0.95911  0.65490  0.05057  1.0000
  H   H9        1.0  0.55424  0.25891  0.57229  1.0000
  H   H10       1.0  0.98191  0.24084  0.42758  1.0000
  H   H11       1.0  0.44576  0.74109  0.42771  1.0000
  H   H12       1.0  0.01809  0.75916  0.57242  1.0000
  H   H13       1.0  0.65277  0.31719  0.80946  1.0000
  H   H14       1.0  0.84316  0.18282  0.19047  1.0000
  H   H15       1.0  0.34723  0.68281  0.19054  1.0000
  H   H16       1.0  0.15684  0.81718  0.80953  1.0000
  H   H17       1.0  0.24951  0.03393  0.75351  1.0000
  H   H18       1.0  0.49607  0.46623  0.24669  1.0000
  H   H19       1.0  0.75049  0.96607  0.24649  1.0000
  H   H20       1.0  0.50393  0.53377  0.75331  1.0000
  H   H21       1.0  0.13150  0.96340  0.51338  1.0000
  H   H22       1.0  0.61830  0.53656  0.48678  1.0000
  H   H23       1.0  0.86850  0.03660  0.48662  1.0000
  H   H24       1.0  0.38169  0.46344  0.51322  1.0000
  C   C1        1.0  0.29844  0.03901  0.03145  1.0000
  C   C2        1.0  0.26711  0.46090  0.96852  1.0000
  C   C3        1.0  0.70156  0.96098  0.96855  1.0000
  C   C4        1.0  0.73289  0.53911  0.03148  1.0000
  C   C5        1.0  0.21940  0.15381  0.11478  1.0000
  C   C6        1.0  0.10488  0.34607  0.88523  1.0000
  C   C7        1.0  0.78060  0.84618  0.88522  1.0000
  C   C8        1.0  0.89512  0.65393  0.11477  1.0000
  C   C9        1.0  0.25778  0.08627  0.38744  1.0000
  C   C10       1.0  0.87051  0.41354  0.61254  1.0000
  C   C11       1.0  0.74222  0.91373  0.61256  1.0000
  C   C12       1.0  0.12949  0.58646  0.38746  1.0000
  C   C13       1.0  0.33148  0.10926  0.52375  1.0000
  C   C14       1.0  0.80784  0.39060  0.47624  1.0000
  C   C15       1.0  0.66852  0.89074  0.47625  1.0000
  C   C16       1.0  0.19216  0.60940  0.52376  1.0000
  C   C17       1.0  0.48292  0.20650  0.60855  1.0000
  C   C18       1.0  0.87442  0.29338  0.39140  1.0000
  C   C19       1.0  0.51708  0.79350  0.39145  1.0000
  C   C20       1.0  0.12558  0.70662  0.60859  1.0000
  C   C21       1.0  0.53801  0.23956  0.74033  1.0000
  C   C22       1.0  0.79766  0.26046  0.25966  1.0000
  C   C23       1.0  0.46199  0.76044  0.25967  1.0000
  C   C24       1.0  0.20234  0.73954  0.74034  1.0000
  C   C25       1.0  0.31196  0.08164  0.70892  1.0000
  C   C26       1.0  0.60310  0.41844  0.29118  1.0000
  C   C27       1.0  0.68804  0.91836  0.29108  1.0000
  C   C28       1.0  0.39690  0.58156  0.70882  1.0000
  C   C29       1.0  0.24751  0.04242  0.57575  1.0000
  C   C30       1.0  0.67189  0.45754  0.42436  1.0000
  C   C31       1.0  0.75249  0.95758  0.42425  1.0000
  C   C32       1.0  0.32811  0.54246  0.57564  1.0000
  N   N1        1.0  0.32306  0.15792  0.33400  1.0000
  N   N2        1.0  0.98926  0.34189  0.66599  1.0000
  N   N3        1.0  0.67694  0.84208  0.66600  1.0000
  N   N4        1.0  0.01074  0.65811  0.33401  1.0000
  N   N5        1.0  0.20484  0.11386  0.21540  1.0000
  N   N6        1.0  0.98963  0.38603  0.78457  1.0000
  N   N7        1.0  0.79516  0.88614  0.78460  1.0000
  N   N8        1.0  0.01037  0.61397  0.21543  1.0000
  N   N9        1.0  0.07418  0.01919  0.19319  1.0000
  N   N10       1.0  0.88117  0.48066  0.80679  1.0000
  N   N11       1.0  0.92582  0.98081  0.80681  1.0000
  N   N12       1.0  0.11883  0.51934  0.19321  1.0000
  N   N13       1.0  0.10563  0.00107  0.30179  1.0000
  N   N14       1.0  0.80401  0.49877  0.69816  1.0000
  N   N15       1.0  0.89437  0.99893  0.69821  1.0000
  N   N16       1.0  0.19599  0.50123  0.30184  1.0000
  N   N17       1.0  0.45232  0.18146  0.79102  1.0000
  N   N18       1.0  0.66132  0.31860  0.20902  1.0000
  N   N19       1.0  0.54768  0.81854  0.20898  1.0000
  N   N20       1.0  0.33868  0.68140  0.79098  1.0000
  O   O1        1.0  0.29021  0.91049  0.03259  1.0000
  O   O2        1.0  0.25761  0.58949  0.96754  1.0000
  O   O3        1.0  0.70980  0.08951  0.96741  1.0000
  O   O4        1.0  0.74239  0.41051  0.03246  1.0000
  O   O5        1.0  0.35527  0.08063  0.96387  1.0000
  O   O6        1.0  0.39155  0.41926  0.03604  1.0000
  O   O7        1.0  0.64473  0.91937  0.03613  1.0000
  O   O8        1.0  0.60845  0.58074  0.96396  1.0000
