data_image0
_chemical_formula_structural       Zn2H16C12N18O12
_chemical_formula_sum              "Zn2 H16 C12 N18 O12"
_cell_length_a       9.02164
_cell_length_b       9.53264
_cell_length_c       10.6247
_cell_angle_alpha    106.868
_cell_angle_beta     98.8226
_cell_angle_gamma    124.89

_space_group_name_H-M_alt    "P 1"
_space_group_IT_number       1

loop_
  _space_group_symop_operation_xyz
  'x, y, z'

loop_
  _atom_site_type_symbol
  _atom_site_label
  _atom_site_symmetry_multiplicity
  _atom_site_fract_x
  _atom_site_fract_y
  _atom_site_fract_z
  _atom_site_occupancy
  Zn  Zn1       1.0  0.89610  0.04253  0.29501  1.0000
  Zn  Zn2       1.0  0.10389  0.95747  0.70499  1.0000
  H   H1        1.0  0.78790  0.88163  0.46063  1.0000
  H   H2        1.0  0.21211  0.11837  0.53937  1.0000
  H   H3        1.0  0.66744  0.70402  0.30112  1.0000
  H   H4        1.0  0.33257  0.29599  0.69888  1.0000
  H   H5        1.0  0.01965  0.36162  0.47971  1.0000
  H   H6        1.0  0.98036  0.63839  0.52030  1.0000
  H   H7        1.0  0.91113  0.22644  0.55419  1.0000
  H   H8        1.0  0.08889  0.77357  0.44582  1.0000
  H   H9        1.0  0.12857  0.51769  0.11864  1.0000
  H   H10       1.0  0.87143  0.48232  0.88137  1.0000
  H   H11       1.0  0.36017  0.66029  0.26903  1.0000
  H   H12       1.0  0.63984  0.33971  0.73097  1.0000
  H   H13       1.0  0.59315  0.77469  0.71294  1.0000
  H   H14       1.0  0.40686  0.22531  0.28705  1.0000
  H   H15       1.0  0.81729  0.97330  0.87072  1.0000
  H   H16       1.0  0.18271  0.02669  0.12928  1.0000
  C   C1        1.0  0.53814  0.16082  0.94085  1.0000
  C   C2        1.0  0.46185  0.83916  0.05914  1.0000
  C   C3        1.0  0.42522  0.31588  0.03652  1.0000
  C   C4        1.0  0.57479  0.68411  0.96347  1.0000
  C   C5        1.0  0.22744  0.51349  0.18824  1.0000
  C   C6        1.0  0.77255  0.48652  0.81177  1.0000
  C   C7        1.0  0.11455  0.39476  0.26398  1.0000
  C   C8        1.0  0.88546  0.60526  0.73604  1.0000
  C   C9        1.0  0.79552  0.02418  0.68476  1.0000
  C   C10       1.0  0.20448  0.97579  0.31525  1.0000
  C   C11       1.0  0.70153  0.93221  0.77866  1.0000
  C   C12       1.0  0.29848  0.06778  0.22134  1.0000
  N   N1        1.0  0.37108  0.00451  0.81442  1.0000
  N   N2        1.0  0.62889  0.99546  0.18556  1.0000
  N   N3        1.0  0.41145  0.90201  0.74681  1.0000
  N   N4        1.0  0.58852  0.09795  0.25317  1.0000
  N   N5        1.0  0.59987  0.99340  0.83074  1.0000
  N   N6        1.0  0.40014  0.00659  0.16926  1.0000
  N   N7        1.0  0.68462  0.15161  0.94915  1.0000
  N   N8        1.0  0.31537  0.84839  0.05085  1.0000
  N   N9        1.0  0.56418  0.30116  0.04520  1.0000
  N   N10       1.0  0.43580  0.69883  0.95478  1.0000
  N   N11       1.0  0.44793  0.45069  0.14924  1.0000
  N   N12       1.0  0.55208  0.54932  0.85076  1.0000
  N   N13       1.0  0.28598  0.42414  0.09946  1.0000
  N   N14       1.0  0.71402  0.57587  0.90055  1.0000
  N   N15       1.0  0.16199  0.28139  0.96340  1.0000
  N   N16       1.0  0.83798  0.71860  0.03658  1.0000
  N   N17       1.0  0.24597  0.21251  0.92261  1.0000
  N   N18       1.0  0.75398  0.78747  0.07735  1.0000
  O   O1        1.0  0.09212  0.47770  0.36336  1.0000
  O   O2        1.0  0.90791  0.52233  0.63665  1.0000
  O   O3        1.0  0.05725  0.22451  0.21435  1.0000
  O   O4        1.0  0.94275  0.77550  0.78567  1.0000
  O   O5        1.0  0.71687  0.83551  0.35607  1.0000
  O   O6        1.0  0.28315  0.16449  0.64393  1.0000
  O   O7        1.0  0.99250  0.25401  0.49656  1.0000
  O   O8        1.0  0.00750  0.74599  0.50345  1.0000
  O   O9        1.0  0.87717  0.96228  0.63034  1.0000
  O   O10       1.0  0.12283  0.03773  0.36966  1.0000
  O   O11       1.0  0.78003  0.13743  0.66364  1.0000
  O   O12       1.0  0.21998  0.86259  0.33637  1.0000
