data_image0
_chemical_formula_structural       FeH38C28S4N8O4
_chemical_formula_sum              "Fe1 H38 C28 S4 N8 O4"
_cell_length_a       9.69252
_cell_length_b       9.73435
_cell_length_c       9.94719
_cell_angle_alpha    101.164
_cell_angle_beta     95.9843
_cell_angle_gamma    96.8604

_space_group_name_H-M_alt    "P 1"
_space_group_IT_number       1

loop_
  _space_group_symop_operation_xyz
  'x, y, z'

loop_
  _atom_site_type_symbol
  _atom_site_label
  _atom_site_symmetry_multiplicity
  _atom_site_fract_x
  _atom_site_fract_y
  _atom_site_fract_z
  _atom_site_occupancy
  Fe  Fe1       1.0  0.48698  0.51541  0.50880  1.0000
  H   H1        1.0  0.30187  0.17066  0.22504  1.0000
  H   H2        1.0  0.69758  0.82811  0.77597  1.0000
  H   H3        1.0  0.46315  0.10093  0.24065  1.0000
  H   H4        1.0  0.53696  0.89871  0.76017  1.0000
  H   H5        1.0  0.15853  0.12351  0.69805  1.0000
  H   H6        1.0  0.84326  0.87436  0.30155  1.0000
  H   H7        1.0  0.49943  0.22538  0.00957  1.0000
  H   H8        1.0  0.50158  0.77332  0.99096  1.0000
  H   H9        1.0  0.33672  0.27342  0.05373  1.0000
  H   H10       1.0  0.66437  0.72644  0.94603  1.0000
  H   H11       1.0  0.39030  0.08531  0.78297  1.0000
  H   H12       1.0  0.61194  0.91288  0.21821  1.0000
  H   H13       1.0  0.35702  0.26371  0.80718  1.0000
  H   H14       1.0  0.64464  0.73425  0.19238  1.0000
  H   H15       1.0  0.14485  0.31661  0.89473  1.0000
  H   H16       1.0  0.85632  0.68055  0.10587  1.0000
  H   H17       1.0  0.09669  0.18371  0.98732  1.0000
  H   H18       1.0  0.90421  0.81244  0.01205  1.0000
  H   H19       1.0  0.89927  0.29047  0.85982  1.0000
  H   H20       1.0  0.10241  0.70694  0.13833  1.0000
  H   H21       1.0  0.93830  0.18621  0.70428  1.0000
  H   H22       1.0  0.06382  0.81001  0.29475  1.0000
  H   H23       1.0  0.71670  0.03806  0.66915  1.0000
  H   H24       1.0  0.28384  0.95971  0.33064  1.0000
  H   H25       1.0  0.67072  0.14600  0.82151  1.0000
  H   H26       1.0  0.33096  0.85316  0.17788  1.0000
  H   H27       1.0  0.13905  0.95161  0.91420  1.0000
  H   H28       1.0  0.86231  0.04472  0.08378  1.0000
  H   H29       1.0  0.02584  0.93467  0.75606  1.0000
  H   H30       1.0  0.97610  0.06302  0.24180  1.0000
  H   H31       1.0  0.24179  0.94879  0.55086  1.0000
  H   H32       1.0  0.76872  0.05418  0.45081  1.0000
  H   H33       1.0  0.37948  0.76723  0.44302  1.0000
  H   H34       1.0  0.63319  0.24017  0.55995  1.0000
  H   H35       1.0  0.35482  0.55487  0.76467  1.0000
  H   H36       1.0  0.63923  0.43784  0.22807  1.0000
  H   H37       1.0  0.22413  0.73181  0.89029  1.0000
  H   H38       1.0  0.77158  0.25926  0.10234  1.0000
  C   C1        1.0  0.35493  0.07930  0.18645  1.0000
  C   C2        1.0  0.64518  0.91995  0.81429  1.0000
  C   C3        1.0  0.38565  0.18820  0.99512  1.0000
  C   C4        1.0  0.61527  0.81102  0.00532  1.0000
  C   C5        1.0  0.33568  0.16389  0.84221  1.0000
  C   C6        1.0  0.66595  0.83441  0.15797  1.0000
  C   C7        1.0  0.09299  0.20762  0.88373  1.0000
  C   C8        1.0  0.90829  0.78937  0.11599  1.0000
  C   C9        1.0  0.94291  0.19378  0.81710  1.0000
  C   C10       1.0  0.05863  0.80328  0.18201  1.0000
  C   C11       1.0  0.72036  0.05217  0.78251  1.0000
  C   C12       1.0  0.28050  0.94625  0.21738  1.0000
  C   C13       1.0  0.13543  0.95888  0.80543  1.0000
  C   C14       1.0  0.86644  0.03851  0.19280  1.0000
  C   C15       1.0  0.22098  0.85693  0.73195  1.0000
  C   C16       1.0  0.78140  0.14133  0.26607  1.0000
  C   C17       1.0  0.26565  0.86422  0.60365  1.0000
  C   C18       1.0  0.74169  0.13697  0.39689  1.0000
  C   C19       1.0  0.34185  0.76331  0.54163  1.0000
  C   C20       1.0  0.66666  0.23993  0.45858  1.0000
  C   C21       1.0  0.32710  0.64336  0.72067  1.0000
  C   C22       1.0  0.67125  0.35177  0.27424  1.0000
  C   C23       1.0  0.25359  0.74302  0.78970  1.0000
  C   C24       1.0  0.74512  0.25190  0.20482  1.0000
  C   C25       1.0  0.36416  0.53836  0.21336  1.0000
  C   C26       1.0  0.62743  0.47105  0.79034  1.0000
  C   C27       1.0  0.24596  0.27693  0.50387  1.0000
  C   C28       1.0  0.74304  0.73305  0.50155  1.0000
  S   S1        1.0  0.30400  0.55268  0.05829  1.0000
  S   S2        1.0  0.69902  0.44492  0.93715  1.0000
  S   S3        1.0  0.11081  0.15622  0.49678  1.0000
  S   S4        1.0  0.88967  0.83563  0.50099  1.0000
  N   N1        1.0  0.18061  0.11239  0.80234  1.0000
  N   N2        1.0  0.82120  0.88539  0.19725  1.0000
  N   N3        1.0  0.37345  0.65315  0.59844  1.0000
  N   N4        1.0  0.63182  0.34493  0.39818  1.0000
  N   N5        1.0  0.40967  0.52829  0.32582  1.0000
  N   N6        1.0  0.57422  0.49029  0.68406  1.0000
  N   N7        1.0  0.34301  0.36364  0.50669  1.0000
  N   N8        1.0  0.63876  0.65805  0.50451  1.0000
  O   O1        1.0  0.35416  0.05965  0.04064  1.0000
  O   O2        1.0  0.64593  0.93994  0.96014  1.0000
  O   O3        1.0  0.86277  0.07227  0.84601  1.0000
  O   O4        1.0  0.13816  0.92538  0.15362  1.0000
