data_image0
_chemical_formula_structural       Zn4H16C24N20Cl4
_chemical_formula_sum              "Zn4 H16 C24 N20 Cl4"
_cell_length_a       6.12663
_cell_length_b       9.48336
_cell_length_c       14.3667
_cell_angle_alpha    89.9996
_cell_angle_beta     89.9997
_cell_angle_gamma    97.618

_space_group_name_H-M_alt    "P 1"
_space_group_IT_number       1

loop_
  _space_group_symop_operation_xyz
  'x, y, z'

loop_
  _atom_site_type_symbol
  _atom_site_label
  _atom_site_symmetry_multiplicity
  _atom_site_fract_x
  _atom_site_fract_y
  _atom_site_fract_z
  _atom_site_occupancy
  Zn  Zn1       1.0  0.05154  0.70784  0.68607  1.0000
  Zn  Zn2       1.0  0.05154  0.20783  0.31394  1.0000
  Zn  Zn3       1.0  0.54965  0.12460  0.80126  1.0000
  Zn  Zn4       1.0  0.54965  0.62460  0.19874  1.0000
  H   H1        1.0  0.59816  0.46473  0.54781  1.0000
  H   H2        1.0  0.59815  0.96471  0.45219  1.0000
  H   H3        1.0  0.10032  0.23236  0.66226  1.0000
  H   H4        1.0  0.10029  0.73235  0.33774  1.0000
  H   H5        1.0  0.33887  0.69015  0.85340  1.0000
  H   H6        1.0  0.33888  0.19015  0.14660  1.0000
  H   H7        1.0  0.18982  0.16769  0.50201  1.0000
  H   H8        1.0  0.18984  0.66769  0.49799  1.0000
  H   H9        1.0  0.70263  0.38445  0.39046  1.0000
  H   H10       1.0  0.70264  0.88445  0.60954  1.0000
  H   H11       1.0  0.53976  0.58714  0.98074  1.0000
  H   H12       1.0  0.53977  0.08714  0.01926  1.0000
  H   H13       1.0  0.15703  0.74757  0.18374  1.0000
  H   H14       1.0  0.15702  0.24755  0.81626  1.0000
  H   H15       1.0  0.93659  0.85692  0.06359  1.0000
  H   H16       1.0  0.93659  0.35691  0.93641  1.0000
  C   C1        1.0  0.78981  0.40638  0.71152  1.0000
  C   C2        1.0  0.78980  0.90637  0.28848  1.0000
  C   C3        1.0  0.12011  0.78467  0.94893  1.0000
  C   C4        1.0  0.12012  0.28467  0.05107  1.0000
  C   C5        1.0  0.99287  0.85714  0.88237  1.0000
  C   C6        1.0  0.99288  0.35714  0.11763  1.0000
  C   C7        1.0  0.84070  0.35540  0.61831  1.0000
  C   C8        1.0  0.84070  0.85539  0.38169  1.0000
  C   C9        1.0  0.72882  0.39785  0.54038  1.0000
  C   C10       1.0  0.72882  0.89785  0.45962  1.0000
  C   C11       1.0  0.00636  0.26936  0.60508  1.0000
  C   C12       1.0  0.00637  0.76936  0.39492  1.0000
  C   C13       1.0  0.29053  0.70587  0.92543  1.0000
  C   C14       1.0  0.29055  0.20587  0.07458  1.0000
  C   C15       1.0  0.05742  0.23148  0.51520  1.0000
  C   C16       1.0  0.05742  0.73148  0.48479  1.0000
  C   C17       1.0  0.78627  0.35347  0.45252  1.0000
  C   C18       1.0  0.78627  0.85347  0.54748  1.0000
  C   C19       1.0  0.40477  0.64752  0.99664  1.0000
  C   C20       1.0  0.40478  0.14751  0.00337  1.0000
  C   C21       1.0  0.19118  0.73749  0.10975  1.0000
  C   C22       1.0  0.19118  0.23748  0.89026  1.0000
  C   C23       1.0  0.07014  0.79841  0.04348  1.0000
  C   C24       1.0  0.07014  0.29841  0.95653  1.0000
  N   N1        1.0  0.84036  0.54176  0.73938  1.0000
  N   N2        1.0  0.84036  0.04175  0.26062  1.0000
  N   N3        1.0  0.85788  0.95043  0.90932  1.0000
  N   N4        1.0  0.85789  0.45043  0.09068  1.0000
  N   N5        1.0  0.76192  0.54944  0.82701  1.0000
  N   N6        1.0  0.76192  0.04944  0.17299  1.0000
  N   N7        1.0  0.85254  0.93188  0.75660  1.0000
  N   N8        1.0  0.85254  0.43187  0.24340  1.0000
  N   N9        1.0  0.99044  0.84594  0.78809  1.0000
  N   N10       1.0  0.99044  0.34594  0.21191  1.0000
  N   N11       1.0  0.66747  0.42444  0.85184  1.0000
  N   N12       1.0  0.66747  0.92444  0.14816  1.0000
  N   N13       1.0  0.68396  0.33108  0.78105  1.0000
  N   N14       1.0  0.68395  0.83107  0.21895  1.0000
  N   N15       1.0  0.95005  0.27290  0.44005  1.0000
  N   N16       1.0  0.95005  0.77289  0.55995  1.0000
  N   N17       1.0  0.77495  0.99342  0.82979  1.0000
  N   N18       1.0  0.77495  0.49342  0.17021  1.0000
  N   N19       1.0  0.35741  0.66335  0.08755  1.0000
  N   N20       1.0  0.35742  0.16334  0.91245  1.0000
  Cl  Cl1       1.0  0.37072  0.62548  0.66970  1.0000
  Cl  Cl2       1.0  0.37072  0.12549  0.33030  1.0000
  Cl  Cl3       1.0  0.38286  0.05096  0.66980  1.0000
  Cl  Cl4       1.0  0.38286  0.55096  0.33020  1.0000
