data_image0
_chemical_formula_structural       Ni2H12C8N28
_chemical_formula_sum              "Ni2 H12 C8 N28"
_cell_length_a       6.43305
_cell_length_b       9.51569
_cell_length_c       9.81459
_cell_angle_alpha    67.4941
_cell_angle_beta     81.0929
_cell_angle_gamma    67.1126

_space_group_name_H-M_alt    "P 1"
_space_group_IT_number       1

loop_
  _space_group_symop_operation_xyz
  'x, y, z'

loop_
  _atom_site_type_symbol
  _atom_site_label
  _atom_site_symmetry_multiplicity
  _atom_site_fract_x
  _atom_site_fract_y
  _atom_site_fract_z
  _atom_site_occupancy
  Ni  Ni1       1.0  1.00000  1.00000  0.00000  1.0000
  Ni  Ni2       1.0  0.50000  0.00000  0.50000  1.0000
  H   H1        1.0  0.53808  0.87415  0.06398  1.0000
  H   H2        1.0  0.46193  0.12585  0.93603  1.0000
  H   H3        1.0  0.91145  0.61811  0.09944  1.0000
  H   H4        1.0  0.08856  0.38189  0.90056  1.0000
  H   H5        1.0  0.87817  0.43345  0.11883  1.0000
  H   H6        1.0  0.12183  0.56655  0.88118  1.0000
  H   H7        1.0  0.78772  0.21458  0.28061  1.0000
  H   H8        1.0  0.21227  0.78542  0.71939  1.0000
  H   H9        1.0  0.81233  0.57313  0.36662  1.0000
  H   H10       1.0  0.18767  0.42687  0.63338  1.0000
  H   H11       1.0  0.05971  0.41598  0.33614  1.0000
  H   H12       1.0  0.94029  0.58402  0.66387  1.0000
  C   C1        1.0  0.46467  0.78389  0.08039  1.0000
  C   C2        1.0  0.53534  0.21610  0.91962  1.0000
  C   C3        1.0  0.82165  0.53485  0.16001  1.0000
  C   C4        1.0  0.17834  0.46515  0.83998  1.0000
  C   C5        1.0  0.73751  0.23989  0.38205  1.0000
  C   C6        1.0  0.26249  0.76011  0.61795  1.0000
  C   C7        1.0  0.87535  0.47338  0.32333  1.0000
  C   C8        1.0  0.12466  0.52662  0.67667  1.0000
  N   N1        1.0  0.24897  0.15185  0.22359  1.0000
  N   N2        1.0  0.75103  0.84815  0.77642  1.0000
  N   N3        1.0  0.18665  0.10343  0.72284  1.0000
  N   N4        1.0  0.81335  0.89657  0.27716  1.0000
  N   N5        1.0  0.58211  0.62301  0.12695  1.0000
  N   N6        1.0  0.41789  0.37699  0.87306  1.0000
  N   N7        1.0  0.63629  0.16310  0.49802  1.0000
  N   N8        1.0  0.36371  0.83691  0.50198  1.0000
  N   N9        1.0  0.25213  0.80474  0.06416  1.0000
  N   N10       1.0  0.74787  0.19525  0.93584  1.0000
  N   N11       1.0  0.38404  0.15753  0.29010  1.0000
  N   N12       1.0  0.61595  0.84247  0.70990  1.0000
  N   N13       1.0  0.77301  0.35410  0.41357  1.0000
  N   N14       1.0  0.22699  0.64590  0.58643  1.0000
  N   N15       1.0  0.69393  0.34689  0.55139  1.0000
  N   N16       1.0  0.30607  0.65311  0.44861  1.0000
  N   N17       1.0  0.61154  0.23154  0.60122  1.0000
  N   N18       1.0  0.38846  0.76847  0.39879  1.0000
  N   N19       1.0  0.20331  0.12233  0.59650  1.0000
  N   N20       1.0  0.79668  0.87767  0.40350  1.0000
  N   N21       1.0  0.44035  0.54364  0.14047  1.0000
  N   N22       1.0  0.55965  0.45636  0.85953  1.0000
  N   N23       1.0  0.24214  0.65353  0.10295  1.0000
  N   N24       1.0  0.75786  0.34647  0.89705  1.0000
  N   N25       1.0  0.17913  0.09416  0.84841  1.0000
  N   N26       1.0  0.82087  0.90584  0.15159  1.0000
  N   N27       1.0  0.11437  0.15350  0.15292  1.0000
  N   N28       1.0  0.88563  0.84650  0.84708  1.0000
