data_image0
_chemical_formula_structural       Ni2H28C28N16O4
_chemical_formula_sum              "Ni2 H28 C28 N16 O4"
_cell_length_a       7.87097
_cell_length_b       8.24766
_cell_length_c       11.9279
_cell_angle_alpha    89.9982
_cell_angle_beta     89.3689
_cell_angle_gamma    89.9996

_space_group_name_H-M_alt    "P 1"
_space_group_IT_number       1

loop_
  _space_group_symop_operation_xyz
  'x, y, z'

loop_
  _atom_site_type_symbol
  _atom_site_label
  _atom_site_symmetry_multiplicity
  _atom_site_fract_x
  _atom_site_fract_y
  _atom_site_fract_z
  _atom_site_occupancy
  Ni  Ni1       1.0  0.99999  0.50000  1.00000  1.0000
  Ni  Ni2       1.0  0.50000  0.00000  0.00000  1.0000
  H   H1        1.0  0.00903  0.95747  0.82158  1.0000
  H   H2        1.0  0.49096  0.45747  0.17842  1.0000
  H   H3        1.0  0.99095  0.04253  0.17843  1.0000
  H   H4        1.0  0.50904  0.54254  0.82157  1.0000
  H   H5        1.0  0.08924  0.54064  0.76064  1.0000
  H   H6        1.0  0.41077  0.04063  0.23937  1.0000
  H   H7        1.0  0.91076  0.45935  0.23935  1.0000
  H   H8        1.0  0.58923  0.95937  0.76064  1.0000
  H   H9        1.0  0.12563  0.77121  0.55274  1.0000
  H   H10       1.0  0.37436  0.27121  0.44727  1.0000
  H   H11       1.0  0.87434  0.22877  0.44727  1.0000
  H   H12       1.0  0.62566  0.72879  0.55272  1.0000
  H   H13       1.0  0.95882  0.82676  0.65023  1.0000
  H   H14       1.0  0.54118  0.32674  0.34977  1.0000
  H   H15       1.0  0.04116  0.17323  0.34978  1.0000
  H   H16       1.0  0.45884  0.67325  0.65022  1.0000
  H   H17       1.0  0.16825  0.79718  0.69861  1.0000
  H   H18       1.0  0.33173  0.29719  0.30141  1.0000
  H   H19       1.0  0.83174  0.20280  0.30140  1.0000
  H   H20       1.0  0.66828  0.70282  0.69859  1.0000
  H   H21       1.0  0.94417  0.15973  0.96862  1.0000
  H   H22       1.0  0.55581  0.65973  0.03137  1.0000
  H   H23       1.0  0.05582  0.84028  0.03137  1.0000
  H   H24       1.0  0.44419  0.34029  0.96863  1.0000
  H   H25       1.0  0.15727  0.35248  0.60321  1.0000
  H   H26       1.0  0.34276  0.85247  0.39680  1.0000
  H   H27       1.0  0.84274  0.64751  0.39679  1.0000
  H   H28       1.0  0.65725  0.14752  0.60320  1.0000
  C   C1        1.0  0.02817  0.08547  0.80393  1.0000
  C   C2        1.0  0.47184  0.58545  0.19607  1.0000
  C   C3        1.0  0.97183  0.91453  0.19608  1.0000
  C   C4        1.0  0.52816  0.41456  0.80392  1.0000
  C   C5        1.0  0.13799  0.01710  0.60974  1.0000
  C   C6        1.0  0.36203  0.51710  0.39027  1.0000
  C   C7        1.0  0.86201  0.98290  0.39027  1.0000
  C   C8        1.0  0.63798  0.48290  0.60973  1.0000
  C   C9        1.0  0.07534  0.41031  0.77085  1.0000
  C   C10       1.0  0.42467  0.91031  0.22914  1.0000
  C   C11       1.0  0.92466  0.58968  0.22914  1.0000
  C   C12       1.0  0.57532  0.08969  0.77085  1.0000
  C   C13       1.0  0.09066  0.13697  0.69993  1.0000
  C   C14       1.0  0.40935  0.63698  0.30008  1.0000
  C   C15       1.0  0.90933  0.86302  0.30008  1.0000
  C   C16       1.0  0.59066  0.36302  0.69991  1.0000
  C   C17       1.0  0.09333  0.84230  0.62742  1.0000
  C   C18       1.0  0.40666  0.34230  0.37259  1.0000
  C   C19       1.0  0.90665  0.15769  0.37259  1.0000
  C   C20       1.0  0.59335  0.65770  0.62740  1.0000
  C   C21       1.0  0.99397  0.19833  0.88771  1.0000
  C   C22       1.0  0.50602  0.69833  0.11230  1.0000
  C   C23       1.0  0.00602  0.80167  0.11229  1.0000
  C   C24       1.0  0.49398  0.30168  0.88770  1.0000
  C   C25       1.0  0.11161  0.30444  0.68332  1.0000
  C   C26       1.0  0.38841  0.80445  0.31669  1.0000
  C   C27       1.0  0.88837  0.69555  0.31668  1.0000
  C   C28       1.0  0.61161  0.19556  0.68331  1.0000
  N   N1        1.0  0.73238  0.31825  0.08915  1.0000
  N   N2        1.0  0.76759  0.81825  0.91084  1.0000
  N   N3        1.0  0.26762  0.68176  0.91084  1.0000
  N   N4        1.0  0.23240  0.18177  0.08917  1.0000
  N   N5        1.0  0.02037  0.35833  0.87284  1.0000
  N   N6        1.0  0.47963  0.85831  0.12715  1.0000
  N   N7        1.0  0.97963  0.64167  0.12715  1.0000
  N   N8        1.0  0.52037  0.14170  0.87285  1.0000
  N   N9        1.0  0.77717  0.42425  0.02637  1.0000
  N   N10       1.0  0.72285  0.92425  0.97364  1.0000
  N   N11       1.0  0.22283  0.57575  0.97363  1.0000
  N   N12       1.0  0.27715  0.07576  0.02636  1.0000
  N   N13       1.0  0.67091  0.21718  0.14594  1.0000
  N   N14       1.0  0.82909  0.71718  0.85406  1.0000
  N   N15       1.0  0.32909  0.78283  0.85406  1.0000
  N   N16       1.0  0.17090  0.28282  0.14594  1.0000
  O   O1        1.0  0.21601  0.06382  0.52540  1.0000
  O   O2        1.0  0.28402  0.56383  0.47460  1.0000
  O   O3        1.0  0.78398  0.93615  0.47460  1.0000
  O   O4        1.0  0.71601  0.43616  0.52540  1.0000
