data_image0
_chemical_formula_structural       Zn8H56C40O44
_chemical_formula_sum              "Zn8 H56 C40 O44"
_cell_length_a       8.25406
_cell_length_b       8.96657
_cell_length_c       19.1793
_cell_angle_alpha    103.603
_cell_angle_beta     90
_cell_angle_gamma    90

_space_group_name_H-M_alt    "P 1"
_space_group_IT_number       1

loop_
  _space_group_symop_operation_xyz
  'x, y, z'

loop_
  _atom_site_type_symbol
  _atom_site_label
  _atom_site_symmetry_multiplicity
  _atom_site_fract_x
  _atom_site_fract_y
  _atom_site_fract_z
  _atom_site_occupancy
  Zn  Zn1       1.0  0.12139  0.20158  0.87541  1.0000
  Zn  Zn2       1.0  0.62140  0.29842  0.62459  1.0000
  Zn  Zn3       1.0  0.87861  0.79843  0.12459  1.0000
  Zn  Zn4       1.0  0.37861  0.70158  0.37541  1.0000
  Zn  Zn5       1.0  0.27056  0.25754  0.50440  1.0000
  Zn  Zn6       1.0  0.77056  0.24245  0.99560  1.0000
  Zn  Zn7       1.0  0.72944  0.74246  0.49560  1.0000
  Zn  Zn8       1.0  0.22944  0.75755  0.00440  1.0000
  H   H1        1.0  0.14888  0.67318  0.57067  1.0000
  H   H2        1.0  0.64889  0.82682  0.92933  1.0000
  H   H3        1.0  0.85112  0.32682  0.42933  1.0000
  H   H4        1.0  0.35112  0.17318  0.07067  1.0000
  H   H5        1.0  0.04443  0.87139  0.66197  1.0000
  H   H6        1.0  0.54443  0.62861  0.83803  1.0000
  H   H7        1.0  0.95557  0.12860  0.33803  1.0000
  H   H8        1.0  0.45557  0.37140  0.16197  1.0000
  H   H9        1.0  0.08629  0.95416  0.58928  1.0000
  H   H10       1.0  0.58628  0.54584  0.91072  1.0000
  H   H11       1.0  0.91372  0.04583  0.41072  1.0000
  H   H12       1.0  0.41371  0.45417  0.08928  1.0000
  H   H13       1.0  0.16289  0.11953  0.70877  1.0000
  H   H14       1.0  0.66289  0.38047  0.79123  1.0000
  H   H15       1.0  0.83710  0.88047  0.29122  1.0000
  H   H16       1.0  0.33710  0.61953  0.20878  1.0000
  H   H17       1.0  0.23427  0.65925  0.68612  1.0000
  H   H18       1.0  0.73427  0.84075  0.81388  1.0000
  H   H19       1.0  0.76573  0.34075  0.31388  1.0000
  H   H20       1.0  0.26573  0.15925  0.18612  1.0000
  H   H21       1.0  0.48306  0.76955  0.74660  1.0000
  H   H22       1.0  0.98306  0.73045  0.75340  1.0000
  H   H23       1.0  0.51694  0.23045  0.25340  1.0000
  H   H24       1.0  0.01694  0.26955  0.24660  1.0000
  H   H25       1.0  0.53673  0.85175  0.67478  1.0000
  H   H26       1.0  0.03673  0.64825  0.82522  1.0000
  H   H27       1.0  0.46326  0.14825  0.32523  1.0000
  H   H28       1.0  0.96326  0.35175  0.17477  1.0000
  H   H29       1.0  0.22971  0.91757  0.76573  1.0000
  H   H30       1.0  0.72971  0.58243  0.73427  1.0000
  H   H31       1.0  0.77028  0.08243  0.23427  1.0000
  H   H32       1.0  0.27028  0.41757  0.26573  1.0000
  H   H33       1.0  0.05572  0.37125  0.60151  1.0000
  H   H34       1.0  0.55572  0.12874  0.89849  1.0000
  H   H35       1.0  0.94428  0.62875  0.39849  1.0000
  H   H36       1.0  0.44428  0.87125  0.10151  1.0000
  H   H37       1.0  0.94623  0.27117  0.53866  1.0000
  H   H38       1.0  0.44623  0.22882  0.96134  1.0000
  H   H39       1.0  0.05377  0.72883  0.46134  1.0000
  H   H40       1.0  0.55377  0.77117  0.03866  1.0000
  H   H41       1.0  0.28805  0.40049  0.39386  1.0000
  H   H42       1.0  0.78806  0.09950  0.10614  1.0000
  H   H43       1.0  0.71195  0.59951  0.60615  1.0000
  H   H44       1.0  0.21195  0.90049  0.89385  1.0000
  H   H45       1.0  0.12447  0.44727  0.43630  1.0000
  H   H46       1.0  0.62448  0.05273  0.06370  1.0000
  H   H47       1.0  0.87553  0.55273  0.56370  1.0000
  H   H48       1.0  0.37552  0.94727  0.93630  1.0000
  H   H49       1.0  0.21739  0.02315  0.38896  1.0000
  H   H50       1.0  0.71739  0.47685  0.11104  1.0000
  H   H51       1.0  0.78261  0.97685  0.61104  1.0000
  H   H52       1.0  0.28261  0.52315  0.88896  1.0000
  H   H53       1.0  0.22968  0.95757  0.45825  1.0000
  H   H54       1.0  0.72968  0.54242  0.04175  1.0000
  H   H55       1.0  0.77032  0.04242  0.54175  1.0000
  H   H56       1.0  0.27032  0.45758  0.95825  1.0000
  C   C1        1.0  0.35175  0.77560  0.53559  1.0000
  C   C2        1.0  0.85174  0.72440  0.96441  1.0000
  C   C3        1.0  0.64826  0.22439  0.46441  1.0000
  C   C4        1.0  0.14826  0.27561  0.03559  1.0000
  C   C5        1.0  0.23797  0.75980  0.59621  1.0000
  C   C6        1.0  0.73798  0.74020  0.90379  1.0000
  C   C7        1.0  0.76203  0.24020  0.40379  1.0000
  C   C8        1.0  0.26203  0.25981  0.09621  1.0000
  C   C9        1.0  0.14314  0.90607  0.63057  1.0000
  C   C10       1.0  0.64314  0.59393  0.86943  1.0000
  C   C11       1.0  0.85686  0.09392  0.36943  1.0000
  C   C12       1.0  0.35685  0.40608  0.13057  1.0000
  C   C13       1.0  0.24558  0.02805  0.68064  1.0000
  C   C14       1.0  0.74558  0.47195  0.81936  1.0000
  C   C15       1.0  0.75442  0.97195  0.31936  1.0000
  C   C16       1.0  0.25441  0.52805  0.18064  1.0000
  C   C17       1.0  0.32908  0.69817  0.65355  1.0000
  C   C18       1.0  0.82908  0.80183  0.84645  1.0000
  C   C19       1.0  0.67092  0.30183  0.34645  1.0000
  C   C20       1.0  0.17092  0.19818  0.15355  1.0000
  C   C21       1.0  0.43351  0.81840  0.70375  1.0000
  C   C22       1.0  0.93351  0.68159  0.79624  1.0000
  C   C23       1.0  0.56649  0.18159  0.29625  1.0000
  C   C24       1.0  0.06649  0.31841  0.20375  1.0000
  C   C25       1.0  0.33038  0.95850  0.73712  1.0000
  C   C26       1.0  0.83038  0.54150  0.76288  1.0000
  C   C27       1.0  0.66961  0.04150  0.26288  1.0000
  C   C28       1.0  0.16961  0.45850  0.23712  1.0000
  C   C29       1.0  0.35581  0.11198  0.63884  1.0000
  C   C30       1.0  0.85580  0.38801  0.86116  1.0000
  C   C31       1.0  0.64419  0.88801  0.36116  1.0000
  C   C32       1.0  0.14419  0.61199  0.13884  1.0000
  C   C33       1.0  0.41356  0.54977  0.61816  1.0000
  C   C34       1.0  0.91357  0.95023  0.88184  1.0000
  C   C35       1.0  0.58643  0.45022  0.38184  1.0000
  C   C36       1.0  0.08643  0.04978  0.11816  1.0000
  C   C37       1.0  0.41547  0.07587  0.79608  1.0000
  C   C38       1.0  0.91546  0.42412  0.70392  1.0000
  C   C39       1.0  0.58454  0.92413  0.20392  1.0000
  C   C40       1.0  0.08453  0.57587  0.29608  1.0000
  O   O1        1.0  0.55652  0.05124  0.81557  1.0000
  O   O2        1.0  0.05653  0.44876  0.68443  1.0000
  O   O3        1.0  0.44347  0.94876  0.18444  1.0000
  O   O4        1.0  0.94348  0.55124  0.31556  1.0000
  O   O5        1.0  0.04144  0.33926  0.54681  1.0000
  O   O6        1.0  0.54144  0.16073  0.95319  1.0000
  O   O7        1.0  0.95856  0.66073  0.45319  1.0000
  O   O8        1.0  0.45856  0.83927  0.04681  1.0000
  O   O9        1.0  0.33292  0.19548  0.82829  1.0000
  O   O10       1.0  0.83291  0.30452  0.67171  1.0000
  O   O11       1.0  0.66708  0.80452  0.17171  1.0000
  O   O12       1.0  0.16708  0.69548  0.32829  1.0000
  O   O13       1.0  0.19677  0.36034  0.41747  1.0000
  O   O14       1.0  0.69677  0.13965  0.08253  1.0000
  O   O15       1.0  0.80323  0.63966  0.58253  1.0000
  O   O16       1.0  0.30323  0.86034  0.91747  1.0000
  O   O17       1.0  0.19262  0.04648  0.43999  1.0000
  O   O18       1.0  0.69262  0.45352  0.06001  1.0000
  O   O19       1.0  0.80738  0.95352  0.56001  1.0000
  O   O20       1.0  0.30738  0.54648  0.93999  1.0000
  O   O21       1.0  0.30801  0.12659  0.57834  1.0000
  O   O22       1.0  0.80801  0.37341  0.92166  1.0000
  O   O23       1.0  0.69200  0.87341  0.42166  1.0000
  O   O24       1.0  0.19200  0.62659  0.07834  1.0000
  O   O25       1.0  0.48917  0.16661  0.66881  1.0000
  O   O26       1.0  0.98917  0.33339  0.83120  1.0000
  O   O27       1.0  0.51083  0.83340  0.33120  1.0000
  O   O28       1.0  0.01083  0.66661  0.16880  1.0000
  O   O29       1.0  0.50145  0.77820  0.54583  1.0000
  O   O30       1.0  0.00144  0.72181  0.95417  1.0000
  O   O31       1.0  0.49856  0.22181  0.45417  1.0000
  O   O32       1.0  0.99856  0.27820  0.04583  1.0000
  O   O33       1.0  0.28319  0.77940  0.47456  1.0000
  O   O34       1.0  0.78319  0.72060  0.02545  1.0000
  O   O35       1.0  0.71682  0.22060  0.52545  1.0000
  O   O36       1.0  0.21682  0.27940  0.97455  1.0000
  O   O37       1.0  0.34815  0.46555  0.56413  1.0000
  O   O38       1.0  0.84816  0.03446  0.93588  1.0000
  O   O39       1.0  0.65185  0.53445  0.43588  1.0000
  O   O40       1.0  0.15185  0.96555  0.06412  1.0000
  O   O41       1.0  0.54779  0.51526  0.64606  1.0000
  O   O42       1.0  0.04779  0.98473  0.85394  1.0000
  O   O43       1.0  0.45221  0.48473  0.35394  1.0000
  O   O44       1.0  0.95221  0.01527  0.14606  1.0000
