data_image0
_chemical_formula_structural       Cd4H36C20O26
_chemical_formula_sum              "Cd4 H36 C20 O26"
_cell_length_a       8.70342
_cell_length_b       9.35281
_cell_length_c       10.8972
_cell_angle_alpha    88.4318
_cell_angle_beta     83.4628
_cell_angle_gamma    67.7431

_space_group_name_H-M_alt    "P 1"
_space_group_IT_number       1

loop_
  _space_group_symop_operation_xyz
  'x, y, z'

loop_
  _atom_site_type_symbol
  _atom_site_label
  _atom_site_symmetry_multiplicity
  _atom_site_fract_x
  _atom_site_fract_y
  _atom_site_fract_z
  _atom_site_occupancy
  Cd  Cd1       1.0  0.32134  0.94968  0.01145  1.0000
  Cd  Cd2       1.0  0.67866  0.05031  0.98855  1.0000
  Cd  Cd3       1.0  0.69736  0.20645  0.51601  1.0000
  Cd  Cd4       1.0  0.30264  0.79356  0.48399  1.0000
  H   H1        1.0  0.16174  0.87066  0.83798  1.0000
  H   H2        1.0  0.83826  0.12934  0.16202  1.0000
  H   H3        1.0  0.34852  0.80615  0.77507  1.0000
  H   H4        1.0  0.65148  0.19385  0.22493  1.0000
  H   H5        1.0  0.30036  0.68610  0.08649  1.0000
  H   H6        1.0  0.69964  0.31389  0.91352  1.0000
  H   H7        1.0  0.11609  0.78181  0.04462  1.0000
  H   H8        1.0  0.88391  0.21819  0.95538  1.0000
  H   H9        1.0  0.70896  0.89403  0.46933  1.0000
  H   H10       1.0  0.29103  0.10598  0.53067  1.0000
  H   H11       1.0  0.88711  0.90961  0.42432  1.0000
  H   H12       1.0  0.11289  0.09040  0.57569  1.0000
  H   H13       1.0  0.87221  0.14886  0.74282  1.0000
  H   H14       1.0  0.12779  0.85114  0.25718  1.0000
  H   H15       1.0  0.93867  0.99217  0.66318  1.0000
  H   H16       1.0  0.06132  0.00784  0.33682  1.0000
  H   H17       1.0  0.52189  0.45397  0.33018  1.0000
  H   H18       1.0  0.47811  0.54604  0.66982  1.0000
  H   H19       1.0  0.42148  0.35147  0.38176  1.0000
  H   H20       1.0  0.57852  0.64853  0.61824  1.0000
  H   H21       1.0  0.09042  0.43439  0.12155  1.0000
  H   H22       1.0  0.90959  0.56560  0.87845  1.0000
  H   H23       1.0  0.12380  0.36152  0.33440  1.0000
  H   H24       1.0  0.87621  0.63849  0.66560  1.0000
  H   H25       1.0  0.04014  0.62799  0.28476  1.0000
  H   H26       1.0  0.95986  0.37201  0.71524  1.0000
  H   H27       1.0  0.92457  0.61979  0.42629  1.0000
  H   H28       1.0  0.07543  0.38021  0.57371  1.0000
  H   H29       1.0  0.77503  0.81037  0.26474  1.0000
  H   H30       1.0  0.22497  0.18963  0.73525  1.0000
  H   H31       1.0  0.87696  0.67104  0.08396  1.0000
  H   H32       1.0  0.12303  0.32896  0.91604  1.0000
  H   H33       1.0  0.83876  0.43683  0.02541  1.0000
  H   H34       1.0  0.16125  0.56317  0.97459  1.0000
  H   H35       1.0  0.74018  0.42511  0.17287  1.0000
  H   H36       1.0  0.25983  0.57488  0.82713  1.0000
  C   C1        1.0  0.00424  0.38351  0.16889  1.0000
  C   C2        1.0  0.99576  0.61648  0.83111  1.0000
  C   C3        1.0  0.99662  0.41833  0.30697  1.0000
  C   C4        1.0  0.00339  0.58167  0.69303  1.0000
  C   C5        1.0  0.93939  0.59302  0.32751  1.0000
  C   C6        1.0  0.06061  0.40698  0.67249  1.0000
  C   C7        1.0  0.77794  0.69168  0.27080  1.0000
  C   C8        1.0  0.22206  0.30832  0.72920  1.0000
  C   C9        1.0  0.78076  0.63774  0.13797  1.0000
  C   C10       1.0  0.21925  0.36225  0.86203  1.0000
  C   C11       1.0  0.83390  0.46416  0.12324  1.0000
  C   C12       1.0  0.16611  0.53584  0.87676  1.0000
  C   C13       1.0  0.08973  0.21423  0.13242  1.0000
  C   C14       1.0  0.91027  0.78576  0.86759  1.0000
  C   C15       1.0  0.89155  0.34392  0.38538  1.0000
  C   C16       1.0  0.10845  0.65608  0.61463  1.0000
  C   C17       1.0  0.61917  0.71056  0.35500  1.0000
  C   C18       1.0  0.38083  0.28944  0.64500  1.0000
  C   C19       1.0  0.61945  0.72816  0.08329  1.0000
  C   C20       1.0  0.38055  0.27184  0.91671  1.0000
  O   O1        1.0  0.26423  0.89305  0.82588  1.0000
  O   O2        1.0  0.73577  0.10695  0.17412  1.0000
  O   O3        1.0  0.19510  0.77488  0.10726  1.0000
  O   O4        1.0  0.80490  0.22511  0.89274  1.0000
  O   O5        1.0  0.78604  0.94716  0.48459  1.0000
  O   O6        1.0  0.21395  0.05285  0.51541  1.0000
  O   O7        1.0  0.90794  0.10542  0.65741  1.0000
  O   O8        1.0  0.09206  0.89458  0.34259  1.0000
  O   O9        1.0  0.52768  0.34612  0.33737  1.0000
  O   O10       1.0  0.47232  0.65388  0.66263  1.0000
  O   O11       1.0  0.02524  0.15440  0.05656  1.0000
  O   O12       1.0  0.97477  0.84559  0.94345  1.0000
  O   O13       1.0  0.23154  0.13891  0.16702  1.0000
  O   O14       1.0  0.76847  0.86109  0.83298  1.0000
  O   O15       1.0  0.90563  0.20789  0.35370  1.0000
  O   O16       1.0  0.09437  0.79211  0.64630  1.0000
  O   O17       1.0  0.79388  0.41547  0.47860  1.0000
  O   O18       1.0  0.20612  0.58453  0.52140  1.0000
  O   O19       1.0  0.51565  0.65251  0.32730  1.0000
  O   O20       1.0  0.48435  0.34750  0.67270  1.0000
  O   O21       1.0  0.58705  0.79644  0.45142  1.0000
  O   O22       1.0  0.41295  0.20356  0.54858  1.0000
  O   O23       1.0  0.56756  0.87773  0.09391  1.0000
  O   O24       1.0  0.43244  0.12226  0.90609  1.0000
  O   O25       1.0  0.54221  0.66264  0.03078  1.0000
  O   O26       1.0  0.45780  0.33735  0.96921  1.0000
