data_image0
_chemical_formula_structural       Cd4H36C20O26
_chemical_formula_sum              "Cd4 H36 C20 O26"
_cell_length_a       8.56747
_cell_length_b       9.51997
_cell_length_c       11.0255
_cell_angle_alpha    89.345
_cell_angle_beta     83.6418
_cell_angle_gamma    65.8862

_space_group_name_H-M_alt    "P 1"
_space_group_IT_number       1

loop_
  _space_group_symop_operation_xyz
  'x, y, z'

loop_
  _atom_site_type_symbol
  _atom_site_label
  _atom_site_symmetry_multiplicity
  _atom_site_fract_x
  _atom_site_fract_y
  _atom_site_fract_z
  _atom_site_occupancy
  Cd  Cd1       1.0  0.32055  0.94092  0.99503  1.0000
  Cd  Cd2       1.0  0.67946  0.05908  0.00496  1.0000
  Cd  Cd3       1.0  0.30975  0.78918  0.47459  1.0000
  Cd  Cd4       1.0  0.69025  0.21082  0.52541  1.0000
  H   H1        1.0  0.09805  0.40767  0.12709  1.0000
  H   H2        1.0  0.90195  0.59233  0.87291  1.0000
  H   H3        1.0  0.10999  0.34579  0.34040  1.0000
  H   H4        1.0  0.89001  0.65421  0.65960  1.0000
  H   H5        1.0  0.89665  0.64902  0.07016  1.0000
  H   H6        1.0  0.10335  0.35098  0.92984  1.0000
  H   H7        1.0  0.92906  0.61940  0.41597  1.0000
  H   H8        1.0  0.07093  0.38061  0.58404  1.0000
  H   H9        1.0  0.06344  0.59610  0.27898  1.0000
  H   H10       1.0  0.93655  0.40391  0.72103  1.0000
  H   H11       1.0  0.81000  0.80273  0.24307  1.0000
  H   H12       1.0  0.19000  0.19727  0.75694  1.0000
  H   H13       1.0  0.84129  0.42864  0.02327  1.0000
  H   H14       1.0  0.15871  0.57136  0.97673  1.0000
  H   H15       1.0  0.72601  0.43808  0.16798  1.0000
  H   H16       1.0  0.27399  0.56192  0.83203  1.0000
  H   H17       1.0  0.26953  0.08645  0.55315  1.0000
  H   H18       1.0  0.73047  0.91355  0.44685  1.0000
  H   H19       1.0  0.08891  0.06957  0.59067  1.0000
  H   H20       1.0  0.91108  0.93043  0.40933  1.0000
  H   H21       1.0  0.59684  0.75558  0.56862  1.0000
  H   H22       1.0  0.40316  0.24442  0.43138  1.0000
  H   H23       1.0  0.64010  0.58411  0.59441  1.0000
  H   H24       1.0  0.35990  0.41589  0.40559  1.0000
  H   H25       1.0  0.14931  0.83214  0.24426  1.0000
  H   H26       1.0  0.85069  0.16786  0.75574  1.0000
  H   H27       1.0  0.12672  0.98858  0.30184  1.0000
  H   H28       1.0  0.87328  0.01142  0.69816  1.0000
  H   H29       1.0  0.42716  0.79702  0.75507  1.0000
  H   H30       1.0  0.57284  0.20298  0.24493  1.0000
  H   H31       1.0  0.23172  0.83645  0.77030  1.0000
  H   H32       1.0  0.76828  0.16354  0.22970  1.0000
  H   H33       1.0  0.30627  0.67545  0.06941  1.0000
  H   H34       1.0  0.69374  0.32455  0.93059  1.0000
  H   H35       1.0  0.11001  0.78163  0.04123  1.0000
  H   H36       1.0  0.88999  0.21837  0.95877  1.0000
  C   C1        1.0  0.00056  0.36893  0.17163  1.0000
  C   C2        1.0  0.99944  0.63107  0.82838  1.0000
  C   C3        1.0  0.63039  0.72672  0.06941  1.0000
  C   C4        1.0  0.36961  0.27328  0.93058  1.0000
  C   C5        1.0  0.98422  0.41199  0.30719  1.0000
  C   C6        1.0  0.01578  0.58802  0.69281  1.0000
  C   C7        1.0  0.79233  0.63164  0.12721  1.0000
  C   C8        1.0  0.20767  0.36836  0.87280  1.0000
  C   C9        1.0  0.94686  0.58355  0.31962  1.0000
  C   C10       1.0  0.05314  0.41646  0.68038  1.0000
  C   C11       1.0  0.86241  0.35893  0.38624  1.0000
  C   C12       1.0  0.13759  0.64107  0.61376  1.0000
  C   C13       1.0  0.79374  0.69445  0.25482  1.0000
  C   C14       1.0  0.20626  0.30555  0.74518  1.0000
  C   C15       1.0  0.62607  0.73880  0.33751  1.0000
  C   C16       1.0  0.37393  0.26121  0.66249  1.0000
  C   C17       1.0  0.08587  0.19825  0.13707  1.0000
  C   C18       1.0  0.91414  0.80175  0.86293  1.0000
  C   C19       1.0  0.83216  0.46059  0.11963  1.0000
  C   C20       1.0  0.16785  0.53940  0.88038  1.0000
  O   O1        1.0  0.59332  0.83989  0.42338  1.0000
  O   O2        1.0  0.40668  0.16011  0.57662  1.0000
  O   O3        1.0  0.18753  0.04501  0.52618  1.0000
  O   O4        1.0  0.81246  0.95499  0.47382  1.0000
  O   O5        1.0  0.52459  0.67472  0.32241  1.0000
  O   O6        1.0  0.47541  0.32528  0.67760  1.0000
  O   O7        1.0  0.56370  0.68914  0.62595  1.0000
  O   O8        1.0  0.43630  0.31085  0.37405  1.0000
  O   O9        1.0  0.57143  0.87561  0.08236  1.0000
  O   O10       1.0  0.42857  0.12439  0.91763  1.0000
  O   O11       1.0  0.11448  0.89193  0.32372  1.0000
  O   O12       1.0  0.88552  0.10807  0.67628  1.0000
  O   O13       1.0  0.55830  0.66295  0.01016  1.0000
  O   O14       1.0  0.44171  0.33705  0.98983  1.0000
  O   O15       1.0  0.31698  0.86785  0.80123  1.0000
  O   O16       1.0  0.68302  0.13215  0.19877  1.0000
  O   O17       1.0  0.79254  0.42182  0.49066  1.0000
  O   O18       1.0  0.20746  0.57818  0.50933  1.0000
  O   O19       1.0  0.20385  0.77000  0.09407  1.0000
  O   O20       1.0  0.79616  0.23000  0.90592  1.0000
  O   O21       1.0  0.84423  0.24016  0.34795  1.0000
  O   O22       1.0  0.15577  0.75983  0.65204  1.0000
  O   O23       1.0  0.05300  0.15266  0.03594  1.0000
  O   O24       1.0  0.94700  0.84734  0.96406  1.0000
  O   O25       1.0  0.20242  0.10796  0.19595  1.0000
  O   O26       1.0  0.79758  0.89205  0.80406  1.0000
