data_image0
_chemical_formula_structural       Tb4H44C32N4O40
_chemical_formula_sum              "Tb4 H44 C32 N4 O40"
_cell_length_a       8.47796
_cell_length_b       10.885
_cell_length_c       15.1068
_cell_angle_alpha    90.0001
_cell_angle_beta     101.779
_cell_angle_gamma    89.9999

_space_group_name_H-M_alt    "P 1"
_space_group_IT_number       1

loop_
  _space_group_symop_operation_xyz
  'x, y, z'

loop_
  _atom_site_type_symbol
  _atom_site_label
  _atom_site_symmetry_multiplicity
  _atom_site_fract_x
  _atom_site_fract_y
  _atom_site_fract_z
  _atom_site_occupancy
  Tb  Tb1       1.0  0.50856  0.43848  0.70472  1.0000
  Tb  Tb2       1.0  0.99144  0.93848  0.29528  1.0000
  Tb  Tb3       1.0  0.49144  0.56152  0.29528  1.0000
  Tb  Tb4       1.0  0.00856  0.06152  0.70472  1.0000
  H   H1        1.0  0.39705  0.22751  0.56786  1.0000
  H   H2        1.0  0.10294  0.72751  0.43213  1.0000
  H   H3        1.0  0.60294  0.77249  0.43213  1.0000
  H   H4        1.0  0.89705  0.27249  0.56786  1.0000
  H   H5        1.0  0.35103  0.19910  0.66146  1.0000
  H   H6        1.0  0.14896  0.69910  0.33854  1.0000
  H   H7        1.0  0.64897  0.80090  0.33854  1.0000
  H   H8        1.0  0.85103  0.30090  0.66146  1.0000
  H   H9        1.0  0.77362  0.64210  0.76034  1.0000
  H   H10       1.0  0.72638  0.14210  0.23966  1.0000
  H   H11       1.0  0.22639  0.35790  0.23966  1.0000
  H   H12       1.0  0.27361  0.85789  0.76034  1.0000
  H   H13       1.0  0.64058  0.67991  0.67284  1.0000
  H   H14       1.0  0.85942  0.17991  0.32717  1.0000
  H   H15       1.0  0.35942  0.32008  0.32716  1.0000
  H   H16       1.0  0.14058  0.82008  0.67283  1.0000
  H   H17       1.0  0.41411  0.66926  0.80024  1.0000
  H   H18       1.0  0.08589  0.16926  0.19975  1.0000
  H   H19       1.0  0.58590  0.33074  0.19975  1.0000
  H   H20       1.0  0.91410  0.83074  0.80025  1.0000
  H   H21       1.0  0.27242  0.57138  0.79017  1.0000
  H   H22       1.0  0.22758  0.07138  0.20983  1.0000
  H   H23       1.0  0.72758  0.42862  0.20983  1.0000
  H   H24       1.0  0.77241  0.92862  0.79017  1.0000
  H   H25       1.0  0.15122  0.49373  0.66758  1.0000
  H   H26       1.0  0.34877  0.99373  0.33242  1.0000
  H   H27       1.0  0.84878  0.50627  0.33242  1.0000
  H   H28       1.0  0.65122  0.00627  0.66758  1.0000
  H   H29       1.0  0.13499  0.35293  0.65382  1.0000
  H   H30       1.0  0.36501  0.85292  0.34618  1.0000
  H   H31       1.0  0.86501  0.64707  0.34618  1.0000
  H   H32       1.0  0.63499  0.14707  0.65382  1.0000
  H   H33       1.0  0.99093  0.26405  0.98981  1.0000
  H   H34       1.0  0.50907  0.76405  0.01019  1.0000
  H   H35       1.0  0.00907  0.73595  0.01019  1.0000
  H   H36       1.0  0.49094  0.23595  0.98981  1.0000
  H   H37       1.0  0.72669  0.55444  0.08920  1.0000
  H   H38       1.0  0.77331  0.05444  0.91081  1.0000
  H   H39       1.0  0.27333  0.44556  0.91081  1.0000
  H   H40       1.0  0.22668  0.94556  0.08920  1.0000
  H   H41       1.0  0.57979  0.58791  0.92958  1.0000
  H   H42       1.0  0.92021  0.08791  0.07042  1.0000
  H   H43       1.0  0.42021  0.41209  0.07042  1.0000
  H   H44       1.0  0.07978  0.91209  0.92958  1.0000
  C   C1        1.0  0.80911  0.35948  0.89368  1.0000
  C   C2        1.0  0.69089  0.85948  0.10632  1.0000
  C   C3        1.0  0.19088  0.64052  0.10632  1.0000
  C   C4        1.0  0.30912  0.14052  0.89368  1.0000
  C   C5        1.0  0.89860  0.33506  0.97995  1.0000
  C   C6        1.0  0.60140  0.83506  0.02005  1.0000
  C   C7        1.0  0.10140  0.66494  0.02005  1.0000
  C   C8        1.0  0.39860  0.16493  0.97995  1.0000
  C   C9        1.0  0.86914  0.40440  0.05278  1.0000
  C   C10       1.0  0.63085  0.90440  0.94722  1.0000
  C   C11       1.0  0.13086  0.59560  0.94722  1.0000
  C   C12       1.0  0.36914  0.09560  0.05279  1.0000
  C   C13       1.0  0.75313  0.49731  0.03484  1.0000
  C   C14       1.0  0.74687  0.99730  0.96515  1.0000
  C   C15       1.0  0.24688  0.50270  0.96516  1.0000
  C   C16       1.0  0.25312  0.00270  0.03485  1.0000
  C   C17       1.0  0.67109  0.51645  0.94595  1.0000
  C   C18       1.0  0.82891  0.01645  0.05405  1.0000
  C   C19       1.0  0.32892  0.48355  0.05405  1.0000
  C   C20       1.0  0.17108  0.98355  0.94595  1.0000
  C   C21       1.0  0.83264  0.28864  0.81214  1.0000
  C   C22       1.0  0.66736  0.78864  0.18786  1.0000
  C   C23       1.0  0.16736  0.71135  0.18787  1.0000
  C   C24       1.0  0.33264  0.21136  0.81213  1.0000
  C   C25       1.0  0.96293  0.38073  0.14772  1.0000
  C   C26       1.0  0.53707  0.88073  0.85228  1.0000
  C   C27       1.0  0.03708  0.61927  0.85228  1.0000
  C   C28       1.0  0.46293  0.11927  0.14772  1.0000
  C   C29       1.0  0.56199  0.44846  0.49707  1.0000
  C   C30       1.0  0.93802  0.94845  0.50292  1.0000
  C   C31       1.0  0.43801  0.55156  0.50292  1.0000
  C   C32       1.0  0.06200  0.05156  0.49707  1.0000
  N   N1        1.0  0.69676  0.44882  0.87633  1.0000
  N   N2        1.0  0.80324  0.94882  0.12367  1.0000
  N   N3        1.0  0.30324  0.55118  0.12368  1.0000
  N   N4        1.0  0.19676  0.05118  0.87633  1.0000
  O   O1        1.0  0.74502  0.32356  0.73688  1.0000
  O   O2        1.0  0.75497  0.82356  0.26312  1.0000
  O   O3        1.0  0.25497  0.67644  0.26312  1.0000
  O   O4        1.0  0.24503  0.17644  0.73688  1.0000
  O   O5        1.0  0.93396  0.20266  0.81959  1.0000
  O   O6        1.0  0.56603  0.70266  0.18041  1.0000
  O   O7        1.0  0.06602  0.79734  0.18041  1.0000
  O   O8        1.0  0.43397  0.29734  0.81959  1.0000
  O   O9        1.0  0.08792  0.31279  0.15488  1.0000
  O   O10       1.0  0.41209  0.81278  0.84511  1.0000
  O   O11       1.0  0.91209  0.68721  0.84512  1.0000
  O   O12       1.0  0.58791  0.18721  0.15488  1.0000
  O   O13       1.0  0.91459  0.42960  0.21329  1.0000
  O   O14       1.0  0.58541  0.92961  0.78671  1.0000
  O   O15       1.0  0.08542  0.57040  0.78671  1.0000
  O   O16       1.0  0.41459  0.07040  0.21329  1.0000
  O   O17       1.0  0.62302  0.39574  0.57054  1.0000
  O   O18       1.0  0.87699  0.89574  0.42947  1.0000
  O   O19       1.0  0.37699  0.60427  0.42948  1.0000
  O   O20       1.0  0.12303  0.10426  0.57053  1.0000
  O   O21       1.0  0.59074  0.42515  0.41964  1.0000
  O   O22       1.0  0.90927  0.92515  0.58037  1.0000
  O   O23       1.0  0.40926  0.57487  0.58038  1.0000
  O   O24       1.0  0.09074  0.07487  0.41963  1.0000
  O   O25       1.0  0.43913  0.23321  0.63266  1.0000
  O   O26       1.0  0.06086  0.73320  0.36733  1.0000
  O   O27       1.0  0.56087  0.76680  0.36733  1.0000
  O   O28       1.0  0.93913  0.26679  0.63266  1.0000
  O   O29       1.0  0.68159  0.61147  0.71205  1.0000
  O   O30       1.0  0.81840  0.11147  0.28795  1.0000
  O   O31       1.0  0.31840  0.38853  0.28795  1.0000
  O   O32       1.0  0.18159  0.88852  0.71205  1.0000
  O   O33       1.0  0.38778  0.58231  0.78362  1.0000
  O   O34       1.0  0.11222  0.08231  0.21638  1.0000
  O   O35       1.0  0.61222  0.41769  0.21638  1.0000
  O   O36       1.0  0.88777  0.91769  0.78362  1.0000
  O   O37       1.0  0.21131  0.42174  0.65469  1.0000
  O   O38       1.0  0.28868  0.92174  0.34530  1.0000
  O   O39       1.0  0.78868  0.57826  0.34531  1.0000
  O   O40       1.0  0.71131  0.07826  0.65469  1.0000
