data_image0
_chemical_formula_structural       K2H50C28N4O14
_chemical_formula_sum              "K2 H50 C28 N4 O14"
_cell_length_a       8.0187
_cell_length_b       8.15614
_cell_length_c       13.9767
_cell_angle_alpha    89.9998
_cell_angle_beta     90
_cell_angle_gamma    98.164

_space_group_name_H-M_alt    "P 1"
_space_group_IT_number       1

loop_
  _space_group_symop_operation_xyz
  'x, y, z'

loop_
  _atom_site_type_symbol
  _atom_site_label
  _atom_site_symmetry_multiplicity
  _atom_site_fract_x
  _atom_site_fract_y
  _atom_site_fract_z
  _atom_site_occupancy
  K   K1        1.0  0.40071  0.83792  0.75061  1.0000
  K   K2        1.0  0.90072  0.83792  0.24939  1.0000
  H   H1        1.0  0.35237  0.56622  0.53118  1.0000
  H   H2        1.0  0.85237  0.56622  0.46882  1.0000
  H   H3        1.0  0.15961  0.59407  0.47325  1.0000
  H   H4        1.0  0.65961  0.59407  0.52675  1.0000
  H   H5        1.0  0.01522  0.56433  0.63603  1.0000
  H   H6        1.0  0.51522  0.56433  0.36397  1.0000
  H   H7        1.0  0.09688  0.38267  0.59579  1.0000
  H   H8        1.0  0.59688  0.38267  0.40421  1.0000
  H   H9        1.0  0.10396  0.30640  0.76729  1.0000
  H   H10       1.0  0.60396  0.30640  0.23271  1.0000
  H   H11       1.0  0.04313  0.50284  0.80375  1.0000
  H   H12       1.0  0.54313  0.50284  0.19625  1.0000
  H   H13       1.0  0.21425  0.36043  0.92374  1.0000
  H   H14       1.0  0.71425  0.36043  0.07626  1.0000
  H   H15       1.0  0.38653  0.38958  0.84150  1.0000
  H   H16       1.0  0.88653  0.38958  0.15850  1.0000
  H   H17       1.0  0.56281  0.58137  0.93907  1.0000
  H   H18       1.0  0.06281  0.58137  0.06093  1.0000
  H   H19       1.0  0.40796  0.53836  0.03159  1.0000
  H   H20       1.0  0.90795  0.53836  0.96841  1.0000
  H   H21       1.0  0.36324  0.83891  0.02680  1.0000
  H   H22       1.0  0.86324  0.83891  0.97321  1.0000
  H   H23       1.0  0.56442  0.80045  0.06876  1.0000
  H   H24       1.0  0.06442  0.80045  0.93124  1.0000
  H   H25       1.0  0.65680  0.08812  0.02592  1.0000
  H   H26       1.0  0.15680  0.08812  0.97408  1.0000
  H   H27       1.0  0.46183  0.11215  0.96909  1.0000
  H   H28       1.0  0.96183  0.11215  0.03091  1.0000
  H   H29       1.0  0.70459  0.30297  0.90207  1.0000
  H   H30       1.0  0.20459  0.30297  0.09793  1.0000
  H   H31       1.0  0.80262  0.12897  0.86599  1.0000
  H   H32       1.0  0.30262  0.12897  0.13401  1.0000
  H   H33       1.0  0.76670  0.21323  0.69274  1.0000
  H   H34       1.0  0.26670  0.21322  0.30725  1.0000
  H   H35       1.0  0.67800  0.38691  0.73938  1.0000
  H   H36       1.0  0.17800  0.38691  0.26062  1.0000
  H   H37       1.0  0.56886  0.33476  0.58171  1.0000
  H   H38       1.0  0.06886  0.33476  0.41829  1.0000
  H   H39       1.0  0.40200  0.27931  0.66529  1.0000
  H   H40       1.0  0.90200  0.27931  0.33471  1.0000
  H   H41       1.0  0.40261  0.14538  0.46754  1.0000
  H   H42       1.0  0.90262  0.14538  0.53246  1.0000
  H   H43       1.0  0.24784  0.09650  0.55914  1.0000
  H   H44       1.0  0.74784  0.09650  0.44086  1.0000
  H   H45       1.0  0.25367  0.87893  0.43008  1.0000
  H   H46       1.0  0.75367  0.87893  0.56992  1.0000
  H   H47       1.0  0.45647  0.84491  0.47280  1.0000
  H   H48       1.0  0.95647  0.84491  0.52721  1.0000
  H   H49       1.0  0.91560  0.03358  0.72072  1.0000
  H   H50       1.0  0.41561  0.03358  0.27927  1.0000
  C   C1        1.0  0.22957  0.61091  0.54154  1.0000
  C   C2        1.0  0.72957  0.61091  0.45846  1.0000
  C   C3        1.0  0.13212  0.51248  0.62010  1.0000
  C   C4        1.0  0.63212  0.51248  0.37990  1.0000
  C   C5        1.0  0.14970  0.43748  0.78391  1.0000
  C   C6        1.0  0.64971  0.43748  0.21610  1.0000
  C   C7        1.0  0.27311  0.44056  0.86550  1.0000
  C   C8        1.0  0.77311  0.44056  0.13450  1.0000
  C   C9        1.0  0.44737  0.61994  0.96987  1.0000
  C   C10       1.0  0.94737  0.61994  0.03013  1.0000
  C   C11       1.0  0.48248  0.79590  0.00532  1.0000
  C   C12       1.0  0.98248  0.79590  0.99468  1.0000
  C   C13       1.0  0.58579  0.07007  0.95795  1.0000
  C   C14       1.0  0.08580  0.07007  0.04205  1.0000
  C   C15       1.0  0.67979  0.17154  0.87939  1.0000
  C   C16       1.0  0.17979  0.17154  0.12061  1.0000
  C   C17       1.0  0.64899  0.25585  0.71770  1.0000
  C   C18       1.0  0.14899  0.25585  0.28230  1.0000
  C   C19       1.0  0.52145  0.24490  0.63807  1.0000
  C   C20       1.0  0.02145  0.24490  0.36193  1.0000
  C   C21       1.0  0.36555  0.06208  0.52894  1.0000
  C   C22       1.0  0.86555  0.06208  0.47107  1.0000
  C   C23       1.0  0.33583  0.88576  0.49362  1.0000
  C   C24       1.0  0.83583  0.88576  0.50638  1.0000
  C   C25       1.0  0.00791  0.95964  0.75348  1.0000
  C   C26       1.0  0.50790  0.95964  0.24652  1.0000
  C   C27       1.0  0.80634  0.73220  0.73631  1.0000
  C   C28       1.0  0.30634  0.73221  0.26368  1.0000
  N   N1        1.0  0.95748  0.79560  0.76267  1.0000
  N   N2        1.0  0.45748  0.79560  0.23732  1.0000
  N   N3        1.0  0.67240  0.66161  0.71399  1.0000
  N   N4        1.0  0.17239  0.66160  0.28601  1.0000
  O   O1        1.0  0.25575  0.78189  0.56792  1.0000
  O   O2        1.0  0.75575  0.78189  0.43208  1.0000
  O   O3        1.0  0.23568  0.51744  0.70304  1.0000
  O   O4        1.0  0.73568  0.51744  0.29696  1.0000
  O   O5        1.0  0.31702  0.60642  0.89945  1.0000
  O   O6        1.0  0.81703  0.60643  0.10055  1.0000
  O   O7        1.0  0.56272  0.89993  0.93083  1.0000
  O   O8        1.0  0.06272  0.89993  0.06917  1.0000
  O   O9        1.0  0.57829  0.15532  0.79552  1.0000
  O   O10       1.0  0.07829  0.15532  0.20448  1.0000
  O   O11       1.0  0.49498  0.08039  0.59987  1.0000
  O   O12       1.0  0.99498  0.08039  0.40013  1.0000
  O   O13       1.0  0.14858  0.03123  0.77922  1.0000
  O   O14       1.0  0.64859  0.03122  0.22077  1.0000
