data_image0
_chemical_formula_structural       Na12Ga4H24C24O48
_chemical_formula_sum              "Na12 Ga4 H24 C24 O48"
_cell_length_a       6.27036
_cell_length_b       13.771
_cell_length_c       14.6475
_cell_angle_alpha    89.9995
_cell_angle_beta     89.9999
_cell_angle_gamma    90.0001

_space_group_name_H-M_alt    "P 1"
_space_group_IT_number       1

loop_
  _space_group_symop_operation_xyz
  'x, y, z'

loop_
  _atom_site_type_symbol
  _atom_site_label
  _atom_site_symmetry_multiplicity
  _atom_site_fract_x
  _atom_site_fract_y
  _atom_site_fract_z
  _atom_site_occupancy
  Na  Na1       1.0  0.27239  0.21838  0.50190  1.0000
  Na  Na2       1.0  0.22760  0.21839  0.99810  1.0000
  Na  Na3       1.0  0.77239  0.28162  0.49810  1.0000
  Na  Na4       1.0  0.72761  0.28162  0.00190  1.0000
  Na  Na5       1.0  0.72761  0.78162  0.49810  1.0000
  Na  Na6       1.0  0.77239  0.78162  0.00190  1.0000
  Na  Na7       1.0  0.22761  0.71838  0.50190  1.0000
  Na  Na8       1.0  0.27240  0.71838  0.99810  1.0000
  Na  Na9       1.0  0.75000  0.92062  0.25000  1.0000
  Na  Na10      1.0  0.25000  0.57938  0.75000  1.0000
  Na  Na11      1.0  0.25000  0.07938  0.75000  1.0000
  Na  Na12      1.0  0.75000  0.42062  0.25000  1.0000
  Ga  Ga1       1.0  0.25000  0.06099  0.25000  1.0000
  Ga  Ga2       1.0  0.75000  0.43900  0.75000  1.0000
  Ga  Ga3       1.0  0.75000  0.93900  0.75000  1.0000
  Ga  Ga4       1.0  0.25000  0.56099  0.25000  1.0000
  H   H1        1.0  0.16996  0.94213  0.42150  1.0000
  H   H2        1.0  0.33004  0.94213  0.07850  1.0000
  H   H3        1.0  0.66996  0.55787  0.57850  1.0000
  H   H4        1.0  0.83005  0.55787  0.92149  1.0000
  H   H5        1.0  0.83004  0.05787  0.57850  1.0000
  H   H6        1.0  0.66995  0.05787  0.92150  1.0000
  H   H7        1.0  0.33004  0.44213  0.42150  1.0000
  H   H8        1.0  0.16996  0.44213  0.07851  1.0000
  H   H9        1.0  0.48868  0.24210  0.22317  1.0000
  H   H10       1.0  0.01132  0.24210  0.27683  1.0000
  H   H11       1.0  0.98867  0.25789  0.77683  1.0000
  H   H12       1.0  0.51132  0.25790  0.72317  1.0000
  H   H13       1.0  0.51133  0.75790  0.77683  1.0000
  H   H14       1.0  0.98868  0.75790  0.72317  1.0000
  H   H15       1.0  0.01132  0.74210  0.22317  1.0000
  H   H16       1.0  0.48867  0.74210  0.27683  1.0000
  H   H17       1.0  0.71859  0.07054  0.40123  1.0000
  H   H18       1.0  0.78141  0.07054  0.09877  1.0000
  H   H19       1.0  0.21859  0.42946  0.59877  1.0000
  H   H20       1.0  0.28141  0.42947  0.90123  1.0000
  H   H21       1.0  0.28142  0.92946  0.59877  1.0000
  H   H22       1.0  0.21858  0.92946  0.90123  1.0000
  H   H23       1.0  0.78142  0.57054  0.40123  1.0000
  H   H24       1.0  0.71859  0.57054  0.09877  1.0000
  C   C1        1.0  0.33049  0.92017  0.39840  1.0000
  C   C2        1.0  0.16951  0.92016  0.10161  1.0000
  C   C3        1.0  0.83049  0.57983  0.60160  1.0000
  C   C4        1.0  0.66951  0.57983  0.89840  1.0000
  C   C5        1.0  0.66950  0.07983  0.60160  1.0000
  C   C6        1.0  0.83048  0.07984  0.89839  1.0000
  C   C7        1.0  0.16950  0.42017  0.39840  1.0000
  C   C8        1.0  0.33050  0.42017  0.10160  1.0000
  C   C9        1.0  0.49030  0.23375  0.29852  1.0000
  C   C10       1.0  0.00969  0.23375  0.20148  1.0000
  C   C11       1.0  0.99030  0.26625  0.70148  1.0000
  C   C12       1.0  0.50969  0.26625  0.79852  1.0000
  C   C13       1.0  0.50970  0.76625  0.70148  1.0000
  C   C14       1.0  0.99031  0.76625  0.79852  1.0000
  C   C15       1.0  0.00969  0.73375  0.29852  1.0000
  C   C16       1.0  0.49030  0.73375  0.20148  1.0000
  C   C17       1.0  0.88883  0.08876  0.38956  1.0000
  C   C18       1.0  0.61117  0.08876  0.11043  1.0000
  C   C19       1.0  0.38883  0.41124  0.61043  1.0000
  C   C20       1.0  0.11117  0.41125  0.88957  1.0000
  C   C21       1.0  0.11118  0.91124  0.61044  1.0000
  C   C22       1.0  0.38882  0.91124  0.88956  1.0000
  C   C23       1.0  0.61117  0.58876  0.38956  1.0000
  C   C24       1.0  0.88883  0.58876  0.11043  1.0000
  O   O1        1.0  0.40144  0.95988  0.32443  1.0000
  O   O2        1.0  0.09857  0.95988  0.17556  1.0000
  O   O3        1.0  0.90144  0.54011  0.67556  1.0000
  O   O4        1.0  0.59857  0.54012  0.82444  1.0000
  O   O5        1.0  0.59857  0.04012  0.67556  1.0000
  O   O6        1.0  0.90143  0.04012  0.82443  1.0000
  O   O7        1.0  0.09856  0.45988  0.32444  1.0000
  O   O8        1.0  0.40145  0.45988  0.17556  1.0000
  O   O9        1.0  0.37845  0.16338  0.33228  1.0000
  O   O10       1.0  0.12156  0.16338  0.16772  1.0000
  O   O11       1.0  0.87844  0.33662  0.66772  1.0000
  O   O12       1.0  0.62154  0.33663  0.83228  1.0000
  O   O13       1.0  0.62156  0.83663  0.66772  1.0000
  O   O14       1.0  0.87845  0.83662  0.83228  1.0000
  O   O15       1.0  0.12155  0.66337  0.33228  1.0000
  O   O16       1.0  0.37844  0.66338  0.16772  1.0000
  O   O17       1.0  0.96912  0.04699  0.31841  1.0000
  O   O18       1.0  0.53088  0.04700  0.18159  1.0000
  O   O19       1.0  0.46912  0.45301  0.68159  1.0000
  O   O20       1.0  0.03088  0.45301  0.81841  1.0000
  O   O21       1.0  0.03088  0.95301  0.68159  1.0000
  O   O22       1.0  0.46912  0.95301  0.81841  1.0000
  O   O23       1.0  0.53088  0.54699  0.31841  1.0000
  O   O24       1.0  0.96913  0.54699  0.18159  1.0000
  O   O25       1.0  0.43241  0.85869  0.44305  1.0000
  O   O26       1.0  0.06760  0.85869  0.05695  1.0000
  O   O27       1.0  0.93241  0.64131  0.55695  1.0000
  O   O28       1.0  0.56760  0.64130  0.94305  1.0000
  O   O29       1.0  0.56759  0.14131  0.55695  1.0000
  O   O30       1.0  0.93240  0.14131  0.94305  1.0000
  O   O31       1.0  0.06759  0.35870  0.44305  1.0000
  O   O32       1.0  0.43241  0.35869  0.05695  1.0000
  O   O33       1.0  0.59625  0.29194  0.34586  1.0000
  O   O34       1.0  0.90375  0.29194  0.15414  1.0000
  O   O35       1.0  0.09625  0.20806  0.65414  1.0000
  O   O36       1.0  0.40374  0.20806  0.84586  1.0000
  O   O37       1.0  0.40376  0.70807  0.65414  1.0000
  O   O38       1.0  0.09625  0.70806  0.84586  1.0000
  O   O39       1.0  0.90375  0.79193  0.34586  1.0000
  O   O40       1.0  0.59625  0.79193  0.15414  1.0000
  O   O41       1.0  0.98098  0.14484  0.44307  1.0000
  O   O42       1.0  0.51902  0.14484  0.05693  1.0000
  O   O43       1.0  0.48098  0.35516  0.55692  1.0000
  O   O44       1.0  0.01902  0.35517  0.94308  1.0000
  O   O45       1.0  0.01903  0.85517  0.55693  1.0000
  O   O46       1.0  0.48097  0.85516  0.94307  1.0000
  O   O47       1.0  0.51903  0.64483  0.44307  1.0000
  O   O48       1.0  0.98098  0.64484  0.05692  1.0000
