data_image0
_chemical_formula_structural       Na12In4H24C24O48
_chemical_formula_sum              "Na12 In4 H24 C24 O48"
_cell_length_a       6.4341
_cell_length_b       14.2097
_cell_length_c       14.5981
_cell_angle_alpha    89.9998
_cell_angle_beta     89.9999
_cell_angle_gamma    90.0002

_space_group_name_H-M_alt    "P 1"
_space_group_IT_number       1

loop_
  _space_group_symop_operation_xyz
  'x, y, z'

loop_
  _atom_site_type_symbol
  _atom_site_label
  _atom_site_symmetry_multiplicity
  _atom_site_fract_x
  _atom_site_fract_y
  _atom_site_fract_z
  _atom_site_occupancy
  Na  Na1       1.0  0.27037  0.21789  0.50226  1.0000
  Na  Na2       1.0  0.22963  0.21789  0.99774  1.0000
  Na  Na3       1.0  0.77037  0.28211  0.49774  1.0000
  Na  Na4       1.0  0.72963  0.28211  0.00226  1.0000
  Na  Na5       1.0  0.72963  0.78211  0.49774  1.0000
  Na  Na6       1.0  0.77037  0.78211  0.00226  1.0000
  Na  Na7       1.0  0.22963  0.71789  0.50226  1.0000
  Na  Na8       1.0  0.27037  0.71789  0.99774  1.0000
  Na  Na9       1.0  0.75000  0.92337  0.25000  1.0000
  Na  Na10      1.0  0.25000  0.57663  0.75000  1.0000
  Na  Na11      1.0  0.25000  0.07663  0.75000  1.0000
  Na  Na12      1.0  0.75000  0.42337  0.25000  1.0000
  In  In1       1.0  0.25000  0.06476  0.25000  1.0000
  In  In2       1.0  0.75000  0.43524  0.75000  1.0000
  In  In3       1.0  0.75000  0.93524  0.75000  1.0000
  In  In4       1.0  0.25000  0.56476  0.25000  1.0000
  H   H1        1.0  0.17166  0.92632  0.41274  1.0000
  H   H2        1.0  0.32835  0.92632  0.08726  1.0000
  H   H3        1.0  0.67166  0.57368  0.58726  1.0000
  H   H4        1.0  0.82834  0.57368  0.91274  1.0000
  H   H5        1.0  0.82834  0.07368  0.58726  1.0000
  H   H6        1.0  0.67166  0.07368  0.91274  1.0000
  H   H7        1.0  0.32834  0.42632  0.41274  1.0000
  H   H8        1.0  0.17166  0.42632  0.08726  1.0000
  H   H9        1.0  0.50284  0.24371  0.22455  1.0000
  H   H10       1.0  0.99717  0.24371  0.27545  1.0000
  H   H11       1.0  0.00284  0.25629  0.77545  1.0000
  H   H12       1.0  0.49716  0.25629  0.72455  1.0000
  H   H13       1.0  0.49717  0.75629  0.77545  1.0000
  H   H14       1.0  0.00284  0.75629  0.72455  1.0000
  H   H15       1.0  0.99717  0.74371  0.22455  1.0000
  H   H16       1.0  0.50283  0.74371  0.27545  1.0000
  H   H17       1.0  0.72084  0.06891  0.41246  1.0000
  H   H18       1.0  0.77916  0.06891  0.08754  1.0000
  H   H19       1.0  0.22084  0.43109  0.58754  1.0000
  H   H20       1.0  0.27916  0.43109  0.91246  1.0000
  H   H21       1.0  0.27916  0.93109  0.58754  1.0000
  H   H22       1.0  0.22084  0.93109  0.91246  1.0000
  H   H23       1.0  0.77916  0.56891  0.41246  1.0000
  H   H24       1.0  0.72084  0.56891  0.08754  1.0000
  C   C1        1.0  0.33669  0.91147  0.39695  1.0000
  C   C2        1.0  0.16331  0.91147  0.10305  1.0000
  C   C3        1.0  0.83669  0.58853  0.60305  1.0000
  C   C4        1.0  0.66331  0.58853  0.89695  1.0000
  C   C5        1.0  0.66331  0.08853  0.60305  1.0000
  C   C6        1.0  0.83669  0.08853  0.89695  1.0000
  C   C7        1.0  0.16330  0.41147  0.39695  1.0000
  C   C8        1.0  0.33669  0.41147  0.10305  1.0000
  C   C9        1.0  0.50322  0.23945  0.30057  1.0000
  C   C10       1.0  0.99679  0.23945  0.19943  1.0000
  C   C11       1.0  0.00321  0.26055  0.69943  1.0000
  C   C12       1.0  0.49678  0.26055  0.80057  1.0000
  C   C13       1.0  0.49679  0.76055  0.69943  1.0000
  C   C14       1.0  0.00322  0.76055  0.80057  1.0000
  C   C15       1.0  0.99679  0.73945  0.30057  1.0000
  C   C16       1.0  0.50321  0.73945  0.19943  1.0000
  C   C17       1.0  0.88431  0.08686  0.39568  1.0000
  C   C18       1.0  0.61569  0.08686  0.10432  1.0000
  C   C19       1.0  0.38431  0.41314  0.60432  1.0000
  C   C20       1.0  0.11569  0.41314  0.89568  1.0000
  C   C21       1.0  0.11569  0.91314  0.60432  1.0000
  C   C22       1.0  0.38431  0.91314  0.89568  1.0000
  C   C23       1.0  0.61569  0.58686  0.39568  1.0000
  C   C24       1.0  0.88431  0.58686  0.10432  1.0000
  O   O1        1.0  0.41925  0.95839  0.33036  1.0000
  O   O2        1.0  0.08076  0.95840  0.16964  1.0000
  O   O3        1.0  0.91925  0.54161  0.66964  1.0000
  O   O4        1.0  0.58075  0.54160  0.83036  1.0000
  O   O5        1.0  0.58075  0.04161  0.66964  1.0000
  O   O6        1.0  0.91925  0.04160  0.83036  1.0000
  O   O7        1.0  0.08075  0.45839  0.33036  1.0000
  O   O8        1.0  0.41925  0.45839  0.16964  1.0000
  O   O9        1.0  0.39047  0.17415  0.33747  1.0000
  O   O10       1.0  0.10954  0.17415  0.16253  1.0000
  O   O11       1.0  0.89047  0.32585  0.66253  1.0000
  O   O12       1.0  0.60953  0.32585  0.83747  1.0000
  O   O13       1.0  0.60954  0.82585  0.66253  1.0000
  O   O14       1.0  0.89047  0.82585  0.83747  1.0000
  O   O15       1.0  0.10953  0.67415  0.33747  1.0000
  O   O16       1.0  0.39047  0.67416  0.16253  1.0000
  O   O17       1.0  0.95472  0.04372  0.32418  1.0000
  O   O18       1.0  0.54529  0.04372  0.17582  1.0000
  O   O19       1.0  0.45472  0.45628  0.67582  1.0000
  O   O20       1.0  0.04528  0.45628  0.82418  1.0000
  O   O21       1.0  0.04528  0.95628  0.67582  1.0000
  O   O22       1.0  0.45472  0.95628  0.82418  1.0000
  O   O23       1.0  0.54528  0.54372  0.32418  1.0000
  O   O24       1.0  0.95472  0.54372  0.17582  1.0000
  O   O25       1.0  0.43115  0.85099  0.44263  1.0000
  O   O26       1.0  0.06885  0.85099  0.05737  1.0000
  O   O27       1.0  0.93115  0.64901  0.55737  1.0000
  O   O28       1.0  0.56885  0.64901  0.94263  1.0000
  O   O29       1.0  0.56885  0.14901  0.55737  1.0000
  O   O30       1.0  0.93115  0.14901  0.94263  1.0000
  O   O31       1.0  0.06884  0.35099  0.44263  1.0000
  O   O32       1.0  0.43115  0.35099  0.05737  1.0000
  O   O33       1.0  0.60921  0.29710  0.34521  1.0000
  O   O34       1.0  0.89080  0.29711  0.15479  1.0000
  O   O35       1.0  0.10921  0.20289  0.65479  1.0000
  O   O36       1.0  0.39079  0.20289  0.84521  1.0000
  O   O37       1.0  0.39080  0.70289  0.65479  1.0000
  O   O38       1.0  0.10921  0.70290  0.84521  1.0000
  O   O39       1.0  0.89080  0.79710  0.34521  1.0000
  O   O40       1.0  0.60920  0.79711  0.15479  1.0000
  O   O41       1.0  0.98014  0.14437  0.44406  1.0000
  O   O42       1.0  0.51986  0.14437  0.05594  1.0000
  O   O43       1.0  0.48014  0.35563  0.55594  1.0000
  O   O44       1.0  0.01986  0.35563  0.94406  1.0000
  O   O45       1.0  0.01986  0.85563  0.55594  1.0000
  O   O46       1.0  0.48014  0.85563  0.94406  1.0000
  O   O47       1.0  0.51986  0.64437  0.44406  1.0000
  O   O48       1.0  0.98014  0.64437  0.05594  1.0000
