data_image0
_chemical_formula_structural       Ag2H24Pd2C26S2N4O14F6
_chemical_formula_sum              "Ag2 H24 Pd2 C26 S2 N4 O14 F6"
_cell_length_a       9.80866
_cell_length_b       10.6797
_cell_length_c       11.672
_cell_angle_alpha    63.8263
_cell_angle_beta     71.9225
_cell_angle_gamma    88.1142

_space_group_name_H-M_alt    "P 1"
_space_group_IT_number       1

loop_
  _space_group_symop_operation_xyz
  'x, y, z'

loop_
  _atom_site_type_symbol
  _atom_site_label
  _atom_site_symmetry_multiplicity
  _atom_site_fract_x
  _atom_site_fract_y
  _atom_site_fract_z
  _atom_site_occupancy
  Ag  Ag1       1.0  0.25215  0.01409  0.99666  1.0000
  Ag  Ag2       1.0  0.74785  0.98590  0.00334  1.0000
  H   H1        1.0  0.53878  0.73271  0.80471  1.0000
  H   H2        1.0  0.46122  0.26728  0.19529  1.0000
  H   H3        1.0  0.57783  0.76536  0.92707  1.0000
  H   H4        1.0  0.42217  0.23464  0.07293  1.0000
  H   H5        1.0  0.68372  0.65607  0.86169  1.0000
  H   H6        1.0  0.31628  0.34393  0.13832  1.0000
  H   H7        1.0  0.77496  0.36832  0.48997  1.0000
  H   H8        1.0  0.22505  0.63167  0.51002  1.0000
  H   H9        1.0  0.66155  0.28700  0.66459  1.0000
  H   H10       1.0  0.33845  0.71301  0.33541  1.0000
  H   H11       1.0  0.60206  0.27356  0.54038  1.0000
  H   H12       1.0  0.39794  0.72643  0.45962  1.0000
  H   H13       1.0  0.88712  0.73729  0.40798  1.0000
  H   H14       1.0  0.11288  0.26272  0.59201  1.0000
  H   H15       1.0  0.85929  0.78491  0.25211  1.0000
  H   H16       1.0  0.14070  0.21511  0.74788  1.0000
  H   H17       1.0  0.72237  0.67136  0.40900  1.0000
  H   H18       1.0  0.27763  0.32864  0.59099  1.0000
  H   H19       1.0  0.81570  0.37533  0.19783  1.0000
  H   H20       1.0  0.18431  0.62468  0.80217  1.0000
  H   H21       1.0  0.90949  0.29859  0.09103  1.0000
  H   H22       1.0  0.09051  0.70141  0.90897  1.0000
  H   H23       1.0  0.96441  0.27935  0.22933  1.0000
  H   H24       1.0  0.03559  0.72065  0.77067  1.0000
  Pd  Pd1       1.0  0.50000  0.00000  0.50000  1.0000
  Pd  Pd2       1.0  0.00000  0.99999  0.50000  1.0000
  C   C1        1.0  0.62814  0.75022  0.83657  1.0000
  C   C2        1.0  0.37185  0.24978  0.16344  1.0000
  C   C3        1.0  0.72844  0.87644  0.72420  1.0000
  C   C4        1.0  0.27156  0.12356  0.27581  1.0000
  C   C5        1.0  0.68567  0.01398  0.69545  1.0000
  C   C6        1.0  0.31433  0.98602  0.30455  1.0000
  C   C7        1.0  0.76552  0.14551  0.59008  1.0000
  C   C8        1.0  0.23448  0.85449  0.40992  1.0000
  C   C9        1.0  0.69745  0.27787  0.56977  1.0000
  C   C10       1.0  0.30256  0.72212  0.43023  1.0000
  C   C11       1.0  0.55038  0.02187  0.77887  1.0000
  C   C12       1.0  0.44961  0.97813  0.22113  1.0000
  C   C13       1.0  0.80464  0.76260  0.35788  1.0000
  C   C14       1.0  0.19536  0.23741  0.64212  1.0000
  C   C15       1.0  0.73784  0.88598  0.37016  1.0000
  C   C16       1.0  0.26216  0.11402  0.62985  1.0000
  C   C17       1.0  0.81674  0.02328  0.28779  1.0000
  C   C18       1.0  0.18326  0.97672  0.71222  1.0000
  C   C19       1.0  0.77004  0.15282  0.28547  1.0000
  C   C20       1.0  0.22996  0.84718  0.71453  1.0000
  C   C21       1.0  0.87075  0.28563  0.19502  1.0000
  C   C22       1.0  0.12926  0.71437  0.80498  1.0000
  C   C23       1.0  0.95574  0.03236  0.19944  1.0000
  C   C24       1.0  0.04426  0.96764  0.80057  1.0000
  C   C25       1.0  0.13355  0.54175  0.27871  1.0000
  C   C26       1.0  0.86645  0.45825  0.72129  1.0000
  S   S1        1.0  0.23840  0.67486  0.10402  1.0000
  S   S2        1.0  0.76161  0.32514  0.89598  1.0000
  N   N1        1.0  0.43887  0.03160  0.84666  1.0000
  N   N2        1.0  0.56113  0.96840  0.15334  1.0000
  N   N3        1.0  0.07155  0.03860  0.12768  1.0000
  N   N4        1.0  0.92846  0.96140  0.87233  1.0000
  O   O1        1.0  0.84753  0.85285  0.65706  1.0000
  O   O2        1.0  0.15247  0.14714  0.34294  1.0000
  O   O3        1.0  0.89207  0.15905  0.50826  1.0000
  O   O4        1.0  0.10793  0.84095  0.49173  1.0000
  O   O5        1.0  0.61278  0.85771  0.45905  1.0000
  O   O6        1.0  0.38722  0.14229  0.54095  1.0000
  O   O7        1.0  0.64688  0.16267  0.35850  1.0000
  O   O8        1.0  0.35312  0.83733  0.64150  1.0000
  O   O9        1.0  0.12836  0.76521  0.06331  1.0000
  O   O10       1.0  0.87165  0.23479  0.93667  1.0000
  O   O11       1.0  0.34896  0.74377  0.12458  1.0000
  O   O12       1.0  0.65104  0.25622  0.87541  1.0000
  O   O13       1.0  0.28960  0.59207  0.03190  1.0000
  O   O14       1.0  0.71040  0.40792  0.96809  1.0000
  F   F1        1.0  0.07839  0.60430  0.36021  1.0000
  F   F2        1.0  0.92161  0.39571  0.63978  1.0000
  F   F3        1.0  0.21811  0.44674  0.33524  1.0000
  F   F4        1.0  0.78189  0.55326  0.66476  1.0000
  F   F5        1.0  0.02070  0.47096  0.27926  1.0000
  F   F6        1.0  0.97930  0.52904  0.72074  1.0000
