data_image0
_chemical_formula_structural       Ag4H24Pd2C24N8O20
_chemical_formula_sum              "Ag4 H24 Pd2 C24 N8 O20"
_cell_length_a       4.64359
_cell_length_b       7.72459
_cell_length_c       25.9091
_cell_angle_alpha    90
_cell_angle_beta     90
_cell_angle_gamma    105.16

_space_group_name_H-M_alt    "P 1"
_space_group_IT_number       1

loop_
  _space_group_symop_operation_xyz
  'x, y, z'

loop_
  _atom_site_type_symbol
  _atom_site_label
  _atom_site_symmetry_multiplicity
  _atom_site_fract_x
  _atom_site_fract_y
  _atom_site_fract_z
  _atom_site_occupancy
  Ag  Ag1       1.0  0.79962  0.75889  0.79233  1.0000
  Ag  Ag2       1.0  0.20038  0.74111  0.29233  1.0000
  Ag  Ag3       1.0  0.20038  0.24111  0.20767  1.0000
  Ag  Ag4       1.0  0.79962  0.25889  0.70767  1.0000
  H   H1        1.0  0.74007  0.15119  0.87988  1.0000
  H   H2        1.0  0.25993  0.34881  0.37988  1.0000
  H   H3        1.0  0.25993  0.84881  0.12012  1.0000
  H   H4        1.0  0.74007  0.65119  0.62012  1.0000
  H   H5        1.0  0.12994  0.26849  0.87955  1.0000
  H   H6        1.0  0.87007  0.23151  0.37955  1.0000
  H   H7        1.0  0.87007  0.73151  0.12045  1.0000
  H   H8        1.0  0.12993  0.76849  0.62045  1.0000
  H   H9        1.0  0.87847  0.33161  0.83627  1.0000
  H   H10       1.0  0.12153  0.16839  0.33627  1.0000
  H   H11       1.0  0.12153  0.66839  0.16373  1.0000
  H   H12       1.0  0.87847  0.83161  0.66373  1.0000
  H   H13       1.0  0.17700  0.01219  0.96722  1.0000
  H   H14       1.0  0.82300  0.48781  0.46722  1.0000
  H   H15       1.0  0.82299  0.98781  0.03278  1.0000
  H   H16       1.0  0.17701  0.51219  0.53278  1.0000
  H   H17       1.0  0.24907  0.95709  0.90207  1.0000
  H   H18       1.0  0.75093  0.54291  0.40207  1.0000
  H   H19       1.0  0.75093  0.04291  0.09793  1.0000
  H   H20       1.0  0.24907  0.45709  0.59793  1.0000
  H   H21       1.0  0.45847  0.89961  0.95345  1.0000
  H   H22       1.0  0.54153  0.60039  0.45345  1.0000
  H   H23       1.0  0.54153  0.10039  0.04655  1.0000
  H   H24       1.0  0.45846  0.39961  0.54655  1.0000
  Pd  Pd1       1.0  0.50000  0.50000  1.00000  1.0000
  Pd  Pd2       1.0  0.50000  1.00000  0.50000  1.0000
  C   C1        1.0  0.90095  0.28172  0.87549  1.0000
  C   C2        1.0  0.09905  0.21828  0.37549  1.0000
  C   C3        1.0  0.09905  0.71828  0.12451  1.0000
  C   C4        1.0  0.90096  0.78172  0.62451  1.0000
  C   C5        1.0  0.84526  0.41196  0.91435  1.0000
  C   C6        1.0  0.15473  0.08804  0.41435  1.0000
  C   C7        1.0  0.15473  0.58804  0.08565  1.0000
  C   C8        1.0  0.84527  0.91196  0.58565  1.0000
  C   C9        1.0  0.03898  0.58935  0.91535  1.0000
  C   C10       1.0  0.96102  0.91064  0.41535  1.0000
  C   C11       1.0  0.96102  0.41064  0.08465  1.0000
  C   C12       1.0  0.03898  0.08936  0.58465  1.0000
  C   C13       1.0  0.01476  0.73356  0.94796  1.0000
  C   C14       1.0  0.98524  0.76643  0.44796  1.0000
  C   C15       1.0  0.98524  0.26643  0.05204  1.0000
  C   C16       1.0  0.01476  0.23357  0.55204  1.0000
  C   C17       1.0  0.23586  0.91212  0.94246  1.0000
  C   C18       1.0  0.76414  0.58788  0.44246  1.0000
  C   C19       1.0  0.76414  0.08788  0.05754  1.0000
  C   C20       1.0  0.23585  0.41212  0.55754  1.0000
  C   C21       1.0  0.27719  0.62768  0.87965  1.0000
  C   C22       1.0  0.72280  0.87232  0.37965  1.0000
  C   C23       1.0  0.72280  0.37232  0.12035  1.0000
  C   C24       1.0  0.27720  0.12768  0.62035  1.0000
  N   N1        1.0  0.47933  0.66096  0.85121  1.0000
  N   N2        1.0  0.52067  0.83904  0.35121  1.0000
  N   N3        1.0  0.52067  0.33904  0.14879  1.0000
  N   N4        1.0  0.47933  0.16096  0.64879  1.0000
  N   N5        1.0  0.22020  0.11203  0.78484  1.0000
  N   N6        1.0  0.77980  0.38797  0.28484  1.0000
  N   N7        1.0  0.77980  0.88797  0.21516  1.0000
  N   N8        1.0  0.22020  0.61203  0.71516  1.0000
  O   O1        1.0  0.62353  0.35439  0.94461  1.0000
  O   O2        1.0  0.37647  0.14560  0.44461  1.0000
  O   O3        1.0  0.37647  0.64560  0.05539  1.0000
  O   O4        1.0  0.62353  0.85440  0.55539  1.0000
  O   O5        1.0  0.81498  0.72284  0.98276  1.0000
  O   O6        1.0  0.18502  0.77716  0.48276  1.0000
  O   O7        1.0  0.18502  0.27716  0.01724  1.0000
  O   O8        1.0  0.81498  0.22284  0.51724  1.0000
  O   O9        1.0  0.98105  0.05485  0.75699  1.0000
  O   O10       1.0  0.01896  0.44515  0.25699  1.0000
  O   O11       1.0  0.01896  0.94515  0.24301  1.0000
  O   O12       1.0  0.98105  0.55486  0.74301  1.0000
  O   O13       1.0  0.38768  0.26550  0.77751  1.0000
  O   O14       1.0  0.61232  0.23451  0.27751  1.0000
  O   O15       1.0  0.61232  0.73451  0.22249  1.0000
  O   O16       1.0  0.38768  0.76550  0.72249  1.0000
  O   O17       1.0  0.27210  0.00690  0.81883  1.0000
  O   O18       1.0  0.72790  0.49310  0.31883  1.0000
  O   O19       1.0  0.72790  0.99310  0.18117  1.0000
  O   O20       1.0  0.27211  0.50690  0.68117  1.0000
