data_image0
_chemical_formula_structural       Ag4H48C64N12O12
_chemical_formula_sum              "Ag4 H48 C64 N12 O12"
_cell_length_a       9.34297
_cell_length_b       10.9313
_cell_length_c       14.2195
_cell_angle_alpha    90
_cell_angle_beta     100.332
_cell_angle_gamma    89.9999

_space_group_name_H-M_alt    "P 1"
_space_group_IT_number       1

loop_
  _space_group_symop_operation_xyz
  'x, y, z'

loop_
  _atom_site_type_symbol
  _atom_site_label
  _atom_site_symmetry_multiplicity
  _atom_site_fract_x
  _atom_site_fract_y
  _atom_site_fract_z
  _atom_site_occupancy
  Ag  Ag1       1.0  0.08124  0.35059  0.99533  1.0000
  Ag  Ag2       1.0  0.41876  0.85059  0.50467  1.0000
  Ag  Ag3       1.0  0.91876  0.64941  0.00467  1.0000
  Ag  Ag4       1.0  0.58124  0.14941  0.49533  1.0000
  H   H1        1.0  0.20279  0.67860  0.38693  1.0000
  H   H2        1.0  0.29722  0.17860  0.11307  1.0000
  H   H3        1.0  0.79721  0.32140  0.61307  1.0000
  H   H4        1.0  0.70278  0.82140  0.88693  1.0000
  H   H5        1.0  0.05429  0.86595  0.38711  1.0000
  H   H6        1.0  0.44571  0.36595  0.11288  1.0000
  H   H7        1.0  0.94571  0.13405  0.61289  1.0000
  H   H8        1.0  0.55429  0.63405  0.88711  1.0000
  H   H9        1.0  0.94761  0.91904  0.53214  1.0000
  H   H10       1.0  0.55239  0.41904  0.96786  1.0000
  H   H11       1.0  0.05239  0.08096  0.46786  1.0000
  H   H12       1.0  0.44761  0.58096  0.03214  1.0000
  H   H13       1.0  0.99673  0.78753  0.67458  1.0000
  H   H14       1.0  0.50326  0.28753  0.82542  1.0000
  H   H15       1.0  0.00326  0.21247  0.32542  1.0000
  H   H16       1.0  0.49674  0.71247  0.17458  1.0000
  H   H17       1.0  0.06705  0.29645  0.77525  1.0000
  H   H18       1.0  0.43294  0.79645  0.72475  1.0000
  H   H19       1.0  0.93294  0.70355  0.22475  1.0000
  H   H20       1.0  0.56706  0.20355  0.27525  1.0000
  H   H21       1.0  0.07113  0.41250  0.62572  1.0000
  H   H22       1.0  0.42887  0.91250  0.87428  1.0000
  H   H23       1.0  0.92887  0.58750  0.37428  1.0000
  H   H24       1.0  0.57113  0.08750  0.12572  1.0000
  H   H25       1.0  0.21714  0.72698  0.80063  1.0000
  H   H26       1.0  0.28286  0.22698  0.69937  1.0000
  H   H27       1.0  0.78287  0.27302  0.19937  1.0000
  H   H28       1.0  0.71713  0.77302  0.30063  1.0000
  H   H29       1.0  0.21601  0.59538  0.94345  1.0000
  H   H30       1.0  0.28399  0.09539  0.55655  1.0000
  H   H31       1.0  0.78399  0.40461  0.05655  1.0000
  H   H32       1.0  0.71601  0.90461  0.44345  1.0000
  H   H33       1.0  0.55707  0.34837  0.64928  1.0000
  H   H34       1.0  0.94293  0.84837  0.85072  1.0000
  H   H35       1.0  0.44293  0.65163  0.35072  1.0000
  H   H36       1.0  0.05707  0.15163  0.14928  1.0000
  H   H37       1.0  0.41829  0.53704  0.66462  1.0000
  H   H38       1.0  0.08171  0.03704  0.83538  1.0000
  H   H39       1.0  0.58171  0.46296  0.33538  1.0000
  H   H40       1.0  0.91829  0.96296  0.16462  1.0000
  H   H41       1.0  0.16444  0.45899  0.38524  1.0000
  H   H42       1.0  0.33556  0.95899  0.11476  1.0000
  H   H43       1.0  0.83556  0.54101  0.61476  1.0000
  H   H44       1.0  0.66444  0.04101  0.88524  1.0000
  H   H45       1.0  0.30679  0.26953  0.38336  1.0000
  H   H46       1.0  0.19322  0.76953  0.11664  1.0000
  H   H47       1.0  0.69322  0.73047  0.61664  1.0000
  H   H48       1.0  0.80678  0.23047  0.88336  1.0000
  C   C1        1.0  0.12995  0.65873  0.61387  1.0000
  C   C2        1.0  0.37005  0.15872  0.88613  1.0000
  C   C3        1.0  0.87005  0.34127  0.38613  1.0000
  C   C4        1.0  0.62995  0.84127  0.11387  1.0000
  C   C5        1.0  0.18688  0.62603  0.53148  1.0000
  C   C6        1.0  0.31312  0.12603  0.96852  1.0000
  C   C7        1.0  0.81312  0.37397  0.46852  1.0000
  C   C8        1.0  0.68688  0.87397  0.03148  1.0000
  C   C9        1.0  0.15949  0.70312  0.45080  1.0000
  C   C10       1.0  0.34051  0.20311  0.04920  1.0000
  C   C11       1.0  0.84051  0.29689  0.54920  1.0000
  C   C12       1.0  0.65949  0.79689  0.95080  1.0000
  C   C13       1.0  0.07434  0.80831  0.45065  1.0000
  C   C14       1.0  0.42567  0.30831  0.04935  1.0000
  C   C15       1.0  0.92567  0.19169  0.54935  1.0000
  C   C16       1.0  0.57433  0.69169  0.95065  1.0000
  C   C17       1.0  0.01676  0.83899  0.53153  1.0000
  C   C18       1.0  0.48324  0.33899  0.96847  1.0000
  C   C19       1.0  0.98325  0.16101  0.46847  1.0000
  C   C20       1.0  0.51675  0.66101  0.03153  1.0000
  C   C21       1.0  0.04587  0.76542  0.61261  1.0000
  C   C22       1.0  0.45413  0.26542  0.88739  1.0000
  C   C23       1.0  0.95413  0.23458  0.38739  1.0000
  C   C24       1.0  0.54587  0.73458  0.11261  1.0000
  C   C25       1.0  0.10329  0.39147  0.77805  1.0000
  C   C26       1.0  0.39671  0.89147  0.72195  1.0000
  C   C27       1.0  0.89671  0.60853  0.22195  1.0000
  C   C28       1.0  0.60329  0.10853  0.27805  1.0000
  C   C29       1.0  0.10512  0.45681  0.69462  1.0000
  C   C30       1.0  0.39488  0.95681  0.80538  1.0000
  C   C31       1.0  0.89488  0.54319  0.30538  1.0000
  C   C32       1.0  0.60512  0.04319  0.19462  1.0000
  C   C33       1.0  0.14408  0.58092  0.70018  1.0000
  C   C34       1.0  0.35592  0.08092  0.79982  1.0000
  C   C35       1.0  0.85592  0.41908  0.29982  1.0000
  C   C36       1.0  0.64408  0.91908  0.20018  1.0000
  C   C37       1.0  0.18579  0.63113  0.79156  1.0000
  C   C38       1.0  0.31421  0.13113  0.70844  1.0000
  C   C39       1.0  0.81421  0.36886  0.20844  1.0000
  C   C40       1.0  0.68579  0.86887  0.29156  1.0000
  C   C41       1.0  0.18465  0.55850  0.87162  1.0000
  C   C42       1.0  0.31535  0.05850  0.62838  1.0000
  C   C43       1.0  0.81535  0.44150  0.12838  1.0000
  C   C44       1.0  0.68465  0.94150  0.37162  1.0000
  C   C45       1.0  0.46705  0.37434  0.59299  1.0000
  C   C46       1.0  0.03295  0.87434  0.90701  1.0000
  C   C47       1.0  0.53295  0.62566  0.40701  1.0000
  C   C48       1.0  0.96705  0.12566  0.09299  1.0000
  C   C49       1.0  0.38837  0.48034  0.60116  1.0000
  C   C50       1.0  0.11164  0.98034  0.89884  1.0000
  C   C51       1.0  0.61164  0.51966  0.39884  1.0000
  C   C52       1.0  0.88837  0.01966  0.10116  1.0000
  C   C53       1.0  0.27461  0.51405  0.52716  1.0000
  C   C54       1.0  0.22539  0.01405  0.97284  1.0000
  C   C55       1.0  0.72539  0.48595  0.47284  1.0000
  C   C56       1.0  0.77461  0.98595  0.02716  1.0000
  C   C57       1.0  0.24765  0.43739  0.44682  1.0000
  C   C58       1.0  0.25235  0.93739  0.05318  1.0000
  C   C59       1.0  0.75235  0.56261  0.55318  1.0000
  C   C60       1.0  0.74765  0.06261  0.94682  1.0000
  C   C61       1.0  0.32912  0.33157  0.44432  1.0000
  C   C62       1.0  0.17088  0.83157  0.05568  1.0000
  C   C63       1.0  0.67088  0.66843  0.55568  1.0000
  C   C64       1.0  0.82913  0.16843  0.94432  1.0000
  N   N1        1.0  0.14211  0.44072  0.86577  1.0000
  N   N2        1.0  0.35789  0.94072  0.63423  1.0000
  N   N3        1.0  0.85789  0.55928  0.13423  1.0000
  N   N4        1.0  0.64211  0.05928  0.36577  1.0000
  N   N5        1.0  0.43776  0.29990  0.51622  1.0000
  N   N6        1.0  0.06224  0.79990  0.98378  1.0000
  N   N7        1.0  0.56224  0.70010  0.48378  1.0000
  N   N8        1.0  0.93776  0.20010  0.01622  1.0000
  N   N9        1.0  0.21434  0.49954  0.17740  1.0000
  N   N10       1.0  0.28566  0.99954  0.32260  1.0000
  N   N11       1.0  0.78566  0.50046  0.82260  1.0000
  N   N12       1.0  0.71434  0.00046  0.67740  1.0000
  O   O1        1.0  0.19253  0.52341  0.08687  1.0000
  O   O2        1.0  0.30747  0.02341  0.41313  1.0000
  O   O3        1.0  0.80747  0.47659  0.91313  1.0000
  O   O4        1.0  0.69253  0.97658  0.58687  1.0000
  O   O5        1.0  0.18580  0.39434  0.20524  1.0000
  O   O6        1.0  0.31421  0.89434  0.29476  1.0000
  O   O7        1.0  0.81421  0.60566  0.79476  1.0000
  O   O8        1.0  0.68579  0.10566  0.70524  1.0000
  O   O9        1.0  0.26373  0.58334  0.23513  1.0000
  O   O10       1.0  0.23627  0.08334  0.26487  1.0000
  O   O11       1.0  0.73627  0.41666  0.76487  1.0000
  O   O12       1.0  0.76373  0.91666  0.73513  1.0000
