data_image0
_chemical_formula_structural       Na4H56C32N4O20
_chemical_formula_sum              "Na4 H56 C32 N4 O20"
_cell_length_a       5.58932
_cell_length_b       6.15174
_cell_length_c       31.7904
_cell_angle_alpha    89.9995
_cell_angle_beta     90.0004
_cell_angle_gamma    108.58

_space_group_name_H-M_alt    "P 1"
_space_group_IT_number       1

loop_
  _space_group_symop_operation_xyz
  'x, y, z'

loop_
  _atom_site_type_symbol
  _atom_site_label
  _atom_site_symmetry_multiplicity
  _atom_site_fract_x
  _atom_site_fract_y
  _atom_site_fract_z
  _atom_site_occupancy
  Na  Na1       1.0  0.22692  0.91398  0.47185  1.0000
  Na  Na2       1.0  0.27309  0.58602  0.97185  1.0000
  Na  Na3       1.0  0.77308  0.08603  0.52815  1.0000
  Na  Na4       1.0  0.72692  0.41396  0.02815  1.0000
  H   H1        1.0  0.96976  0.32053  0.33346  1.0000
  H   H2        1.0  0.53023  0.17947  0.83346  1.0000
  H   H3        1.0  0.03025  0.67949  0.66654  1.0000
  H   H4        1.0  0.46977  0.82052  0.16654  1.0000
  H   H5        1.0  0.95109  0.43476  0.38049  1.0000
  H   H6        1.0  0.54890  0.06523  0.88049  1.0000
  H   H7        1.0  0.04891  0.56524  0.61951  1.0000
  H   H8        1.0  0.45110  0.93476  0.11951  1.0000
  H   H9        1.0  0.40006  0.31223  0.35769  1.0000
  H   H10       1.0  0.09992  0.18778  0.85769  1.0000
  H   H11       1.0  0.59994  0.68780  0.64231  1.0000
  H   H12       1.0  0.90008  0.81221  0.14231  1.0000
  H   H13       1.0  0.14652  0.81227  0.35030  1.0000
  H   H14       1.0  0.35348  0.68774  0.85030  1.0000
  H   H15       1.0  0.85347  0.18776  0.64970  1.0000
  H   H16       1.0  0.64653  0.31224  0.14970  1.0000
  H   H17       1.0  0.30680  0.12298  0.29811  1.0000
  H   H18       1.0  0.19318  0.37702  0.79811  1.0000
  H   H19       1.0  0.69318  0.87705  0.70189  1.0000
  H   H20       1.0  0.80679  0.62296  0.20189  1.0000
  H   H21       1.0  0.68148  0.14009  0.25347  1.0000
  H   H22       1.0  0.81851  0.35990  0.75347  1.0000
  H   H23       1.0  0.31850  0.85994  0.74653  1.0000
  H   H24       1.0  0.18148  0.64008  0.24653  1.0000
  H   H25       1.0  0.88537  0.83864  0.26101  1.0000
  H   H26       1.0  0.61462  0.66136  0.76101  1.0000
  H   H27       1.0  0.11462  0.16139  0.73899  1.0000
  H   H28       1.0  0.38539  0.33864  0.23899  1.0000
  H   H29       1.0  0.71195  0.51622  0.31105  1.0000
  H   H30       1.0  0.78804  0.98378  0.81105  1.0000
  H   H31       1.0  0.28803  0.48382  0.68895  1.0000
  H   H32       1.0  0.21197  0.01621  0.18895  1.0000
  H   H33       1.0  0.71900  0.65263  0.47171  1.0000
  H   H34       1.0  0.78101  0.84737  0.97171  1.0000
  H   H35       1.0  0.28100  0.34738  0.52829  1.0000
  H   H36       1.0  0.21901  0.15261  0.02829  1.0000
  H   H37       1.0  0.78675  0.60389  0.51835  1.0000
  H   H38       1.0  0.71328  0.89610  0.01835  1.0000
  H   H39       1.0  0.21325  0.39612  0.48165  1.0000
  H   H40       1.0  0.28675  0.10387  0.98165  1.0000
  H   H41       1.0  0.22627  0.91466  0.55717  1.0000
  H   H42       1.0  0.27375  0.58534  0.05717  1.0000
  H   H43       1.0  0.77374  0.08535  0.44283  1.0000
  H   H44       1.0  0.72626  0.41465  0.94283  1.0000
  H   H45       1.0  0.34294  0.71285  0.55547  1.0000
  H   H46       1.0  0.15707  0.78715  0.05547  1.0000
  H   H47       1.0  0.65705  0.28715  0.44453  1.0000
  H   H48       1.0  0.84294  0.21284  0.94453  1.0000
  H   H49       1.0  0.85378  0.82529  0.40787  1.0000
  H   H50       1.0  0.64623  0.67472  0.90787  1.0000
  H   H51       1.0  0.14623  0.17473  0.59213  1.0000
  H   H52       1.0  0.35379  0.32528  0.09213  1.0000
  H   H53       1.0  0.98247  0.08946  0.39119  1.0000
  H   H54       1.0  0.51753  0.41055  0.89119  1.0000
  H   H55       1.0  0.01754  0.91056  0.60881  1.0000
  H   H56       1.0  0.48248  0.58945  0.10881  1.0000
  C   C1        1.0  0.39832  0.52772  0.40974  1.0000
  C   C2        1.0  0.10167  0.97227  0.90974  1.0000
  C   C3        1.0  0.60166  0.47227  0.59026  1.0000
  C   C4        1.0  0.89836  0.02774  0.09026  1.0000
  C   C5        1.0  0.31189  0.44435  0.36460  1.0000
  C   C6        1.0  0.18809  0.05564  0.86460  1.0000
  C   C7        1.0  0.68809  0.55565  0.63540  1.0000
  C   C8        1.0  0.81192  0.94436  0.13540  1.0000
  C   C9        1.0  0.41644  0.64079  0.33388  1.0000
  C   C10       1.0  0.08354  0.85921  0.83388  1.0000
  C   C11       1.0  0.58354  0.35924  0.66612  1.0000
  C   C12       1.0  0.91646  0.14078  0.16612  1.0000
  C   C13       1.0  0.30588  0.81506  0.33027  1.0000
  C   C14       1.0  0.19411  0.68493  0.83027  1.0000
  C   C15       1.0  0.69410  0.18496  0.66973  1.0000
  C   C16       1.0  0.80589  0.31504  0.16973  1.0000
  C   C17       1.0  0.39945  0.99257  0.30137  1.0000
  C   C18       1.0  0.10055  0.50744  0.80137  1.0000
  C   C19       1.0  0.60054  0.00746  0.69863  1.0000
  C   C20       1.0  0.89944  0.49255  0.19863  1.0000
  C   C21       1.0  0.60817  0.00234  0.27627  1.0000
  C   C22       1.0  0.89180  0.49762  0.77627  1.0000
  C   C23       1.0  0.39180  0.99766  0.72373  1.0000
  C   C24       1.0  0.10818  0.50234  0.22373  1.0000
  C   C25       1.0  0.72183  0.83152  0.28025  1.0000
  C   C26       1.0  0.77814  0.66848  0.78026  1.0000
  C   C27       1.0  0.27815  0.16852  0.71974  1.0000
  C   C28       1.0  0.22184  0.33151  0.21975  1.0000
  C   C29       1.0  0.62528  0.65148  0.30860  1.0000
  C   C30       1.0  0.87471  0.84850  0.80860  1.0000
  C   C31       1.0  0.37471  0.34854  0.69140  1.0000
  C   C32       1.0  0.12529  0.15147  0.19140  1.0000
  N   N1        1.0  0.03677  0.33804  0.36356  1.0000
  N   N2        1.0  0.46322  0.16195  0.86356  1.0000
  N   N3        1.0  0.96323  0.66196  0.63644  1.0000
  N   N4        1.0  0.53679  0.83805  0.13644  1.0000
  O   O1        1.0  0.62844  0.54739  0.41833  1.0000
  O   O2        1.0  0.87155  0.95261  0.91833  1.0000
  O   O3        1.0  0.37155  0.45262  0.58167  1.0000
  O   O4        1.0  0.12847  0.04739  0.08168  1.0000
  O   O5        1.0  0.24187  0.57001  0.43410  1.0000
  O   O6        1.0  0.25812  0.92998  0.93410  1.0000
  O   O7        1.0  0.75813  0.42998  0.56590  1.0000
  O   O8        1.0  0.74191  0.07001  0.06590  1.0000
  O   O9        1.0  0.80735  0.72693  0.49746  1.0000
  O   O10       1.0  0.69267  0.77306  0.99746  1.0000
  O   O11       1.0  0.19264  0.27308  0.50254  1.0000
  O   O12       1.0  0.30736  0.22691  0.00254  1.0000
  O   O13       1.0  0.35418  0.86081  0.54248  1.0000
  O   O14       1.0  0.14583  0.63919  0.04248  1.0000
  O   O15       1.0  0.64582  0.13919  0.45752  1.0000
  O   O16       1.0  0.85418  0.36080  0.95752  1.0000
  O   O17       1.0  0.97879  0.97538  0.41433  1.0000
  O   O18       1.0  0.52121  0.52462  0.91433  1.0000
  O   O19       1.0  0.02122  0.02463  0.58567  1.0000
  O   O20       1.0  0.47881  0.47537  0.08567  1.0000
