data_image0
_chemical_formula_structural       Zn2H24C28N8O8
_chemical_formula_sum              "Zn2 H24 C28 N8 O8"
_cell_length_a       8.30786
_cell_length_b       9.86027
_cell_length_c       9.97839
_cell_angle_alpha    90.0002
_cell_angle_beta     89.9997
_cell_angle_gamma    103.965

_space_group_name_H-M_alt    "P 1"
_space_group_IT_number       1

loop_
  _space_group_symop_operation_xyz
  'x, y, z'

loop_
  _atom_site_type_symbol
  _atom_site_label
  _atom_site_symmetry_multiplicity
  _atom_site_fract_x
  _atom_site_fract_y
  _atom_site_fract_z
  _atom_site_occupancy
  Zn  Zn1       1.0  0.59736  0.34089  0.10261  1.0000
  Zn  Zn2       1.0  0.09736  0.84089  0.89739  1.0000
  H   H1        1.0  0.90667  0.64984  0.47881  1.0000
  H   H2        1.0  0.40667  0.14984  0.52119  1.0000
  H   H3        1.0  0.72475  0.40682  0.41545  1.0000
  H   H4        1.0  0.22475  0.90682  0.58456  1.0000
  H   H5        1.0  0.12594  0.53521  0.93460  1.0000
  H   H6        1.0  0.62594  0.03521  0.06541  1.0000
  H   H7        1.0  0.97756  0.35964  0.11208  1.0000
  H   H8        1.0  0.47756  0.85964  0.88792  1.0000
  H   H9        1.0  0.27620  0.63399  0.23348  1.0000
  H   H10       1.0  0.77620  0.13399  0.76652  1.0000
  H   H11       1.0  0.22478  0.23803  0.21267  1.0000
  H   H12       1.0  0.72478  0.73803  0.78733  1.0000
  H   H13       1.0  0.43358  0.53469  0.91748  1.0000
  H   H14       1.0  0.93358  0.03469  0.08252  1.0000
  H   H15       1.0  0.65553  0.01192  0.48986  1.0000
  H   H16       1.0  0.15553  0.51191  0.51014  1.0000
  H   H17       1.0  0.44678  0.57322  0.41956  1.0000
  H   H18       1.0  0.94678  0.07321  0.58044  1.0000
  H   H19       1.0  0.96413  0.80936  0.27142  1.0000
  H   H20       1.0  0.46412  0.30937  0.72857  1.0000
  H   H21       1.0  0.80432  0.64514  0.05986  1.0000
  H   H22       1.0  0.30432  0.14514  0.94014  1.0000
  H   H23       1.0  0.63605  0.76361  0.54909  1.0000
  H   H24       1.0  0.13606  0.26361  0.45091  1.0000
  C   C1        1.0  0.76862  0.49305  0.34682  1.0000
  C   C2        1.0  0.26862  0.99306  0.65318  1.0000
  C   C3        1.0  0.47683  0.96262  0.32966  1.0000
  C   C4        1.0  0.97683  0.46262  0.67034  1.0000
  C   C5        1.0  0.50330  0.11378  0.29134  1.0000
  C   C6        1.0  0.00330  0.61378  0.70866  1.0000
  C   C7        1.0  0.36890  0.85559  0.25711  1.0000
  C   C8        1.0  0.86890  0.35559  0.74289  1.0000
  C   C9        1.0  0.10849  0.37815  0.08985  1.0000
  C   C10       1.0  0.60849  0.87815  0.91015  1.0000
  C   C11       1.0  0.25890  0.88913  0.14834  1.0000
  C   C12       1.0  0.75890  0.38913  0.85165  1.0000
  C   C13       1.0  0.35943  0.71592  0.29077  1.0000
  C   C14       1.0  0.85943  0.21592  0.70923  1.0000
  C   C15       1.0  0.23095  0.32003  0.13921  1.0000
  C   C16       1.0  0.73095  0.82003  0.86079  1.0000
  C   C17       1.0  0.34350  0.47123  0.98474  1.0000
  C   C18       1.0  0.84350  0.97123  0.01526  1.0000
  C   C19       1.0  0.57126  0.92835  0.43499  1.0000
  C   C20       1.0  0.07127  0.42834  0.56501  1.0000
  C   C21       1.0  0.45414  0.68249  0.39563  1.0000
  C   C22       1.0  0.95414  0.18249  0.60437  1.0000
  C   C23       1.0  0.89134  0.70225  0.26884  1.0000
  C   C24       1.0  0.39133  0.20226  0.73115  1.0000
  C   C25       1.0  0.81285  0.62099  0.16511  1.0000
  C   C26       1.0  0.31285  0.12099  0.83489  1.0000
  C   C27       1.0  0.56018  0.78882  0.46802  1.0000
  C   C28       1.0  0.06018  0.28882  0.53197  1.0000
  N   N1        1.0  0.86219  0.61965  0.38168  1.0000
  N   N2        1.0  0.36218  0.11966  0.61832  1.0000
  N   N3        1.0  0.37718  0.37906  0.07222  1.0000
  N   N4        1.0  0.87718  0.87906  0.92778  1.0000
  N   N5        1.0  0.73666  0.49040  0.21528  1.0000
  N   N6        1.0  0.23666  0.99040  0.78473  1.0000
  N   N7        1.0  0.18224  0.47238  0.99311  1.0000
  N   N8        1.0  0.68224  0.97238  0.00690  1.0000
  O   O1        1.0  0.56001  0.14511  0.17173  1.0000
  O   O2        1.0  0.06002  0.64511  0.82826  1.0000
  O   O3        1.0  0.48032  0.20348  0.37385  1.0000
  O   O4        1.0  0.98032  0.70348  0.62614  1.0000
  O   O5        1.0  0.19653  0.99220  0.16055  1.0000
  O   O6        1.0  0.69654  0.49220  0.83945  1.0000
  O   O7        1.0  0.23428  0.80290  0.04823  1.0000
  O   O8        1.0  0.73428  0.30291  0.95177  1.0000
