data_image0
_chemical_formula_structural       La2H14C16O18
_chemical_formula_sum              "La2 H14 C16 O18"
_cell_length_a       7.14735
_cell_length_b       8.13254
_cell_length_c       9.38263
_cell_angle_alpha    67.7003
_cell_angle_beta     86.3525
_cell_angle_gamma    83.6179

_space_group_name_H-M_alt    "P 1"
_space_group_IT_number       1

loop_
  _space_group_symop_operation_xyz
  'x, y, z'

loop_
  _atom_site_type_symbol
  _atom_site_label
  _atom_site_symmetry_multiplicity
  _atom_site_fract_x
  _atom_site_fract_y
  _atom_site_fract_z
  _atom_site_occupancy
  La  La1       1.0  0.24687  0.50907  0.86147  1.0000
  La  La2       1.0  0.75313  0.49093  0.13853  1.0000
  H   H1        1.0  0.32289  0.59438  0.36215  1.0000
  H   H2        1.0  0.67711  0.40562  0.63785  1.0000
  H   H3        1.0  0.36057  0.94415  0.08535  1.0000
  H   H4        1.0  0.63943  0.05585  0.91465  1.0000
  H   H5        1.0  0.25269  0.95949  0.39896  1.0000
  H   H6        1.0  0.74731  0.04051  0.60104  1.0000
  H   H7        1.0  0.95926  0.83212  0.24898  1.0000
  H   H8        1.0  0.04074  0.16787  0.75102  1.0000
  H   H9        1.0  0.58424  0.72703  0.77824  1.0000
  H   H10       1.0  0.41576  0.27297  0.22176  1.0000
  H   H11       1.0  0.43068  0.86444  0.67739  1.0000
  H   H12       1.0  0.56932  0.13556  0.32261  1.0000
  H   H13       1.0  0.76417  0.81308  0.45121  1.0000
  H   H14       1.0  0.23583  0.18692  0.54879  1.0000
  C   C1        1.0  0.23279  0.62881  0.14173  1.0000
  C   C2        1.0  0.76721  0.37119  0.85827  1.0000
  C   C3        1.0  0.55816  0.84082  0.26689  1.0000
  C   C4        1.0  0.44184  0.15918  0.73311  1.0000
  C   C5        1.0  0.11691  0.14551  0.19917  1.0000
  C   C6        1.0  0.88309  0.85449  0.80083  1.0000
  C   C7        1.0  0.03123  0.70727  0.48964  1.0000
  C   C8        1.0  0.96877  0.29273  0.51036  1.0000
  C   C9        1.0  0.25346  0.70231  0.26416  1.0000
  C   C10       1.0  0.74654  0.29769  0.73584  1.0000
  C   C11       1.0  0.35866  0.87477  0.21126  1.0000
  C   C12       1.0  0.64134  0.12523  0.78874  1.0000
  C   C13       1.0  0.20238  0.95820  0.29099  1.0000
  C   C14       1.0  0.79762  0.04180  0.70901  1.0000
  C   C15       1.0  0.08297  0.79721  0.32145  1.0000
  C   C16       1.0  0.91703  0.20279  0.67855  1.0000
  O   O1        1.0  0.38344  0.59953  0.06971  1.0000
  O   O2        1.0  0.61656  0.40047  0.93029  1.0000
  O   O3        1.0  0.23380  0.25196  0.11217  1.0000
  O   O4        1.0  0.76620  0.74804  0.88783  1.0000
  O   O5        1.0  0.67033  0.73495  0.22443  1.0000
  O   O6        1.0  0.32967  0.26505  0.77557  1.0000
  O   O7        1.0  0.94353  0.18611  0.21483  1.0000
  O   O8        1.0  0.05647  0.81389  0.78518  1.0000
  O   O9        1.0  0.47150  0.73443  0.71880  1.0000
  O   O10       1.0  0.52850  0.26557  0.28120  1.0000
  O   O11       1.0  0.15388  0.61307  0.58254  1.0000
  O   O12       1.0  0.84612  0.38693  0.41746  1.0000
  O   O13       1.0  0.07337  0.59904  0.10897  1.0000
  O   O14       1.0  0.92663  0.40096  0.89103  1.0000
  O   O15       1.0  0.60526  0.91261  0.35700  1.0000
  O   O16       1.0  0.39474  0.08739  0.64300  1.0000
  O   O17       1.0  0.85957  0.73515  0.53842  1.0000
  O   O18       1.0  0.14043  0.26485  0.46158  1.0000
