data_image0
_chemical_formula_structural       ZnH20C16N4O8
_chemical_formula_sum              "Zn1 H20 C16 N4 O8"
_cell_length_a       7.21546
_cell_length_b       7.49552
_cell_length_c       9.34739
_cell_angle_alpha    62.7365
_cell_angle_beta     75.0305
_cell_angle_gamma    83.7264

_space_group_name_H-M_alt    "P 1"
_space_group_IT_number       1

loop_
  _space_group_symop_operation_xyz
  'x, y, z'

loop_
  _atom_site_type_symbol
  _atom_site_label
  _atom_site_symmetry_multiplicity
  _atom_site_fract_x
  _atom_site_fract_y
  _atom_site_fract_z
  _atom_site_occupancy
  Zn  Zn1       1.0  0.50000  0.50000  0.50000  1.0000
  H   H1        1.0  0.32970  0.76011  0.68066  1.0000
  H   H2        1.0  0.67029  0.23988  0.31934  1.0000
  H   H3        1.0  0.19996  0.37445  0.20747  1.0000
  H   H4        1.0  0.80005  0.62555  0.79253  1.0000
  H   H5        1.0  0.36032  0.09758  0.14587  1.0000
  H   H6        1.0  0.63969  0.90242  0.85414  1.0000
  H   H7        1.0  0.48638  0.16514  0.84685  1.0000
  H   H8        1.0  0.51362  0.83485  0.15316  1.0000
  H   H9        1.0  0.79192  0.92755  0.59256  1.0000
  H   H10       1.0  0.20808  0.07246  0.40743  1.0000
  H   H11       1.0  0.96699  0.95894  0.68121  1.0000
  H   H12       1.0  0.03302  0.04107  0.31878  1.0000
  H   H13       1.0  0.97796  0.85700  0.13138  1.0000
  H   H14       1.0  0.02204  0.14300  0.86863  1.0000
  H   H15       1.0  0.02671  0.59860  0.22234  1.0000
  H   H16       1.0  0.97329  0.40140  0.77766  1.0000
  H   H17       1.0  0.18804  0.31697  0.50030  1.0000
  H   H18       1.0  0.81195  0.68303  0.49970  1.0000
  H   H19       1.0  0.28062  0.14737  0.64271  1.0000
  H   H20       1.0  0.71938  0.85263  0.35729  1.0000
  C   C1        1.0  0.32910  0.61409  0.78662  1.0000
  C   C2        1.0  0.67089  0.38591  0.21338  1.0000
  C   C3        1.0  0.24988  0.59032  0.94768  1.0000
  C   C4        1.0  0.75012  0.40968  0.05232  1.0000
  C   C5        1.0  0.25985  0.40112  0.07947  1.0000
  C   C6        1.0  0.74015  0.59888  0.92054  1.0000
  C   C7        1.0  0.34780  0.24552  0.04538  1.0000
  C   C8        1.0  0.65221  0.75448  0.95462  1.0000
  C   C9        1.0  0.41802  0.28132  0.88117  1.0000
  C   C10       1.0  0.58198  0.71868  0.11883  1.0000
  C   C11       1.0  0.15730  0.76705  0.97071  1.0000
  C   C12       1.0  0.84269  0.23293  0.02931  1.0000
  C   C13       1.0  0.85979  0.23171  0.51737  1.0000
  C   C14       1.0  0.14022  0.76830  0.48263  1.0000
  C   C15       1.0  0.92007  0.01442  0.56501  1.0000
  C   C16       1.0  0.07993  0.98559  0.43498  1.0000
  N   N1        1.0  0.40754  0.46242  0.75363  1.0000
  N   N2        1.0  0.59246  0.53758  0.24636  1.0000
  N   N3        1.0  0.05279  0.73657  0.12036  1.0000
  N   N4        1.0  0.94722  0.26344  0.87963  1.0000
  O   O1        1.0  0.17700  0.93976  0.84869  1.0000
  O   O2        1.0  0.82300  0.06025  0.15130  1.0000
  O   O3        1.0  0.68613  0.25686  0.58168  1.0000
  O   O4        1.0  0.31386  0.74314  0.41832  1.0000
  O   O5        1.0  0.98205  0.37142  0.42041  1.0000
  O   O6        1.0  0.01795  0.62858  0.57959  1.0000
  O   O7        1.0  0.30967  0.27035  0.53757  1.0000
  O   O8        1.0  0.69033  0.72966  0.46243  1.0000
