data_image0
_chemical_formula_structural       K2B2H62C48N18
_chemical_formula_sum              "K2 B2 H62 C48 N18"
_cell_length_a       10.4012
_cell_length_b       12.1477
_cell_length_c       13.2305
_cell_angle_alpha    65.2993
_cell_angle_beta     67.5197
_cell_angle_gamma    89.4347

_space_group_name_H-M_alt    "P 1"
_space_group_IT_number       1

loop_
  _space_group_symop_operation_xyz
  'x, y, z'

loop_
  _atom_site_type_symbol
  _atom_site_label
  _atom_site_symmetry_multiplicity
  _atom_site_fract_x
  _atom_site_fract_y
  _atom_site_fract_z
  _atom_site_occupancy
  K   K1        1.0  0.18776  0.19260  0.38889  1.0000
  K   K2        1.0  0.81224  0.80739  0.61111  1.0000
  B   B1        1.0  0.88269  0.08764  0.62999  1.0000
  B   B2        1.0  0.11731  0.91236  0.37001  1.0000
  H   H1        1.0  0.04572  0.38461  0.83085  1.0000
  H   H2        1.0  0.95428  0.61539  0.16914  1.0000
  H   H3        1.0  0.21934  0.36679  0.82193  1.0000
  H   H4        1.0  0.78066  0.63321  0.17807  1.0000
  H   H5        1.0  0.09793  0.23799  0.86150  1.0000
  H   H6        1.0  0.90207  0.76201  0.13850  1.0000
  H   H7        1.0  0.28016  0.20109  0.68772  1.0000
  H   H8        1.0  0.71984  0.79891  0.31229  1.0000
  H   H9        1.0  0.39848  0.33073  0.64934  1.0000
  H   H10       1.0  0.60152  0.66927  0.35066  1.0000
  H   H11       1.0  0.35226  0.32124  0.53625  1.0000
  H   H12       1.0  0.64774  0.67876  0.46375  1.0000
  H   H13       1.0  0.28563  0.53066  0.49038  1.0000
  H   H14       1.0  0.71437  0.46934  0.50962  1.0000
  H   H15       1.0  0.32836  0.53730  0.60566  1.0000
  H   H16       1.0  0.67164  0.46270  0.39434  1.0000
  H   H17       1.0  0.15956  0.56256  0.60669  1.0000
  H   H18       1.0  0.84044  0.43744  0.39331  1.0000
  H   H19       1.0  0.75473  0.29540  0.64086  1.0000
  H   H20       1.0  0.24528  0.70460  0.35913  1.0000
  H   H21       1.0  0.06653  0.33366  0.17965  1.0000
  H   H22       1.0  0.93347  0.66634  0.82035  1.0000
  H   H23       1.0  0.06700  0.29152  0.06562  1.0000
  H   H24       1.0  0.93300  0.70848  0.93439  1.0000
  H   H25       1.0  0.07531  0.17951  0.20110  1.0000
  H   H26       1.0  0.92469  0.82049  0.79891  1.0000
  H   H27       1.0  0.86126  0.04075  0.24191  1.0000
  H   H28       1.0  0.13874  0.95925  0.75809  1.0000
  H   H29       1.0  0.85707  0.15305  0.10367  1.0000
  H   H30       1.0  0.14293  0.84695  0.89633  1.0000
  H   H31       1.0  0.70295  0.09830  0.24374  1.0000
  H   H32       1.0  0.29705  0.90170  0.75626  1.0000
  H   H33       1.0  0.69168  0.32656  0.20568  1.0000
  H   H34       1.0  0.30832  0.67345  0.79432  1.0000
  H   H35       1.0  0.84759  0.37553  0.06821  1.0000
  H   H36       1.0  0.15241  0.62447  0.93179  1.0000
  H   H37       1.0  0.84124  0.41925  0.18253  1.0000
  H   H38       1.0  0.15876  0.58075  0.81747  1.0000
  H   H39       1.0  0.58849  0.08654  0.65313  1.0000
  H   H40       1.0  0.41151  0.91346  0.34687  1.0000
  H   H41       1.0  0.81131  0.09754  0.85860  1.0000
  H   H42       1.0  0.18869  0.90246  0.14140  1.0000
  H   H43       1.0  0.51555  0.73192  0.81630  1.0000
  H   H44       1.0  0.48445  0.26808  0.18370  1.0000
  H   H45       1.0  0.44663  0.58550  0.94590  1.0000
  H   H46       1.0  0.55337  0.41450  0.05410  1.0000
  H   H47       1.0  0.63213  0.63732  0.86700  1.0000
  H   H48       1.0  0.36787  0.36268  0.13300  1.0000
  H   H49       1.0  0.35772  0.78782  0.09846  1.0000
  H   H50       1.0  0.64228  0.21218  0.90154  1.0000
  H   H51       1.0  0.29145  0.66768  0.07827  1.0000
  H   H52       1.0  0.70855  0.33232  0.92173  1.0000
  H   H53       1.0  0.34830  0.82112  0.95721  1.0000
  H   H54       1.0  0.65170  0.17888  0.04279  1.0000
  H   H55       1.0  0.65333  0.60649  0.05899  1.0000
  H   H56       1.0  0.34667  0.39351  0.94101  1.0000
  H   H57       1.0  0.46814  0.54908  0.14517  1.0000
  H   H58       1.0  0.53186  0.45091  0.85483  1.0000
  H   H59       1.0  0.54717  0.67232  0.15294  1.0000
  H   H60       1.0  0.45283  0.32768  0.84706  1.0000
  H   H61       1.0  0.98199  0.03829  0.59932  1.0000
  H   H62       1.0  0.01802  0.96171  0.40068  1.0000
  C   C1        1.0  0.54307  0.16670  0.42922  1.0000
  C   C2        1.0  0.45693  0.83330  0.57078  1.0000
  C   C3        1.0  0.89567  0.47778  0.67219  1.0000
  C   C4        1.0  0.10434  0.52221  0.32780  1.0000
  C   C5        1.0  0.13425  0.33768  0.80369  1.0000
  C   C6        1.0  0.86575  0.66233  0.19631  1.0000
  C   C7        1.0  0.31189  0.30115  0.63305  1.0000
  C   C8        1.0  0.68811  0.69885  0.36696  1.0000
  C   C9        1.0  0.24270  0.50823  0.58793  1.0000
  C   C10       1.0  0.75730  0.49177  0.41207  1.0000
  C   C11       1.0  0.18921  0.36873  0.66687  1.0000
  C   C12       1.0  0.81079  0.63127  0.33313  1.0000
  C   C13       1.0  0.06759  0.32664  0.64787  1.0000
  C   C14       1.0  0.93241  0.67336  0.35213  1.0000
  C   C15       1.0  0.93973  0.37531  0.65391  1.0000
  C   C16       1.0  0.06027  0.62470  0.34609  1.0000
  C   C17       1.0  0.85949  0.29545  0.63991  1.0000
  C   C18       1.0  0.14051  0.70455  0.36009  1.0000
  C   C19       1.0  0.02863  0.26002  0.16472  1.0000
  C   C20       1.0  0.97137  0.73998  0.83528  1.0000
  C   C21       1.0  0.81875  0.12360  0.20252  1.0000
  C   C22       1.0  0.18124  0.87640  0.79748  1.0000
  C   C23       1.0  0.80758  0.34413  0.16748  1.0000
  C   C24       1.0  0.19242  0.65587  0.83252  1.0000
  C   C25       1.0  0.86660  0.22838  0.22458  1.0000
  C   C26       1.0  0.13340  0.77162  0.77542  1.0000
  C   C27       1.0  0.81108  0.18443  0.36122  1.0000
  C   C28       1.0  0.18893  0.81557  0.63878  1.0000
  C   C29       1.0  0.66706  0.15752  0.44855  1.0000
  C   C30       1.0  0.33294  0.84248  0.55145  1.0000
  C   C31       1.0  0.67268  0.11493  0.56242  1.0000
  C   C32       1.0  0.32731  0.88506  0.43758  1.0000
  C   C33       1.0  0.75693  0.01887  0.86312  1.0000
  C   C34       1.0  0.24306  0.98113  0.13688  1.0000
  C   C35       1.0  0.62469  0.84305  0.91522  1.0000
  C   C36       1.0  0.37531  0.15695  0.08478  1.0000
  C   C37       1.0  0.65833  0.91794  0.96432  1.0000
  C   C38       1.0  0.34168  0.08207  0.03567  1.0000
  C   C39       1.0  0.60026  0.90286  0.08510  1.0000
  C   C40       1.0  0.39974  0.09714  0.91489  1.0000
  C   C41       1.0  0.52017  0.72406  0.98302  1.0000
  C   C42       1.0  0.47983  0.27594  0.01698  1.0000
  C   C43       1.0  0.52982  0.66701  0.89725  1.0000
  C   C44       1.0  0.47018  0.33299  0.10275  1.0000
  C   C45       1.0  0.37001  0.75231  0.03204  1.0000
  C   C46       1.0  0.62999  0.24769  0.96796  1.0000
  C   C47       1.0  0.54934  0.63276  0.09145  1.0000
  C   C48       1.0  0.45066  0.36724  0.90855  1.0000
  N   N1        1.0  0.85482  0.56152  0.68891  1.0000
  N   N2        1.0  0.14518  0.43849  0.31109  1.0000
  N   N3        1.0  0.43951  0.17457  0.41323  1.0000
  N   N4        1.0  0.56049  0.82543  0.58677  1.0000
  N   N5        1.0  0.06223  0.22615  0.63095  1.0000
  N   N6        1.0  0.93777  0.77385  0.36905  1.0000
  N   N7        1.0  0.93515  0.20815  0.62647  1.0000
  N   N8        1.0  0.06485  0.79185  0.37353  1.0000
  N   N9        1.0  0.89541  0.15927  0.41971  1.0000
  N   N10       1.0  0.10459  0.84073  0.58029  1.0000
  N   N11       1.0  0.80988  0.11640  0.54212  1.0000
  N   N12       1.0  0.19012  0.88360  0.45788  1.0000
  N   N13       1.0  0.77718  0.00417  0.76324  1.0000
  N   N14       1.0  0.22282  0.99583  0.23676  1.0000
  N   N15       1.0  0.69848  0.89646  0.79381  1.0000
  N   N16       1.0  0.30152  0.10354  0.20619  1.0000
  N   N17       1.0  0.55026  0.89244  0.18502  1.0000
  N   N18       1.0  0.44974  0.10757  0.81498  1.0000
