data_image0
_chemical_formula_structural       Cu2H20C12Br4N16Cl4
_chemical_formula_sum              "Cu2 H20 C12 Br4 N16 Cl4"
_cell_length_a       6.89248
_cell_length_b       7.58817
_cell_length_c       13.1737
_cell_angle_alpha    92.3518
_cell_angle_beta     89.9993
_cell_angle_gamma    90.0002

_space_group_name_H-M_alt    "P 1"
_space_group_IT_number       1

loop_
  _space_group_symop_operation_xyz
  'x, y, z'

loop_
  _atom_site_type_symbol
  _atom_site_label
  _atom_site_symmetry_multiplicity
  _atom_site_fract_x
  _atom_site_fract_y
  _atom_site_fract_z
  _atom_site_occupancy
  Cu  Cu1       1.0  1.00000  0.49999  1.00000  1.0000
  Cu  Cu2       1.0  0.49999  0.99999  1.00000  1.0000
  H   H1        1.0  0.55830  0.55108  0.09131  1.0000
  H   H2        1.0  0.05831  0.94893  0.90868  1.0000
  H   H3        1.0  0.44169  0.44893  0.90869  1.0000
  H   H4        1.0  0.94169  0.05106  0.09131  1.0000
  H   H5        1.0  0.34218  0.53653  0.25003  1.0000
  H   H6        1.0  0.84219  0.96347  0.74997  1.0000
  H   H7        1.0  0.65783  0.46348  0.74998  1.0000
  H   H8        1.0  0.15781  0.03652  0.25002  1.0000
  H   H9        1.0  0.47522  0.63845  0.35370  1.0000
  H   H10       1.0  0.97523  0.86156  0.64629  1.0000
  H   H11       1.0  0.52478  0.36156  0.64630  1.0000
  H   H12       1.0  0.02478  0.13844  0.35370  1.0000
  H   H13       1.0  0.55614  0.32777  0.41230  1.0000
  H   H14       1.0  0.05615  0.17223  0.58769  1.0000
  H   H15       1.0  0.44384  0.67224  0.58771  1.0000
  H   H16       1.0  0.94385  0.82777  0.41230  1.0000
  H   H17       1.0  0.38739  0.24213  0.31913  1.0000
  H   H18       1.0  0.88739  0.25788  0.68087  1.0000
  H   H19       1.0  0.61261  0.75788  0.68087  1.0000
  H   H20       1.0  0.11261  0.74212  0.31913  1.0000
  C   C1        1.0  0.66883  0.51713  0.14577  1.0000
  C   C2        1.0  0.16883  0.98287  0.85423  1.0000
  C   C3        1.0  0.33118  0.48288  0.85424  1.0000
  C   C4        1.0  0.83115  0.01712  0.14576  1.0000
  C   C5        1.0  0.46045  0.51890  0.30447  1.0000
  C   C6        1.0  0.96046  0.98110  0.69553  1.0000
  C   C7        1.0  0.53955  0.48111  0.69554  1.0000
  C   C8        1.0  0.03953  0.01889  0.30446  1.0000
  C   C9        1.0  0.42772  0.35746  0.36721  1.0000
  C   C10       1.0  0.92772  0.14255  0.63279  1.0000
  C   C11       1.0  0.57228  0.64256  0.63279  1.0000
  C   C12       1.0  0.07228  0.85745  0.36721  1.0000
  Br  Br1       1.0  0.78738  0.26651  0.92215  1.0000
  Br  Br2       1.0  0.28738  0.23348  0.07786  1.0000
  Br  Br3       1.0  0.21262  0.73348  0.07786  1.0000
  Br  Br4       1.0  0.71263  0.76652  0.92214  1.0000
  N   N1        1.0  0.63880  0.49785  0.24521  1.0000
  N   N2        1.0  0.13880  0.00215  0.75480  1.0000
  N   N3        1.0  0.36121  0.50216  0.75480  1.0000
  N   N4        1.0  0.86122  0.99784  0.24521  1.0000
  N   N5        1.0  0.81027  0.45844  0.29000  1.0000
  N   N6        1.0  0.31027  0.04156  0.71000  1.0000
  N   N7        1.0  0.18974  0.54156  0.71000  1.0000
  N   N8        1.0  0.68973  0.95843  0.29000  1.0000
  N   N9        1.0  0.94104  0.45463  0.21934  1.0000
  N   N10       1.0  0.44105  0.04536  0.78066  1.0000
  N   N11       1.0  0.05896  0.54536  0.78067  1.0000
  N   N12       1.0  0.55895  0.95463  0.21933  1.0000
  N   N13       1.0  0.85697  0.49093  0.12891  1.0000
  N   N14       1.0  0.35697  0.00907  0.87109  1.0000
  N   N15       1.0  0.14303  0.50906  0.87109  1.0000
  N   N16       1.0  0.64303  0.99092  0.12892  1.0000
  Cl  Cl1       1.0  0.23439  0.40379  0.45451  1.0000
  Cl  Cl2       1.0  0.73439  0.09621  0.54549  1.0000
  Cl  Cl3       1.0  0.76559  0.59621  0.54548  1.0000
  Cl  Cl4       1.0  0.26560  0.90379  0.45451  1.0000
