data_image0
_chemical_formula_structural       Ni2H16C24N8O4
_chemical_formula_sum              "Ni2 H16 C24 N8 O4"
_cell_length_a       4.84752
_cell_length_b       10.7835
_cell_length_c       10.8399
_cell_angle_alpha    89.9999
_cell_angle_beta     93.9843
_cell_angle_gamma    89.9999

_space_group_name_H-M_alt    "P 1"
_space_group_IT_number       1

loop_
  _space_group_symop_operation_xyz
  'x, y, z'

loop_
  _atom_site_type_symbol
  _atom_site_label
  _atom_site_symmetry_multiplicity
  _atom_site_fract_x
  _atom_site_fract_y
  _atom_site_fract_z
  _atom_site_occupancy
  Ni  Ni1       1.0  1.00000  0.50000  1.00000  1.0000
  Ni  Ni2       1.0  0.00000  0.00000  0.50000  1.0000
  H   H1        1.0  0.49500  0.88051  0.07377  1.0000
  H   H2        1.0  0.50499  0.38051  0.42623  1.0000
  H   H3        1.0  0.50500  0.11949  0.92623  1.0000
  H   H4        1.0  0.49501  0.61949  0.57377  1.0000
  H   H5        1.0  0.74596  0.02209  0.22625  1.0000
  H   H6        1.0  0.25404  0.52209  0.27375  1.0000
  H   H7        1.0  0.25404  0.97791  0.77375  1.0000
  H   H8        1.0  0.74596  0.47791  0.72625  1.0000
  H   H9        1.0  0.03303  0.72908  0.44383  1.0000
  H   H10       1.0  0.96697  0.22908  0.05617  1.0000
  H   H11       1.0  0.96697  0.27092  0.55617  1.0000
  H   H12       1.0  0.03303  0.77092  0.94383  1.0000
  H   H13       1.0  0.80724  0.57336  0.29574  1.0000
  H   H14       1.0  0.19276  0.07336  0.20426  1.0000
  H   H15       1.0  0.19276  0.42664  0.70426  1.0000
  H   H16       1.0  0.80724  0.92665  0.79574  1.0000
  C   C1        1.0  0.46741  0.62786  0.09112  1.0000
  C   C2        1.0  0.53258  0.12786  0.40887  1.0000
  C   C3        1.0  0.53259  0.37214  0.90888  1.0000
  C   C4        1.0  0.46741  0.87214  0.59112  1.0000
  C   C5        1.0  0.61645  0.84289  0.15361  1.0000
  C   C6        1.0  0.38354  0.34288  0.34639  1.0000
  C   C7        1.0  0.38355  0.15712  0.84639  1.0000
  C   C8        1.0  0.61646  0.65711  0.65361  1.0000
  C   C9        1.0  0.63295  0.71479  0.17269  1.0000
  C   C10       1.0  0.36705  0.21479  0.32731  1.0000
  C   C11       1.0  0.36705  0.28521  0.82731  1.0000
  C   C12       1.0  0.63295  0.78521  0.67269  1.0000
  C   C13       1.0  0.75459  0.92185  0.23835  1.0000
  C   C14       1.0  0.24540  0.42185  0.26165  1.0000
  C   C15       1.0  0.24541  0.07815  0.76165  1.0000
  C   C16       1.0  0.75460  0.57815  0.73836  1.0000
  C   C17       1.0  0.91668  0.75774  0.35893  1.0000
  C   C18       1.0  0.08331  0.25774  0.14107  1.0000
  C   C19       1.0  0.08332  0.24226  0.64107  1.0000
  C   C20       1.0  0.91669  0.74226  0.85893  1.0000
  C   C21       1.0  0.78910  0.67245  0.27749  1.0000
  C   C22       1.0  0.21089  0.17245  0.22250  1.0000
  C   C23       1.0  0.21090  0.32755  0.72251  1.0000
  C   C24       1.0  0.78910  0.82755  0.77749  1.0000
  N   N1        1.0  0.59354  0.53713  0.03566  1.0000
  N   N2        1.0  0.40646  0.03713  0.46434  1.0000
  N   N3        1.0  0.40646  0.46287  0.96434  1.0000
  N   N4        1.0  0.59354  0.96287  0.53566  1.0000
  N   N5        1.0  0.90028  0.88115  0.34083  1.0000
  N   N6        1.0  0.09971  0.38115  0.15917  1.0000
  N   N7        1.0  0.09971  0.11885  0.65917  1.0000
  N   N8        1.0  0.90029  0.61885  0.84083  1.0000
  O   O1        1.0  0.20329  0.64568  0.08533  1.0000
  O   O2        1.0  0.79671  0.14568  0.41467  1.0000
  O   O3        1.0  0.79671  0.35432  0.91467  1.0000
  O   O4        1.0  0.20329  0.85432  0.58533  1.0000
