data_image0
_chemical_formula_structural       Cd2H16C24N8O4
_chemical_formula_sum              "Cd2 H16 C24 N8 O4"
_cell_length_a       5.32517
_cell_length_b       10.5687
_cell_length_c       10.8722
_cell_angle_alpha    89.998
_cell_angle_beta     90.7601
_cell_angle_gamma    90.0025

_space_group_name_H-M_alt    "P 1"
_space_group_IT_number       1

loop_
  _space_group_symop_operation_xyz
  'x, y, z'

loop_
  _atom_site_type_symbol
  _atom_site_label
  _atom_site_symmetry_multiplicity
  _atom_site_fract_x
  _atom_site_fract_y
  _atom_site_fract_z
  _atom_site_occupancy
  Cd  Cd1       1.0  0.50001  0.50000  1.00000  1.0000
  Cd  Cd2       1.0  0.49998  1.00000  0.50001  1.0000
  H   H1        1.0  0.34701  0.40657  0.22979  1.0000
  H   H2        1.0  0.65295  0.90657  0.27021  1.0000
  H   H3        1.0  0.65298  0.59343  0.77022  1.0000
  H   H4        1.0  0.34701  0.09342  0.72978  1.0000
  H   H5        1.0  0.57478  0.25056  0.36396  1.0000
  H   H6        1.0  0.42524  0.75057  0.13601  1.0000
  H   H7        1.0  0.42523  0.74944  0.63604  1.0000
  H   H8        1.0  0.57472  0.24941  0.86398  1.0000
  H   H9        1.0  0.17107  0.95074  0.21681  1.0000
  H   H10       1.0  0.82886  0.45077  0.28319  1.0000
  H   H11       1.0  0.82893  0.04926  0.78321  1.0000
  H   H12       1.0  0.17115  0.54922  0.71681  1.0000
  H   H13       1.0  0.91988  0.09479  0.07968  1.0000
  H   H14       1.0  0.08004  0.59480  0.42032  1.0000
  H   H15       1.0  0.08011  0.90521  0.92033  1.0000
  H   H16       1.0  0.91996  0.40522  0.57969  1.0000
  C   C1        1.0  0.96369  0.35126  0.06597  1.0000
  C   C2        1.0  0.03628  0.85125  0.43403  1.0000
  C   C3        1.0  0.03633  0.64873  0.93403  1.0000
  C   C4        1.0  0.96368  0.14875  0.56597  1.0000
  C   C5        1.0  0.11829  0.26245  0.14152  1.0000
  C   C6        1.0  0.88169  0.76245  0.35846  1.0000
  C   C7        1.0  0.88172  0.73755  0.85849  1.0000
  C   C8        1.0  0.11832  0.23756  0.64154  1.0000
  C   C9        1.0  0.30485  0.30600  0.22294  1.0000
  C   C10       1.0  0.69516  0.80601  0.27703  1.0000
  C   C11       1.0  0.69517  0.69400  0.77706  1.0000
  C   C12       1.0  0.30482  0.19398  0.72296  1.0000
  C   C13       1.0  0.43201  0.21989  0.29744  1.0000
  C   C14       1.0  0.56796  0.71990  0.20254  1.0000
  C   C15       1.0  0.56799  0.78012  0.70257  1.0000
  C   C16       1.0  0.43203  0.28009  0.79744  1.0000
  C   C17       1.0  0.20600  0.05256  0.21659  1.0000
  C   C18       1.0  0.79400  0.55258  0.28337  1.0000
  C   C19       1.0  0.79403  0.94744  0.78341  1.0000
  C   C20       1.0  0.20601  0.44742  0.71661  1.0000
  C   C21       1.0  0.06807  0.13220  0.13947  1.0000
  C   C22       1.0  0.93187  0.63220  0.36053  1.0000
  C   C23       1.0  0.93192  0.86781  0.86054  1.0000
  C   C24       1.0  0.06814  0.36782  0.63946  1.0000
  N   N1        1.0  0.07603  0.45856  0.03220  1.0000
  N   N2        1.0  0.92398  0.95856  0.46780  1.0000
  N   N3        1.0  0.92399  0.54143  0.96781  1.0000
  N   N4        1.0  0.07602  0.04144  0.53219  1.0000
  N   N5        1.0  0.38453  0.09483  0.29546  1.0000
  N   N6        1.0  0.61545  0.59486  0.20453  1.0000
  N   N7        1.0  0.61547  0.90517  0.70455  1.0000
  N   N8        1.0  0.38453  0.40512  0.79545  1.0000
  O   O1        1.0  0.73406  0.32034  0.04468  1.0000
  O   O2        1.0  0.26589  0.82033  0.45534  1.0000
  O   O3        1.0  0.26596  0.67967  0.95532  1.0000
  O   O4        1.0  0.73408  0.17967  0.54466  1.0000
