data_image0
_chemical_formula_structural       Cu2H20C12N16Cl8
_chemical_formula_sum              "Cu2 H20 C12 N16 Cl8"
_cell_length_a       6.66964
_cell_length_b       7.34103
_cell_length_c       13.8686
_cell_angle_alpha    98.8828
_cell_angle_beta     90.0006
_cell_angle_gamma    89.9986

_space_group_name_H-M_alt    "P 1"
_space_group_IT_number       1

loop_
  _space_group_symop_operation_xyz
  'x, y, z'

loop_
  _atom_site_type_symbol
  _atom_site_label
  _atom_site_symmetry_multiplicity
  _atom_site_fract_x
  _atom_site_fract_y
  _atom_site_fract_z
  _atom_site_occupancy
  Cu  Cu1       1.0  1.00000  1.00000  1.00000  1.0000
  Cu  Cu2       1.0  0.50000  0.50000  1.00000  1.0000
  H   H1        1.0  0.53801  0.97706  0.08575  1.0000
  H   H2        1.0  0.03800  0.52294  0.91425  1.0000
  H   H3        1.0  0.46198  0.02294  0.91425  1.0000
  H   H4        1.0  0.96200  0.47705  0.08575  1.0000
  H   H5        1.0  0.30530  0.07648  0.23200  1.0000
  H   H6        1.0  0.80531  0.42353  0.76800  1.0000
  H   H7        1.0  0.69469  0.92354  0.76800  1.0000
  H   H8        1.0  0.19470  0.57645  0.23200  1.0000
  H   H9        1.0  0.39241  0.28947  0.29771  1.0000
  H   H10       1.0  0.89240  0.21053  0.70230  1.0000
  H   H11       1.0  0.60760  0.71055  0.70229  1.0000
  H   H12       1.0  0.10760  0.78946  0.29770  1.0000
  H   H13       1.0  0.54656  0.12622  0.42547  1.0000
  H   H14       1.0  0.04655  0.37377  0.57454  1.0000
  H   H15       1.0  0.45344  0.87379  0.57454  1.0000
  H   H16       1.0  0.95344  0.62623  0.42546  1.0000
  H   H17       1.0  0.46495  0.90905  0.36101  1.0000
  H   H18       1.0  0.96494  0.59094  0.63899  1.0000
  H   H19       1.0  0.53506  0.09096  0.63899  1.0000
  H   H20       1.0  0.03506  0.40905  0.36101  1.0000
  C   C1        1.0  0.65010  0.03962  0.13729  1.0000
  C   C2        1.0  0.15009  0.46038  0.86271  1.0000
  C   C3        1.0  0.34991  0.96038  0.86271  1.0000
  C   C4        1.0  0.84992  0.53962  0.13728  1.0000
  C   C5        1.0  0.42171  0.14075  0.28178  1.0000
  C   C6        1.0  0.92169  0.35926  0.71823  1.0000
  C   C7        1.0  0.57829  0.85926  0.71822  1.0000
  C   C8        1.0  0.07831  0.64072  0.28177  1.0000
  C   C9        1.0  0.43325  0.05713  0.37558  1.0000
  C   C10       1.0  0.93324  0.44286  0.62441  1.0000
  C   C11       1.0  0.56676  0.94289  0.62442  1.0000
  C   C12       1.0  0.06675  0.55714  0.37558  1.0000
  N   N1        1.0  0.61256  0.11520  0.22981  1.0000
  N   N2        1.0  0.11258  0.38480  0.77020  1.0000
  N   N3        1.0  0.38742  0.88481  0.77020  1.0000
  N   N4        1.0  0.88743  0.61518  0.22980  1.0000
  N   N5        1.0  0.78731  0.17629  0.27341  1.0000
  N   N6        1.0  0.28732  0.32372  0.72660  1.0000
  N   N7        1.0  0.21268  0.82372  0.72659  1.0000
  N   N8        1.0  0.71269  0.67627  0.27340  1.0000
  N   N9        1.0  0.92788  0.13771  0.20887  1.0000
  N   N10       1.0  0.42786  0.36229  0.79112  1.0000
  N   N11       1.0  0.07212  0.86229  0.79113  1.0000
  N   N12       1.0  0.57214  0.63771  0.20887  1.0000
  N   N13       1.0  0.84645  0.05349  0.12359  1.0000
  N   N14       1.0  0.34647  0.44652  0.87641  1.0000
  N   N15       1.0  0.15352  0.94652  0.87641  1.0000
  N   N16       1.0  0.65355  0.55348  0.12359  1.0000
  Cl  Cl1       1.0  0.21096  0.80574  0.06810  1.0000
  Cl  Cl2       1.0  0.71095  0.69426  0.93190  1.0000
  Cl  Cl3       1.0  0.78904  0.19426  0.93190  1.0000
  Cl  Cl4       1.0  0.28905  0.30574  0.06810  1.0000
  Cl  Cl5       1.0  0.19634  0.08548  0.43657  1.0000
  Cl  Cl6       1.0  0.69633  0.41452  0.56344  1.0000
  Cl  Cl7       1.0  0.80367  0.91452  0.56344  1.0000
  Cl  Cl8       1.0  0.30366  0.58548  0.43657  1.0000
