data_image0
_chemical_formula_structural       Co2H16C24N8O4
_chemical_formula_sum              "Co2 H16 C24 N8 O4"
_cell_length_a       4.58332
_cell_length_b       10.8525
_cell_length_c       11.0915
_cell_angle_alpha    89.9992
_cell_angle_beta     92.4342
_cell_angle_gamma    90.0013

_space_group_name_H-M_alt    "P 1"
_space_group_IT_number       1

loop_
  _space_group_symop_operation_xyz
  'x, y, z'

loop_
  _atom_site_type_symbol
  _atom_site_label
  _atom_site_symmetry_multiplicity
  _atom_site_fract_x
  _atom_site_fract_y
  _atom_site_fract_z
  _atom_site_occupancy
  Co  Co1       1.0  0.50000  0.50000  0.50000  1.0000
  Co  Co2       1.0  0.50000  0.00000  1.00000  1.0000
  H   H1        1.0  0.03548  0.11704  0.42417  1.0000
  H   H2        1.0  0.96450  0.61704  0.07583  1.0000
  H   H3        1.0  0.96452  0.88296  0.57583  1.0000
  H   H4        1.0  0.03550  0.38296  0.92417  1.0000
  H   H5        1.0  0.77101  0.97791  0.27735  1.0000
  H   H6        1.0  0.22899  0.47791  0.22265  1.0000
  H   H7        1.0  0.22899  0.02209  0.72265  1.0000
  H   H8        1.0  0.77101  0.52209  0.77735  1.0000
  H   H9        1.0  0.45909  0.27061  0.07226  1.0000
  H   H10       1.0  0.54092  0.77060  0.42774  1.0000
  H   H11       1.0  0.54091  0.72939  0.92774  1.0000
  H   H12       1.0  0.45908  0.22939  0.57226  1.0000
  H   H13       1.0  0.69407  0.42387  0.21605  1.0000
  H   H14       1.0  0.30592  0.92387  0.28395  1.0000
  H   H15       1.0  0.30593  0.57613  0.78395  1.0000
  H   H16       1.0  0.69409  0.07613  0.71605  1.0000
  C   C1        1.0  0.03639  0.37125  0.41406  1.0000
  C   C2        1.0  0.96360  0.87125  0.08595  1.0000
  C   C3        1.0  0.96361  0.62875  0.58594  1.0000
  C   C4        1.0  0.03640  0.12875  0.91405  1.0000
  C   C5        1.0  0.90558  0.15545  0.34861  1.0000
  C   C6        1.0  0.09441  0.65545  0.15140  1.0000
  C   C7        1.0  0.09442  0.84455  0.65139  1.0000
  C   C8        1.0  0.90559  0.34455  0.84861  1.0000
  C   C9        1.0  0.87979  0.28296  0.33309  1.0000
  C   C10       1.0  0.12020  0.78296  0.16692  1.0000
  C   C11       1.0  0.12020  0.71704  0.66691  1.0000
  C   C12       1.0  0.87980  0.21704  0.83308  1.0000
  C   C13       1.0  0.75941  0.07768  0.26651  1.0000
  C   C14       1.0  0.24059  0.57768  0.23349  1.0000
  C   C15       1.0  0.24059  0.92232  0.73349  1.0000
  C   C16       1.0  0.75941  0.42232  0.76652  1.0000
  C   C17       1.0  0.58304  0.24106  0.15331  1.0000
  C   C18       1.0  0.41696  0.74106  0.34669  1.0000
  C   C19       1.0  0.41696  0.75894  0.84669  1.0000
  C   C20       1.0  0.58304  0.25894  0.65331  1.0000
  C   C21       1.0  0.71628  0.32538  0.23202  1.0000
  C   C22       1.0  0.28372  0.82537  0.26799  1.0000
  C   C23       1.0  0.28372  0.67462  0.76798  1.0000
  C   C24       1.0  0.71629  0.17463  0.73201  1.0000
  N   N1        1.0  0.59921  0.11831  0.17004  1.0000
  N   N2        1.0  0.40079  0.61831  0.32996  1.0000
  N   N3        1.0  0.40079  0.88169  0.82996  1.0000
  N   N4        1.0  0.59921  0.38169  0.67004  1.0000
  N   N5        1.0  0.89861  0.46183  0.46738  1.0000
  N   N6        1.0  0.10139  0.96183  0.03262  1.0000
  N   N7        1.0  0.10139  0.53817  0.53262  1.0000
  N   N8        1.0  0.89862  0.03817  0.96738  1.0000
  O   O1        1.0  0.31923  0.35994  0.42344  1.0000
  O   O2        1.0  0.68076  0.85994  0.07656  1.0000
  O   O3        1.0  0.68076  0.64006  0.57656  1.0000
  O   O4        1.0  0.31924  0.14006  0.92344  1.0000
