data_image0
_chemical_formula_structural       Ni2H24C16O12
_chemical_formula_sum              "Ni2 H24 C16 O12"
_cell_length_a       7.01035
_cell_length_b       8.28362
_cell_length_c       10.4794
_cell_angle_alpha    109.612
_cell_angle_beta     109.508
_cell_angle_gamma    90.0173

_space_group_name_H-M_alt    "P 1"
_space_group_IT_number       1

loop_
  _space_group_symop_operation_xyz
  'x, y, z'

loop_
  _atom_site_type_symbol
  _atom_site_label
  _atom_site_symmetry_multiplicity
  _atom_site_fract_x
  _atom_site_fract_y
  _atom_site_fract_z
  _atom_site_occupancy
  Ni  Ni1       1.0  0.50000  0.00000  0.50000  1.0000
  Ni  Ni2       1.0  0.00000  0.50000  0.50000  1.0000
  H   H1        1.0  0.26612  0.98903  0.20177  1.0000
  H   H2        1.0  0.06416  0.51100  0.79802  1.0000
  H   H3        1.0  0.73388  0.01097  0.79823  1.0000
  H   H4        1.0  0.93583  0.48901  0.20199  1.0000
  H   H5        1.0  0.88059  0.14289  0.06834  1.0000
  H   H6        1.0  0.81192  0.35732  0.93180  1.0000
  H   H7        1.0  0.11941  0.85711  0.93165  1.0000
  H   H8        1.0  0.18807  0.64267  0.06820  1.0000
  H   H9        1.0  0.70446  0.15031  0.41705  1.0000
  H   H10       1.0  0.28732  0.34966  0.58278  1.0000
  H   H11       1.0  0.29554  0.84969  0.58294  1.0000
  H   H12       1.0  0.71269  0.65033  0.41722  1.0000
  H   H13       1.0  0.87215  0.90935  0.35488  1.0000
  H   H14       1.0  0.51703  0.59051  0.64482  1.0000
  H   H15       1.0  0.12785  0.09065  0.64512  1.0000
  H   H16       1.0  0.48298  0.40949  0.35518  1.0000
  H   H17       1.0  0.73799  0.94884  0.19168  1.0000
  H   H18       1.0  0.54607  0.55119  0.80810  1.0000
  H   H19       1.0  0.26201  0.05117  0.80832  1.0000
  H   H20       1.0  0.45394  0.44882  0.19190  1.0000
  H   H21       1.0  0.63166  0.78624  0.23532  1.0000
  H   H22       1.0  0.39627  0.71376  0.76448  1.0000
  H   H23       1.0  0.36834  0.21376  0.76468  1.0000
  H   H24       1.0  0.60372  0.28624  0.23552  1.0000
  C   C1        1.0  0.14662  0.19226  0.33714  1.0000
  C   C2        1.0  0.80899  0.30786  0.66280  1.0000
  C   C3        1.0  0.85339  0.80774  0.66286  1.0000
  C   C4        1.0  0.19101  0.69214  0.33720  1.0000
  C   C5        1.0  0.14420  0.07065  0.19650  1.0000
  C   C6        1.0  0.94739  0.42940  0.80338  1.0000
  C   C7        1.0  0.85579  0.92933  0.80350  1.0000
  C   C8        1.0  0.05260  0.57060  0.19663  1.0000
  C   C9        1.0  0.00123  0.05920  0.06852  1.0000
  C   C10       1.0  0.93253  0.44087  0.93148  1.0000
  C   C11       1.0  0.99877  0.94080  0.93148  1.0000
  C   C12       1.0  0.06747  0.55912  0.06853  1.0000
  C   C13       1.0  0.72058  0.91402  0.28006  1.0000
  C   C14       1.0  0.44030  0.58592  0.71973  1.0000
  C   C15       1.0  0.27942  0.08598  0.71994  1.0000
  C   C16       1.0  0.55970  0.41408  0.28027  1.0000
  O   O1        1.0  0.28107  0.18651  0.45354  1.0000
  O   O2        1.0  0.82672  0.31386  0.54632  1.0000
  O   O3        1.0  0.71893  0.81349  0.54646  1.0000
  O   O4        1.0  0.17329  0.68614  0.45368  1.0000
  O   O5        1.0  0.01553  0.29991  0.33665  1.0000
  O   O6        1.0  0.67873  0.19995  0.66342  1.0000
  O   O7        1.0  0.98447  0.70009  0.66335  1.0000
  O   O8        1.0  0.32126  0.80005  0.33658  1.0000
  O   O9        1.0  0.61184  0.03672  0.35228  1.0000
  O   O10       1.0  0.25941  0.46317  0.64770  1.0000
  O   O11       1.0  0.38817  0.96329  0.64772  1.0000
  O   O12       1.0  0.74060  0.53683  0.35230  1.0000
