data_image0
_chemical_formula_structural       Co2H24C16O12
_chemical_formula_sum              "Co2 H24 C16 O12"
_cell_length_a       7.11202
_cell_length_b       8.11786
_cell_length_c       10.4548
_cell_angle_alpha    108.405
_cell_angle_beta     109.889
_cell_angle_gamma    89.9967

_space_group_name_H-M_alt    "P 1"
_space_group_IT_number       1

loop_
  _space_group_symop_operation_xyz
  'x, y, z'

loop_
  _atom_site_type_symbol
  _atom_site_label
  _atom_site_symmetry_multiplicity
  _atom_site_fract_x
  _atom_site_fract_y
  _atom_site_fract_z
  _atom_site_occupancy
  Co  Co1       1.0  0.50000  1.00000  0.50000  1.0000
  Co  Co2       1.0  0.00000  0.50000  0.50000  1.0000
  H   H1        1.0  0.26750  0.97970  0.19787  1.0000
  H   H2        1.0  0.06858  0.52126  0.80198  1.0000
  H   H3        1.0  0.73251  0.02030  0.80214  1.0000
  H   H4        1.0  0.93142  0.47874  0.19802  1.0000
  H   H5        1.0  0.88484  0.14218  0.07214  1.0000
  H   H6        1.0  0.81324  0.35694  0.92761  1.0000
  H   H7        1.0  0.11516  0.85782  0.92786  1.0000
  H   H8        1.0  0.18675  0.64307  0.07239  1.0000
  H   H9        1.0  0.71856  0.14956  0.41708  1.0000
  H   H10       1.0  0.30149  0.35018  0.58214  1.0000
  H   H11       1.0  0.28144  0.85044  0.58292  1.0000
  H   H12       1.0  0.69850  0.64982  0.41786  1.0000
  H   H13       1.0  0.73522  0.95097  0.18843  1.0000
  H   H14       1.0  0.54590  0.54804  0.81119  1.0000
  H   H15       1.0  0.26478  0.04903  0.81157  1.0000
  H   H16       1.0  0.45410  0.45196  0.18880  1.0000
  H   H17       1.0  0.86337  0.88727  0.34252  1.0000
  H   H18       1.0  0.52105  0.61255  0.65769  1.0000
  H   H19       1.0  0.13663  0.11273  0.65749  1.0000
  H   H20       1.0  0.47894  0.38745  0.34231  1.0000
  H   H21       1.0  0.61544  0.78590  0.22507  1.0000
  H   H22       1.0  0.38980  0.71364  0.77443  1.0000
  H   H23       1.0  0.38456  0.21410  0.77494  1.0000
  H   H24       1.0  0.61020  0.28636  0.22556  1.0000
  C   C1        1.0  0.15168  0.18242  0.33585  1.0000
  C   C2        1.0  0.81632  0.31724  0.66409  1.0000
  C   C3        1.0  0.84833  0.81759  0.66415  1.0000
  C   C4        1.0  0.18368  0.68276  0.33591  1.0000
  C   C5        1.0  0.14751  0.06315  0.19540  1.0000
  C   C6        1.0  0.95189  0.43706  0.80455  1.0000
  C   C7        1.0  0.85250  0.93685  0.80460  1.0000
  C   C8        1.0  0.04811  0.56294  0.19545  1.0000
  C   C9        1.0  0.00323  0.05674  0.06913  1.0000
  C   C10       1.0  0.93424  0.44307  0.93085  1.0000
  C   C11       1.0  0.99677  0.94326  0.93087  1.0000
  C   C12       1.0  0.06576  0.55693  0.06914  1.0000
  C   C13       1.0  0.71627  0.90900  0.27401  1.0000
  C   C14       1.0  0.44193  0.59059  0.72578  1.0000
  C   C15       1.0  0.28373  0.09100  0.72600  1.0000
  C   C16       1.0  0.55807  0.40941  0.27422  1.0000
  O   O1        1.0  0.29253  0.17950  0.45213  1.0000
  O   O2        1.0  0.84104  0.32009  0.54784  1.0000
  O   O3        1.0  0.70747  0.82050  0.54787  1.0000
  O   O4        1.0  0.15895  0.67991  0.45215  1.0000
  O   O5        1.0  0.01840  0.28717  0.33778  1.0000
  O   O6        1.0  0.68117  0.21227  0.66202  1.0000
  O   O7        1.0  0.98160  0.71283  0.66222  1.0000
  O   O8        1.0  0.31883  0.78773  0.33798  1.0000
  O   O9        1.0  0.62487  0.03652  0.35643  1.0000
  O   O10       1.0  0.26822  0.46321  0.64275  1.0000
  O   O11       1.0  0.37513  0.96348  0.64357  1.0000
  O   O12       1.0  0.73177  0.53679  0.35725  1.0000
