data_image0
_chemical_formula_structural       Mn4H18C18N2O24
_chemical_formula_sum              "Mn4 H18 C18 N2 O24"
_cell_length_a       6.55055
_cell_length_b       8.83453
_cell_length_c       11.1509
_cell_angle_alpha    91.863
_cell_angle_beta     106.22
_cell_angle_gamma    92.3069

_space_group_name_H-M_alt    "P 1"
_space_group_IT_number       1

loop_
  _space_group_symop_operation_xyz
  'x, y, z'

loop_
  _atom_site_type_symbol
  _atom_site_label
  _atom_site_symmetry_multiplicity
  _atom_site_fract_x
  _atom_site_fract_y
  _atom_site_fract_z
  _atom_site_occupancy
  Mn  Mn1       1.0  0.63244  0.27341  0.16678  1.0000
  Mn  Mn2       1.0  0.36756  0.72658  0.83322  1.0000
  Mn  Mn3       1.0  0.19585  0.78583  0.27305  1.0000
  Mn  Mn4       1.0  0.80415  0.21417  0.72695  1.0000
  H   H1        1.0  0.77000  0.97935  0.14488  1.0000
  H   H2        1.0  0.23000  0.02065  0.85512  1.0000
  H   H3        1.0  0.75311  0.04946  0.01167  1.0000
  H   H4        1.0  0.24689  0.95055  0.98833  1.0000
  H   H5        1.0  0.74565  0.35979  0.97103  1.0000
  H   H6        1.0  0.25435  0.64021  0.02897  1.0000
  H   H7        1.0  0.51621  0.29563  0.90711  1.0000
  H   H8        1.0  0.48379  0.70437  0.09289  1.0000
  H   H9        1.0  0.65457  0.36636  0.39884  1.0000
  H   H10       1.0  0.34542  0.63364  0.60117  1.0000
  H   H11       1.0  0.49000  0.47838  0.31805  1.0000
  H   H12       1.0  0.51000  0.52161  0.68195  1.0000
  H   H13       1.0  0.91574  0.71302  0.01932  1.0000
  H   H14       1.0  0.08426  0.28698  0.98068  1.0000
  H   H15       1.0  0.96758  0.57103  0.10664  1.0000
  H   H16       1.0  0.03242  0.42898  0.89336  1.0000
  H   H17       1.0  0.82201  0.59473  0.47843  1.0000
  H   H18       1.0  0.17799  0.40528  0.52157  1.0000
  C   C1        1.0  0.72026  0.11644  0.44185  1.0000
  C   C2        1.0  0.27974  0.88356  0.55815  1.0000
  C   C3        1.0  0.75193  0.97021  0.50826  1.0000
  C   C4        1.0  0.24807  0.02979  0.49174  1.0000
  C   C5        1.0  0.76082  0.82990  0.44808  1.0000
  C   C6        1.0  0.23918  0.17010  0.55192  1.0000
  C   C7        1.0  0.80733  0.70436  0.52202  1.0000
  C   C8        1.0  0.19267  0.29564  0.47798  1.0000
  C   C9        1.0  0.82849  0.71837  0.64996  1.0000
  C   C10       1.0  0.17150  0.28163  0.35004  1.0000
  C   C11       1.0  0.79759  0.86064  0.70056  1.0000
  C   C12       1.0  0.20240  0.13936  0.29944  1.0000
  C   C13       1.0  0.77599  0.88954  0.82995  1.0000
  C   C14       1.0  0.22401  0.11046  0.17006  1.0000
  C   C15       1.0  0.88687  0.58132  0.72604  1.0000
  C   C16       1.0  0.11313  0.41868  0.27396  1.0000
  C   C17       1.0  0.71081  0.80814  0.30844  1.0000
  C   C18       1.0  0.28919  0.19186  0.69156  1.0000
  N   N1        1.0  0.76839  0.98240  0.63068  1.0000
  N   N2        1.0  0.23161  0.01759  0.36932  1.0000
  O   O1        1.0  0.69817  0.10966  0.32554  1.0000
  O   O2        1.0  0.30184  0.89034  0.67447  1.0000
  O   O3        1.0  0.71903  0.23647  0.50878  1.0000
  O   O4        1.0  0.28097  0.76353  0.49123  1.0000
  O   O5        1.0  0.80615  0.02538  0.87303  1.0000
  O   O6        1.0  0.19385  0.97462  0.12697  1.0000
  O   O7        1.0  0.71638  0.77716  0.88422  1.0000
  O   O8        1.0  0.28362  0.22284  0.11578  1.0000
  O   O9        1.0  0.06187  0.58728  0.81152  1.0000
  O   O10       1.0  0.93812  0.41272  0.18848  1.0000
  O   O11       1.0  0.75982  0.46449  0.69538  1.0000
  O   O12       1.0  0.24018  0.53551  0.30462  1.0000
  O   O13       1.0  0.85862  0.81290  0.25561  1.0000
  O   O14       1.0  0.14138  0.18710  0.74439  1.0000
  O   O15       1.0  0.51673  0.77791  0.24969  1.0000
  O   O16       1.0  0.48327  0.22209  0.75031  1.0000
  O   O17       1.0  0.73200  0.06951  0.09600  1.0000
  O   O18       1.0  0.26800  0.93049  0.90400  1.0000
  O   O19       1.0  0.60148  0.35158  0.98450  1.0000
  O   O20       1.0  0.39852  0.64841  0.01550  1.0000
  O   O21       1.0  0.62479  0.42773  0.32213  1.0000
  O   O22       1.0  0.37521  0.57227  0.67787  1.0000
  O   O23       1.0  0.03136  0.66479  0.08092  1.0000
  O   O24       1.0  0.96864  0.33521  0.91908  1.0000
