data_image0
_chemical_formula_structural       NiH8C10S2N10
_chemical_formula_sum              "Ni1 H8 C10 S2 N10"
_cell_length_a       3.74913
_cell_length_b       9.62702
_cell_length_c       11.9292
_cell_angle_alpha    120.253
_cell_angle_beta     81.7983
_cell_angle_gamma    102.103

_space_group_name_H-M_alt    "P 1"
_space_group_IT_number       1

loop_
  _space_group_symop_operation_xyz
  'x, y, z'

loop_
  _atom_site_type_symbol
  _atom_site_label
  _atom_site_symmetry_multiplicity
  _atom_site_fract_x
  _atom_site_fract_y
  _atom_site_fract_z
  _atom_site_occupancy
  Ni  Ni1       1.0  0.00001  0.50000  0.50000  1.0000
  H   H1        1.0  0.05907  0.21708  0.81655  1.0000
  H   H2        1.0  0.94090  0.78293  0.18345  1.0000
  H   H3        1.0  0.38782  0.39360  0.89042  1.0000
  H   H4        1.0  0.61216  0.60641  0.10958  1.0000
  H   H5        1.0  0.42826  0.12497  0.36458  1.0000
  H   H6        1.0  0.57174  0.87504  0.63543  1.0000
  H   H7        1.0  0.38842  0.98595  0.11278  1.0000
  H   H8        1.0  0.61157  0.01405  0.88723  1.0000
  C   C1        1.0  0.11424  0.30313  0.00874  1.0000
  C   C2        1.0  0.88575  0.69686  0.99126  1.0000
  C   C3        1.0  0.79347  0.19236  0.12812  1.0000
  C   C4        1.0  0.20654  0.80764  0.87188  1.0000
  C   C5        1.0  0.94727  0.32481  0.23839  1.0000
  C   C6        1.0  0.05275  0.67518  0.76161  1.0000
  C   C7        1.0  0.18433  0.45317  0.23250  1.0000
  C   C8        1.0  0.81568  0.54682  0.76750  1.0000
  C   C9        1.0  0.58682  0.17283  0.30448  1.0000
  C   C10       1.0  0.41318  0.82718  0.69553  1.0000
  S   S1        1.0  0.31620  0.61300  0.38179  1.0000
  S   S2        1.0  0.68382  0.38699  0.61820  1.0000
  N   N1        1.0  0.27277  0.43924  0.11452  1.0000
  N   N2        1.0  0.72723  0.56076  0.88547  1.0000
  N   N3        1.0  0.21970  0.29415  0.89238  1.0000
  N   N4        1.0  0.78027  0.70586  0.10762  1.0000
  N   N5        1.0  0.86837  0.17639  0.00885  1.0000
  N   N6        1.0  0.13162  0.82361  0.99115  1.0000
  N   N7        1.0  0.81889  0.31350  0.34754  1.0000
  N   N8        1.0  0.18113  0.68650  0.65246  1.0000
  N   N9        1.0  0.56466  0.09527  0.17177  1.0000
  N   N10       1.0  0.43535  0.90473  0.82823  1.0000
