data_image0
_chemical_formula_structural       Zn4H40C60N4O16
_chemical_formula_sum              "Zn4 H40 C60 N4 O16"
_cell_length_a       9.23569
_cell_length_b       10.6654
_cell_length_c       15.1063
_cell_angle_alpha    89.9998
_cell_angle_beta     89.9996
_cell_angle_gamma    106.267

_space_group_name_H-M_alt    "P 1"
_space_group_IT_number       1

loop_
  _space_group_symop_operation_xyz
  'x, y, z'

loop_
  _atom_site_type_symbol
  _atom_site_label
  _atom_site_symmetry_multiplicity
  _atom_site_fract_x
  _atom_site_fract_y
  _atom_site_fract_z
  _atom_site_occupancy
  Zn  Zn1       1.0  0.63789  0.61302  0.00377  1.0000
  Zn  Zn2       1.0  0.86211  0.88698  0.50377  1.0000
  Zn  Zn3       1.0  0.36211  0.38698  0.99623  1.0000
  Zn  Zn4       1.0  0.13789  0.11302  0.49623  1.0000
  H   H1        1.0  0.92390  0.64058  0.91409  1.0000
  H   H2        1.0  0.57610  0.85941  0.41409  1.0000
  H   H3        1.0  0.07610  0.35941  0.08590  1.0000
  H   H4        1.0  0.42390  0.14059  0.58591  1.0000
  H   H5        1.0  0.18999  0.77486  0.92126  1.0000
  H   H6        1.0  0.31001  0.72514  0.42125  1.0000
  H   H7        1.0  0.81000  0.22513  0.07874  1.0000
  H   H8        1.0  0.68999  0.27487  0.57874  1.0000
  H   H9        1.0  0.06128  0.98973  0.13637  1.0000
  H   H10       1.0  0.43872  0.51026  0.63637  1.0000
  H   H11       1.0  0.93873  0.01025  0.86363  1.0000
  H   H12       1.0  0.56128  0.48974  0.36363  1.0000
  H   H13       1.0  0.79806  0.84525  0.11913  1.0000
  H   H14       1.0  0.70193  0.65475  0.61913  1.0000
  H   H15       1.0  0.20194  0.15473  0.88087  1.0000
  H   H16       1.0  0.29806  0.34527  0.38087  1.0000
  H   H17       1.0  0.32196  0.06631  0.07906  1.0000
  H   H18       1.0  0.17803  0.43369  0.57906  1.0000
  H   H19       1.0  0.67803  0.93367  0.92094  1.0000
  H   H20       1.0  0.82197  0.56632  0.42094  1.0000
  H   H21       1.0  0.41334  0.86955  0.95601  1.0000
  H   H22       1.0  0.08666  0.63044  0.45601  1.0000
  H   H23       1.0  0.58666  0.13044  0.04399  1.0000
  H   H24       1.0  0.91333  0.36956  0.54399  1.0000
  H   H25       1.0  0.53356  0.85727  0.78612  1.0000
  H   H26       1.0  0.96644  0.64274  0.28612  1.0000
  H   H27       1.0  0.46645  0.14274  0.21388  1.0000
  H   H28       1.0  0.03356  0.35727  0.71388  1.0000
  H   H29       1.0  0.40112  0.96409  0.67609  1.0000
  H   H30       1.0  0.09887  0.53591  0.17609  1.0000
  H   H31       1.0  0.59887  0.03592  0.32392  1.0000
  H   H32       1.0  0.90113  0.46409  0.82391  1.0000
  H   H33       1.0  0.00801  0.63601  0.69078  1.0000
  H   H34       1.0  0.49199  0.86399  0.19077  1.0000
  H   H35       1.0  0.99199  0.36399  0.30922  1.0000
  H   H36       1.0  0.50801  0.13601  0.80923  1.0000
  H   H37       1.0  0.14157  0.52940  0.80151  1.0000
  H   H38       1.0  0.35844  0.97061  0.30150  1.0000
  H   H39       1.0  0.85845  0.47061  0.19850  1.0000
  H   H40       1.0  0.64156  0.02939  0.69850  1.0000
  C   C1        1.0  0.96034  0.71911  0.96229  1.0000
  C   C2        1.0  0.53966  0.78088  0.46228  1.0000
  C   C3        1.0  0.03966  0.28088  0.03771  1.0000
  C   C4        1.0  0.46033  0.21913  0.53771  1.0000
  C   C5        1.0  0.10867  0.79400  0.96767  1.0000
  C   C6        1.0  0.39133  0.70600  0.46767  1.0000
  C   C7        1.0  0.89133  0.20599  0.03232  1.0000
  C   C8        1.0  0.60866  0.29401  0.53232  1.0000
  C   C9        1.0  0.15128  0.89495  0.03080  1.0000
  C   C10       1.0  0.34872  0.60505  0.53080  1.0000
  C   C11       1.0  0.84872  0.10504  0.96920  1.0000
  C   C12       1.0  0.65128  0.39496  0.46920  1.0000
  C   C13       1.0  0.03616  0.91286  0.08642  1.0000
  C   C14       1.0  0.46383  0.58714  0.58642  1.0000
  C   C15       1.0  0.96383  0.08713  0.91358  1.0000
  C   C16       1.0  0.53617  0.41287  0.41358  1.0000
  C   C17       1.0  0.88955  0.83317  0.07734  1.0000
  C   C18       1.0  0.61045  0.66683  0.57734  1.0000
  C   C19       1.0  0.11045  0.16682  0.92266  1.0000
  C   C20       1.0  0.38955  0.33318  0.42265  1.0000
  C   C21       1.0  0.30426  0.97936  0.03743  1.0000
  C   C22       1.0  0.19574  0.52063  0.53743  1.0000
  C   C23       1.0  0.69574  0.02063  0.96256  1.0000
  C   C24       1.0  0.80426  0.47937  0.46256  1.0000
  C   C25       1.0  0.42549  0.95716  0.99601  1.0000
  C   C26       1.0  0.07450  0.54284  0.49601  1.0000
  C   C27       1.0  0.57450  0.04283  0.00398  1.0000
  C   C28       1.0  0.92549  0.45716  0.50398  1.0000
  C   C29       1.0  0.34383  0.68725  0.80012  1.0000
  C   C30       1.0  0.15618  0.81276  0.30012  1.0000
  C   C31       1.0  0.65619  0.31276  0.19988  1.0000
  C   C32       1.0  0.84382  0.18724  0.69988  1.0000
  C   C33       1.0  0.41847  0.80984  0.76501  1.0000
  C   C34       1.0  0.08153  0.69017  0.26501  1.0000
  C   C35       1.0  0.58154  0.19017  0.23500  1.0000
  C   C36       1.0  0.91846  0.30984  0.73500  1.0000
  C   C37       1.0  0.34516  0.86890  0.70428  1.0000
  C   C38       1.0  0.15484  0.63111  0.20428  1.0000
  C   C39       1.0  0.65485  0.13111  0.29573  1.0000
  C   C40       1.0  0.84515  0.36890  0.79573  1.0000
  C   C41       1.0  0.19694  0.80687  0.67785  1.0000
  C   C42       1.0  0.30306  0.69312  0.17785  1.0000
  C   C43       1.0  0.80306  0.19313  0.32215  1.0000
  C   C44       1.0  0.69694  0.30687  0.82215  1.0000
  C   C45       1.0  0.12273  0.68374  0.71249  1.0000
  C   C46       1.0  0.37728  0.81626  0.21249  1.0000
  C   C47       1.0  0.87728  0.31627  0.28751  1.0000
  C   C48       1.0  0.62272  0.18373  0.78752  1.0000
  C   C49       1.0  0.19613  0.62459  0.77295  1.0000
  C   C50       1.0  0.30387  0.87541  0.27294  1.0000
  C   C51       1.0  0.80388  0.37541  0.22706  1.0000
  C   C52       1.0  0.69613  0.12459  0.72706  1.0000
  C   C53       1.0  0.41627  0.62363  0.86927  1.0000
  C   C54       1.0  0.08375  0.87638  0.36927  1.0000
  C   C55       1.0  0.58375  0.37638  0.13074  1.0000
  C   C56       1.0  0.91626  0.12363  0.63073  1.0000
  C   C57       1.0  0.11911  0.87118  0.61202  1.0000
  C   C58       1.0  0.38088  0.62880  0.11202  1.0000
  C   C59       1.0  0.88088  0.12881  0.38799  1.0000
  C   C60       1.0  0.61911  0.37118  0.88799  1.0000
  N   N1        1.0  0.85094  0.73784  0.01586  1.0000
  N   N2        1.0  0.64906  0.76216  0.51586  1.0000
  N   N3        1.0  0.14906  0.26215  0.98414  1.0000
  N   N4        1.0  0.35094  0.23785  0.48414  1.0000
  O   O1        1.0  0.54446  0.68902  0.89910  1.0000
  O   O2        1.0  0.95555  0.81099  0.39910  1.0000
  O   O3        1.0  0.45556  0.31099  0.10090  1.0000
  O   O4        1.0  0.04445  0.18902  0.60090  1.0000
  O   O5        1.0  0.34102  0.51029  0.89397  1.0000
  O   O6        1.0  0.15899  0.98973  0.39397  1.0000
  O   O7        1.0  0.65898  0.48974  0.10604  1.0000
  O   O8        1.0  0.84102  0.01027  0.60604  1.0000
  O   O9        1.0  0.19227  0.98412  0.58480  1.0000
  O   O10       1.0  0.30773  0.51587  0.08481  1.0000
  O   O11       1.0  0.80772  0.01588  0.41521  1.0000
  O   O12       1.0  0.69227  0.48412  0.91521  1.0000
  O   O13       1.0  0.98655  0.80742  0.58837  1.0000
  O   O14       1.0  0.51344  0.69257  0.08837  1.0000
  O   O15       1.0  0.01345  0.19257  0.41163  1.0000
  O   O16       1.0  0.48654  0.30742  0.91162  1.0000
