data_image0
_chemical_formula_structural       Zn4H44C60N8O16
_chemical_formula_sum              "Zn4 H44 C60 N8 O16"
_cell_length_a       7.75024
_cell_length_b       14.8608
_cell_length_c       16.1072
_cell_angle_alpha    104.738
_cell_angle_beta     90.0107
_cell_angle_gamma    105.102

_space_group_name_H-M_alt    "P 1"
_space_group_IT_number       1

loop_
  _space_group_symop_operation_xyz
  'x, y, z'

loop_
  _atom_site_type_symbol
  _atom_site_label
  _atom_site_symmetry_multiplicity
  _atom_site_fract_x
  _atom_site_fract_y
  _atom_site_fract_z
  _atom_site_occupancy
  Zn  Zn1       1.0  0.57137  0.64106  0.30424  1.0000
  Zn  Zn2       1.0  0.93005  0.35878  0.19566  1.0000
  Zn  Zn3       1.0  0.42863  0.35894  0.69576  1.0000
  Zn  Zn4       1.0  0.06995  0.64122  0.80434  1.0000
  H   H1        1.0  0.64991  0.47582  0.27986  1.0000
  H   H2        1.0  0.17382  0.52408  0.22011  1.0000
  H   H3        1.0  0.35008  0.52418  0.72014  1.0000
  H   H4        1.0  0.82618  0.47593  0.77989  1.0000
  H   H5        1.0  0.51168  0.48827  0.35826  1.0000
  H   H6        1.0  0.02296  0.51170  0.14177  1.0000
  H   H7        1.0  0.48832  0.51173  0.64174  1.0000
  H   H8        1.0  0.97705  0.48831  0.85823  1.0000
  H   H9        1.0  0.66075  0.77187  0.48638  1.0000
  H   H10       1.0  0.88874  0.22806  0.01348  1.0000
  H   H11       1.0  0.33924  0.22813  0.51362  1.0000
  H   H12       1.0  0.11127  0.77194  0.98652  1.0000
  H   H13       1.0  0.94003  0.88530  0.57080  1.0000
  H   H14       1.0  0.05473  0.11468  0.92906  1.0000
  H   H15       1.0  0.05996  0.11469  0.42920  1.0000
  H   H16       1.0  0.94526  0.88532  0.07094  1.0000
  H   H17       1.0  0.20075  0.85454  0.33115  1.0000
  H   H18       1.0  0.34654  0.14549  0.16868  1.0000
  H   H19       1.0  0.79925  0.14546  0.66886  1.0000
  H   H20       1.0  0.65347  0.85451  0.83132  1.0000
  H   H21       1.0  0.91411  0.74503  0.25893  1.0000
  H   H22       1.0  0.16936  0.25504  0.24091  1.0000
  H   H23       1.0  0.08589  0.25497  0.74107  1.0000
  H   H24       1.0  0.83064  0.74496  0.75908  1.0000
  H   H25       1.0  0.24708  0.97715  0.57530  1.0000
  H   H26       1.0  0.26992  0.02281  0.92458  1.0000
  H   H27       1.0  0.75292  0.02284  0.42471  1.0000
  H   H28       1.0  0.73007  0.97719  0.07542  1.0000
  H   H29       1.0  0.43869  0.93568  0.40730  1.0000
  H   H30       1.0  0.50300  0.06438  0.09264  1.0000
  H   H31       1.0  0.56131  0.06431  0.59271  1.0000
  H   H32       1.0  0.49700  0.93561  0.90736  1.0000
  H   H33       1.0  0.96321  0.57366  0.29820  1.0000
  H   H34       1.0  0.38909  0.42619  0.20178  1.0000
  H   H35       1.0  0.03679  0.42634  0.70180  1.0000
  H   H36       1.0  0.61091  0.57381  0.79822  1.0000
  H   H37       1.0  0.20005  0.65265  0.55756  1.0000
  H   H38       1.0  0.54676  0.34725  0.94239  1.0000
  H   H39       1.0  0.79995  0.34736  0.44244  1.0000
  H   H40       1.0  0.45325  0.65275  0.05761  1.0000
  H   H41       1.0  0.62734  0.55216  0.50854  1.0000
  H   H42       1.0  0.07466  0.44784  0.99143  1.0000
  H   H43       1.0  0.37266  0.44785  0.49146  1.0000
  H   H44       1.0  0.92535  0.55217  0.00857  1.0000
  C   C1        1.0  0.78381  0.79476  0.45561  1.0000
  C   C2        1.0  0.98904  0.20522  0.04424  1.0000
  C   C3        1.0  0.21618  0.20524  0.54439  1.0000
  C   C4        1.0  0.01096  0.79477  0.95576  1.0000
  C   C5        1.0  0.93945  0.85701  0.50130  1.0000
  C   C6        1.0  0.08257  0.14305  0.99854  1.0000
  C   C7        1.0  0.06054  0.14298  0.49870  1.0000
  C   C8        1.0  0.91743  0.85695  0.00146  1.0000
  C   C9        1.0  0.09631  0.88155  0.45865  1.0000
  C   C10       1.0  0.21489  0.11851  0.04119  1.0000
  C   C11       1.0  0.90369  0.11845  0.54135  1.0000
  C   C12       1.0  0.78511  0.88149  0.95880  1.0000
  C   C13       1.0  0.08502  0.84094  0.36901  1.0000
  C   C14       1.0  0.24434  0.15910  0.13084  1.0000
  C   C15       1.0  0.91498  0.15906  0.63100  1.0000
  C   C16       1.0  0.75566  0.84090  0.86916  1.0000
  C   C17       1.0  0.92497  0.78005  0.32762  1.0000
  C   C18       1.0  0.14513  0.21997  0.17222  1.0000
  C   C19       1.0  0.07503  0.21995  0.67237  1.0000
  C   C20       1.0  0.85487  0.78003  0.82778  1.0000
  C   C21       1.0  0.25900  0.94549  0.50706  1.0000
  C   C22       1.0  0.31358  0.05454  0.99281  1.0000
  C   C23       1.0  0.74100  0.05450  0.49295  1.0000
  C   C24       1.0  0.68642  0.94546  0.00719  1.0000
  C   C25       1.0  0.42191  0.96792  0.47480  1.0000
  C   C26       1.0  0.45398  0.03210  0.02515  1.0000
  C   C27       1.0  0.57809  0.03207  0.52521  1.0000
  C   C28       1.0  0.54601  0.96790  0.97485  1.0000
  C   C29       1.0  0.77972  0.55568  0.39643  1.0000
  C   C30       1.0  0.22355  0.44423  0.10354  1.0000
  C   C31       1.0  0.22028  0.44432  0.60357  1.0000
  C   C32       1.0  0.77645  0.55577  0.89646  1.0000
  C   C33       1.0  0.95088  0.57965  0.36662  1.0000
  C   C34       1.0  0.37072  0.42020  0.13335  1.0000
  C   C35       1.0  0.04912  0.42035  0.63338  1.0000
  C   C36       1.0  0.62929  0.57981  0.86665  1.0000
  C   C37       1.0  0.10228  0.61459  0.42456  1.0000
  C   C38       1.0  0.48710  0.38521  0.07539  1.0000
  C   C39       1.0  0.89772  0.38541  0.57544  1.0000
  C   C40       1.0  0.51291  0.61480  0.92461  1.0000
  C   C41       1.0  0.08209  0.62686  0.51272  1.0000
  C   C42       1.0  0.45462  0.37302  0.98725  1.0000
  C   C43       1.0  0.91791  0.37315  0.48728  1.0000
  C   C44       1.0  0.54539  0.62698  0.01275  1.0000
  C   C45       1.0  0.91153  0.60406  0.54271  1.0000
  C   C46       1.0  0.30695  0.39593  0.95727  1.0000
  C   C47       1.0  0.08847  0.39594  0.45729  1.0000
  C   C48       1.0  0.69306  0.60407  0.04273  1.0000
  C   C49       1.0  0.75992  0.56880  0.48443  1.0000
  C   C50       1.0  0.19058  0.43117  0.01554  1.0000
  C   C51       1.0  0.24007  0.43120  0.51557  1.0000
  C   C52       1.0  0.80942  0.56883  0.98446  1.0000
  C   C53       1.0  0.28769  0.63628  0.39503  1.0000
  C   C54       1.0  0.65088  0.36348  0.10484  1.0000
  C   C55       1.0  0.71231  0.36372  0.60497  1.0000
  C   C56       1.0  0.34913  0.63652  0.89516  1.0000
  C   C57       1.0  0.89169  0.61313  0.63701  1.0000
  C   C58       1.0  0.27840  0.38699  0.86298  1.0000
  C   C59       1.0  0.10831  0.38687  0.36299  1.0000
  C   C60       1.0  0.72161  0.61302  0.13702  1.0000
  N   N1        1.0  0.77580  0.75686  0.36975  1.0000
  N   N2        1.0  0.01899  0.24311  0.13011  1.0000
  N   N3        1.0  0.22420  0.24314  0.63024  1.0000
  N   N4        1.0  0.98101  0.75688  0.86989  1.0000
  N   N5        1.0  0.62741  0.52342  0.33545  1.0000
  N   N6        1.0  0.10359  0.47651  0.16453  1.0000
  N   N7        1.0  0.37259  0.47658  0.66455  1.0000
  N   N8        1.0  0.89641  0.52349  0.83547  1.0000
  O   O1        1.0  0.30675  0.62653  0.31280  1.0000
  O   O2        1.0  0.67983  0.37319  0.18706  1.0000
  O   O3        1.0  0.69326  0.37347  0.68720  1.0000
  O   O4        1.0  0.32018  0.62681  0.81294  1.0000
  O   O5        1.0  0.42029  0.66185  0.44859  1.0000
  O   O6        1.0  0.75787  0.33800  0.05123  1.0000
  O   O7        1.0  0.57970  0.33815  0.55141  1.0000
  O   O8        1.0  0.24213  0.66200  0.94877  1.0000
  O   O9        1.0  0.73943  0.58884  0.66457  1.0000
  O   O10       1.0  0.15063  0.41138  0.83533  1.0000
  O   O11       1.0  0.26057  0.41116  0.33543  1.0000
  O   O12       1.0  0.84938  0.58862  0.16467  1.0000
  O   O13       1.0  0.04114  0.64713  0.68470  1.0000
  O   O14       1.0  0.39402  0.35303  0.81540  1.0000
  O   O15       1.0  0.95886  0.35287  0.31530  1.0000
  O   O16       1.0  0.60599  0.64697  0.18460  1.0000
