data_image0
_chemical_formula_structural       Cd2H34C32N4O8
_chemical_formula_sum              "Cd2 H34 C32 N4 O8"
_cell_length_a       8.03096
_cell_length_b       9.00839
_cell_length_c       11.1251
_cell_angle_alpha    82.0415
_cell_angle_beta     73.8608
_cell_angle_gamma    84.8673

_space_group_name_H-M_alt    "P 1"
_space_group_IT_number       1

loop_
  _space_group_symop_operation_xyz
  'x, y, z'

loop_
  _atom_site_type_symbol
  _atom_site_label
  _atom_site_symmetry_multiplicity
  _atom_site_fract_x
  _atom_site_fract_y
  _atom_site_fract_z
  _atom_site_occupancy
  Cd  Cd1       1.0  0.03595  0.98949  0.82626  1.0000
  Cd  Cd2       1.0  0.96406  0.01051  0.17373  1.0000
  H   H1        1.0  0.44456  0.12012  0.02505  1.0000
  H   H2        1.0  0.55545  0.87988  0.97495  1.0000
  H   H3        1.0  0.55353  0.13765  0.14172  1.0000
  H   H4        1.0  0.44647  0.86235  0.85828  1.0000
  H   H5        1.0  0.40949  0.33834  0.86812  1.0000
  H   H6        1.0  0.59051  0.66166  0.13188  1.0000
  H   H7        1.0  0.62210  0.38381  0.17480  1.0000
  H   H8        1.0  0.37790  0.61619  0.82520  1.0000
  H   H9        1.0  0.57193  0.17475  0.68460  1.0000
  H   H10       1.0  0.42807  0.82525  0.31540  1.0000
  H   H11       1.0  0.57551  0.11624  0.53835  1.0000
  H   H12       1.0  0.42449  0.88377  0.46164  1.0000
  H   H13       1.0  0.29849  0.43084  0.70985  1.0000
  H   H14       1.0  0.70151  0.56916  0.29015  1.0000
  H   H15       1.0  0.68784  0.30368  0.38394  1.0000
  H   H16       1.0  0.31216  0.69632  0.61606  1.0000
  H   H17       1.0  0.98070  0.39696  0.84109  1.0000
  H   H18       1.0  0.01931  0.60304  0.15890  1.0000
  H   H19       1.0  0.07376  0.63660  0.93918  1.0000
  H   H20       1.0  0.92624  0.36340  0.06082  1.0000
  H   H21       1.0  0.71152  0.55595  0.61960  1.0000
  H   H22       1.0  0.28848  0.44405  0.38040  1.0000
  H   H23       1.0  0.74919  0.39209  0.71843  1.0000
  H   H24       1.0  0.25081  0.60791  0.28157  1.0000
  H   H25       1.0  0.90762  0.35588  0.50522  1.0000
  H   H26       1.0  0.09238  0.64412  0.49478  1.0000
  H   H27       1.0  0.06068  0.37430  0.58980  1.0000
  H   H28       1.0  0.93932  0.62569  0.41020  1.0000
  H   H29       1.0  0.77120  0.94926  0.67657  1.0000
  H   H30       1.0  0.22880  0.05074  0.32344  1.0000
  H   H31       1.0  0.66056  0.80578  0.64181  1.0000
  H   H32       1.0  0.33944  0.19421  0.35819  1.0000
  H   H33       1.0  0.87009  0.84923  0.54476  1.0000
  H   H34       1.0  0.12991  0.15076  0.45525  1.0000
  C   C1        1.0  0.72064  0.12721  0.95511  1.0000
  C   C2        1.0  0.27936  0.87279  0.04489  1.0000
  C   C3        1.0  0.54924  0.17481  0.04445  1.0000
  C   C4        1.0  0.45076  0.82519  0.95555  1.0000
  C   C5        1.0  0.44972  0.40938  0.92571  1.0000
  C   C6        1.0  0.55028  0.59062  0.07429  1.0000
  C   C7        1.0  0.51946  0.34282  0.02368  1.0000
  C   C8        1.0  0.48054  0.65718  0.97632  1.0000
  C   C9        1.0  0.56905  0.43499  0.09772  1.0000
  C   C10       1.0  0.43095  0.56502  0.90228  1.0000
  C   C11       1.0  0.33138  0.11186  0.67691  1.0000
  C   C12       1.0  0.66862  0.88814  0.32309  1.0000
  C   C13       1.0  0.50119  0.18544  0.61108  1.0000
  C   C14       1.0  0.49881  0.81457  0.38892  1.0000
  C   C15       1.0  0.49384  0.34752  0.55481  1.0000
  C   C16       1.0  0.50616  0.65249  0.44519  1.0000
  C   C17       1.0  0.38804  0.46049  0.61810  1.0000
  C   C18       1.0  0.61196  0.53952  0.38190  1.0000
  C   C19       1.0  0.60543  0.39002  0.43564  1.0000
  C   C20       1.0  0.39457  0.60998  0.56436  1.0000
  C   C21       1.0  0.86821  0.73090  0.72692  1.0000
  C   C22       1.0  0.13179  0.26909  0.27308  1.0000
  C   C23       1.0  0.95835  0.51733  0.82236  1.0000
  C   C24       1.0  0.04165  0.48266  0.17764  1.0000
  C   C25       1.0  0.00469  0.63598  0.86854  1.0000
  C   C26       1.0  0.99532  0.36403  0.13146  1.0000
  C   C27       1.0  0.81143  0.48862  0.65616  1.0000
  C   C28       1.0  0.18857  0.51137  0.34385  1.0000
  C   C29       1.0  0.96030  0.43604  0.54932  1.0000
  C   C30       1.0  0.03970  0.56396  0.45068  1.0000
  C   C31       1.0  0.78855  0.83887  0.64265  1.0000
  C   C32       1.0  0.21145  0.16113  0.35735  1.0000
  N   N1        1.0  0.94835  0.76790  0.80873  1.0000
  N   N2        1.0  0.05165  0.23210  0.19127  1.0000
  N   N3        1.0  0.87246  0.57841  0.73381  1.0000
  N   N4        1.0  0.12754  0.42160  0.26619  1.0000
  O   O1        1.0  0.73164  0.11575  0.84137  1.0000
  O   O2        1.0  0.26836  0.88425  0.15863  1.0000
  O   O3        1.0  0.85522  0.10083  0.99877  1.0000
  O   O4        1.0  0.14478  0.89918  0.00122  1.0000
  O   O5        1.0  0.20376  0.18868  0.74230  1.0000
  O   O6        1.0  0.79625  0.81132  0.25771  1.0000
  O   O7        1.0  0.32242  0.97299  0.67091  1.0000
  O   O8        1.0  0.67757  0.02701  0.32909  1.0000
