data_image0
_chemical_formula_structural       Cu4H6C10I4N4
_chemical_formula_sum              "Cu4 H6 C10 I4 N4"
_cell_length_a       7.38071
_cell_length_b       8.31206
_cell_length_c       8.63678
_cell_angle_alpha    80.6753
_cell_angle_beta     64.7199
_cell_angle_gamma    67.7017

_space_group_name_H-M_alt    "P 1"
_space_group_IT_number       1

loop_
  _space_group_symop_operation_xyz
  'x, y, z'

loop_
  _atom_site_type_symbol
  _atom_site_label
  _atom_site_symmetry_multiplicity
  _atom_site_fract_x
  _atom_site_fract_y
  _atom_site_fract_z
  _atom_site_occupancy
  Cu  Cu1       1.0  0.82165  0.08308  0.62312  1.0000
  Cu  Cu2       1.0  0.44491  0.08313  0.37682  1.0000
  Cu  Cu3       1.0  0.17837  0.91693  0.37684  1.0000
  Cu  Cu4       1.0  0.55510  0.91686  0.62318  1.0000
  H   H1        1.0  0.96707  0.32446  0.72228  1.0000
  H   H2        1.0  0.68913  0.32456  0.27786  1.0000
  H   H3        1.0  0.03294  0.67554  0.27773  1.0000
  H   H4        1.0  0.31093  0.67539  0.72215  1.0000
  H   H5        1.0  0.65796  0.97868  0.99994  1.0000
  H   H6        1.0  0.34206  0.02131  0.00005  1.0000
  C   C1        1.0  0.88389  0.27451  0.84672  1.0000
  C   C2        1.0  0.73056  0.27452  0.15335  1.0000
  C   C3        1.0  0.11610  0.72550  0.15328  1.0000
  C   C4        1.0  0.26945  0.72547  0.84665  1.0000
  C   C5        1.0  0.85766  0.33577  0.00006  1.0000
  C   C6        1.0  0.14232  0.66425  0.99994  1.0000
  C   C7        1.0  0.70455  0.08848  0.99995  1.0000
  C   C8        1.0  0.29543  0.91154  0.00004  1.0000
  C   C9        1.0  0.95464  0.45228  0.00007  1.0000
  C   C10       1.0  0.04539  0.54770  0.99994  1.0000
  I   I1        1.0  0.94029  0.74630  0.61958  1.0000
  I   I2        1.0  0.56007  0.74630  0.38010  1.0000
  I   I3        1.0  0.05969  0.25372  0.38044  1.0000
  I   I4        1.0  0.43990  0.25369  0.61990  1.0000
  N   N1        1.0  0.80743  0.15103  0.84732  1.0000
  N   N2        1.0  0.65473  0.15104  0.15266  1.0000
  N   N3        1.0  0.19254  0.84900  0.15268  1.0000
  N   N4        1.0  0.34527  0.84896  0.84734  1.0000
