data_image0
_chemical_formula_structural       Cd4H52C56N8O16
_chemical_formula_sum              "Cd4 H52 C56 N8 O16"
_cell_length_a       10.2278
_cell_length_b       10.3489
_cell_length_c       13.7599
_cell_angle_alpha    109.257
_cell_angle_beta     90
_cell_angle_gamma    90.0001

_space_group_name_H-M_alt    "P 1"
_space_group_IT_number       1

loop_
  _space_group_symop_operation_xyz
  'x, y, z'

loop_
  _atom_site_type_symbol
  _atom_site_label
  _atom_site_symmetry_multiplicity
  _atom_site_fract_x
  _atom_site_fract_y
  _atom_site_fract_z
  _atom_site_occupancy
  Cd  Cd1       1.0  0.63041  0.98029  0.59813  1.0000
  Cd  Cd2       1.0  0.13041  0.01971  0.90187  1.0000
  Cd  Cd3       1.0  0.36959  0.01971  0.40187  1.0000
  Cd  Cd4       1.0  0.86959  0.98029  0.09813  1.0000
  H   H1        1.0  0.99545  0.49266  0.61011  1.0000
  H   H2        1.0  0.49545  0.50733  0.88989  1.0000
  H   H3        1.0  0.00455  0.50733  0.38989  1.0000
  H   H4        1.0  0.50455  0.49266  0.11011  1.0000
  H   H5        1.0  0.86219  0.46113  0.52425  1.0000
  H   H6        1.0  0.36219  0.53886  0.97575  1.0000
  H   H7        1.0  0.13781  0.53886  0.47575  1.0000
  H   H8        1.0  0.63781  0.46114  0.02425  1.0000
  H   H9        1.0  0.99016  0.26675  0.39762  1.0000
  H   H10       1.0  0.49016  0.73325  0.10238  1.0000
  H   H11       1.0  0.00983  0.73325  0.60238  1.0000
  H   H12       1.0  0.50984  0.26675  0.89762  1.0000
  H   H13       1.0  0.11955  0.29834  0.48802  1.0000
  H   H14       1.0  0.61955  0.70166  0.01198  1.0000
  H   H15       1.0  0.88045  0.70166  0.51198  1.0000
  H   H16       1.0  0.38045  0.29834  0.98802  1.0000
  H   H17       1.0  0.93147  0.03421  0.68365  1.0000
  H   H18       1.0  0.43147  0.96579  0.81635  1.0000
  H   H19       1.0  0.06853  0.96579  0.31635  1.0000
  H   H20       1.0  0.56853  0.03421  0.18365  1.0000
  H   H21       1.0  0.11573  0.18941  0.62079  1.0000
  H   H22       1.0  0.61573  0.81059  0.87920  1.0000
  H   H23       1.0  0.88427  0.81059  0.37920  1.0000
  H   H24       1.0  0.38427  0.18941  0.12079  1.0000
  H   H25       1.0  0.63970  0.14570  0.44923  1.0000
  H   H26       1.0  0.13970  0.85430  0.05077  1.0000
  H   H27       1.0  0.36030  0.85430  0.55077  1.0000
  H   H28       1.0  0.86030  0.14570  0.94923  1.0000
  H   H29       1.0  0.76749  0.15818  0.36585  1.0000
  H   H30       1.0  0.26749  0.84183  0.13415  1.0000
  H   H31       1.0  0.23251  0.84183  0.63415  1.0000
  H   H32       1.0  0.73251  0.15818  0.86585  1.0000
  H   H33       1.0  0.71309  0.30728  0.46590  1.0000
  H   H34       1.0  0.21309  0.69272  0.03410  1.0000
  H   H35       1.0  0.28691  0.69272  0.53410  1.0000
  H   H36       1.0  0.78691  0.30728  0.96590  1.0000
  H   H37       1.0  0.10667  0.46023  0.86718  1.0000
  H   H38       1.0  0.60667  0.53977  0.63282  1.0000
  H   H39       1.0  0.89333  0.53977  0.13282  1.0000
  H   H40       1.0  0.39333  0.46023  0.36717  1.0000
  H   H41       1.0  0.15948  0.64646  0.79296  1.0000
  H   H42       1.0  0.65948  0.35354  0.70704  1.0000
  H   H43       1.0  0.84052  0.35354  0.20704  1.0000
  H   H44       1.0  0.34052  0.64646  0.29296  1.0000
  H   H45       1.0  0.32867  0.60468  0.65695  1.0000
  H   H46       1.0  0.82867  0.39532  0.84305  1.0000
  H   H47       1.0  0.67133  0.39532  0.34305  1.0000
  H   H48       1.0  0.17133  0.60469  0.15695  1.0000
  H   H49       1.0  0.44336  0.38028  0.59413  1.0000
  H   H50       1.0  0.94336  0.61972  0.90587  1.0000
  H   H51       1.0  0.55664  0.61972  0.40587  1.0000
  H   H52       1.0  0.05664  0.38028  0.09414  1.0000
  C   C1        1.0  0.96931  0.45485  0.52791  1.0000
  C   C2        1.0  0.46931  0.54515  0.97209  1.0000
  C   C3        1.0  0.03069  0.54515  0.47209  1.0000
  C   C4        1.0  0.53069  0.45485  0.02791  1.0000
  C   C5        1.0  0.01320  0.30630  0.48024  1.0000
  C   C6        1.0  0.51319  0.69370  0.01976  1.0000
  C   C7        1.0  0.98680  0.69370  0.51976  1.0000
  C   C8        1.0  0.48680  0.30630  0.98024  1.0000
  C   C9        1.0  0.82795  0.16897  0.51720  1.0000
  C   C10       1.0  0.32795  0.83103  0.98279  1.0000
  C   C11       1.0  0.17205  0.83103  0.48280  1.0000
  C   C12       1.0  0.67205  0.16897  0.01720  1.0000
  C   C13       1.0  0.92300  0.09115  0.63043  1.0000
  C   C14       1.0  0.42301  0.90884  0.86957  1.0000
  C   C15       1.0  0.07699  0.90884  0.36957  1.0000
  C   C16       1.0  0.57700  0.09115  0.13044  1.0000
  C   C17       1.0  0.01408  0.16747  0.60053  1.0000
  C   C18       1.0  0.51407  0.83253  0.89947  1.0000
  C   C19       1.0  0.98593  0.83253  0.39947  1.0000
  C   C20       1.0  0.48593  0.16748  0.10053  1.0000
  C   C21       1.0  0.73216  0.19706  0.44571  1.0000
  C   C22       1.0  0.23216  0.80295  0.05429  1.0000
  C   C23       1.0  0.26784  0.80294  0.55429  1.0000
  C   C24       1.0  0.76784  0.19706  0.94571  1.0000
  C   C25       1.0  0.34728  0.29968  0.70101  1.0000
  C   C26       1.0  0.84728  0.70033  0.79899  1.0000
  C   C27       1.0  0.65272  0.70032  0.29899  1.0000
  C   C28       1.0  0.15272  0.29968  0.20101  1.0000
  C   C29       1.0  0.24952  0.32175  0.77690  1.0000
  C   C30       1.0  0.74952  0.67825  0.72310  1.0000
  C   C31       1.0  0.75048  0.67825  0.22310  1.0000
  C   C32       1.0  0.25048  0.32175  0.27690  1.0000
  C   C33       1.0  0.18281  0.44682  0.80936  1.0000
  C   C34       1.0  0.68282  0.55318  0.69065  1.0000
  C   C35       1.0  0.81719  0.55318  0.19065  1.0000
  C   C36       1.0  0.31719  0.44682  0.30936  1.0000
  C   C37       1.0  0.21142  0.54922  0.76753  1.0000
  C   C38       1.0  0.71143  0.45079  0.73247  1.0000
  C   C39       1.0  0.78858  0.45079  0.23247  1.0000
  C   C40       1.0  0.28857  0.54922  0.26753  1.0000
  C   C41       1.0  0.30579  0.52537  0.69023  1.0000
  C   C42       1.0  0.80579  0.47463  0.80977  1.0000
  C   C43       1.0  0.69421  0.47463  0.30977  1.0000
  C   C44       1.0  0.19421  0.52537  0.19023  1.0000
  C   C45       1.0  0.37194  0.40061  0.65616  1.0000
  C   C46       1.0  0.87194  0.59940  0.84384  1.0000
  C   C47       1.0  0.62806  0.59939  0.34384  1.0000
  C   C48       1.0  0.12806  0.40061  0.15616  1.0000
  C   C49       1.0  0.43590  0.17735  0.67073  1.0000
  C   C50       1.0  0.93590  0.82265  0.82927  1.0000
  C   C51       1.0  0.56410  0.82265  0.32927  1.0000
  C   C52       1.0  0.06410  0.17735  0.17073  1.0000
  C   C53       1.0  0.20857  0.20919  0.81607  1.0000
  C   C54       1.0  0.70857  0.79081  0.68393  1.0000
  C   C55       1.0  0.79143  0.79081  0.18393  1.0000
  C   C56       1.0  0.29143  0.20919  0.31607  1.0000
  N   N1        1.0  0.95324  0.21601  0.52988  1.0000
  N   N2        1.0  0.45323  0.78399  0.97012  1.0000
  N   N3        1.0  0.04677  0.78400  0.47012  1.0000
  N   N4        1.0  0.54677  0.21601  0.02988  1.0000
  N   N5        1.0  0.80773  0.09301  0.57817  1.0000
  N   N6        1.0  0.30773  0.90700  0.92184  1.0000
  N   N7        1.0  0.19227  0.90700  0.42184  1.0000
  N   N8        1.0  0.69227  0.09301  0.07817  1.0000
  O   O1        1.0  0.52050  0.16487  0.73410  1.0000
  O   O2        1.0  0.02050  0.83514  0.76590  1.0000
  O   O3        1.0  0.47950  0.83513  0.26590  1.0000
  O   O4        1.0  0.97950  0.16487  0.23410  1.0000
  O   O5        1.0  0.43549  0.09556  0.57723  1.0000
  O   O6        1.0  0.93549  0.90444  0.92277  1.0000
  O   O7        1.0  0.56451  0.90444  0.42277  1.0000
  O   O8        1.0  0.06451  0.09556  0.07723  1.0000
  O   O9        1.0  0.24338  0.08764  0.76649  1.0000
  O   O10       1.0  0.74338  0.91236  0.73351  1.0000
  O   O11       1.0  0.75662  0.91236  0.23351  1.0000
  O   O12       1.0  0.25662  0.08764  0.26649  1.0000
  O   O13       1.0  0.13689  0.23902  0.89754  1.0000
  O   O14       1.0  0.63689  0.76098  0.60246  1.0000
  O   O15       1.0  0.86311  0.76098  0.10246  1.0000
  O   O16       1.0  0.36311  0.23902  0.39754  1.0000
