data_image0
_chemical_formula_structural       Zn4H36C48N16O16
_chemical_formula_sum              "Zn4 H36 C48 N16 O16"
_cell_length_a       11.2258
_cell_length_b       11.2258
_cell_length_c       11.6161
_cell_angle_alpha    73.4647
_cell_angle_beta     73.465
_cell_angle_gamma    61.4995

_space_group_name_H-M_alt    "P 1"
_space_group_IT_number       1

loop_
  _space_group_symop_operation_xyz
  'x, y, z'

loop_
  _atom_site_type_symbol
  _atom_site_label
  _atom_site_symmetry_multiplicity
  _atom_site_fract_x
  _atom_site_fract_y
  _atom_site_fract_z
  _atom_site_occupancy
  Zn  Zn1       1.0  0.33452  0.07946  0.33819  1.0000
  Zn  Zn2       1.0  0.92054  0.66548  0.16181  1.0000
  Zn  Zn3       1.0  0.66548  0.92055  0.66182  1.0000
  Zn  Zn4       1.0  0.07945  0.33452  0.83818  1.0000
  H   H1        1.0  0.69019  0.91907  0.32954  1.0000
  H   H2        1.0  0.08093  0.30981  0.17046  1.0000
  H   H3        1.0  0.30980  0.08093  0.67046  1.0000
  H   H4        1.0  0.91908  0.69019  0.82954  1.0000
  H   H5        1.0  0.05481  0.12718  0.52678  1.0000
  H   H6        1.0  0.87282  0.94518  0.97322  1.0000
  H   H7        1.0  0.94518  0.87282  0.47322  1.0000
  H   H8        1.0  0.12718  0.05482  0.02678  1.0000
  H   H9        1.0  0.01258  0.90397  0.67635  1.0000
  H   H10       1.0  0.09603  0.98742  0.82365  1.0000
  H   H11       1.0  0.98742  0.09603  0.32365  1.0000
  H   H12       1.0  0.90397  0.01258  0.17635  1.0000
  H   H13       1.0  0.43017  0.76691  0.50018  1.0000
  H   H14       1.0  0.23309  0.56982  0.99981  1.0000
  H   H15       1.0  0.56982  0.23309  0.49982  1.0000
  H   H16       1.0  0.76692  0.43018  0.00018  1.0000
  H   H17       1.0  0.24563  0.60214  0.60243  1.0000
  H   H18       1.0  0.39785  0.75436  0.89756  1.0000
  H   H19       1.0  0.75436  0.39786  0.39757  1.0000
  H   H20       1.0  0.60215  0.24564  0.10244  1.0000
  H   H21       1.0  0.16638  0.66154  0.74239  1.0000
  H   H22       1.0  0.33846  0.83361  0.75761  1.0000
  H   H23       1.0  0.83361  0.33846  0.25761  1.0000
  H   H24       1.0  0.66155  0.16639  0.24239  1.0000
  H   H25       1.0  0.44394  0.41480  0.60659  1.0000
  H   H26       1.0  0.58520  0.55605  0.89342  1.0000
  H   H27       1.0  0.55606  0.58521  0.39341  1.0000
  H   H28       1.0  0.41479  0.44394  0.10658  1.0000
  H   H29       1.0  0.66942  0.26237  0.67644  1.0000
  H   H30       1.0  0.73765  0.33058  0.82356  1.0000
  H   H31       1.0  0.33059  0.73764  0.32354  1.0000
  H   H32       1.0  0.26236  0.66941  0.17644  1.0000
  H   H33       1.0  0.50180  0.78887  0.01886  1.0000
  H   H34       1.0  0.21113  0.49820  0.48114  1.0000
  H   H35       1.0  0.49820  0.21113  0.98114  1.0000
  H   H36       1.0  0.78887  0.50179  0.51886  1.0000
  C   C1        1.0  0.65002  0.89795  0.26690  1.0000
  C   C2        1.0  0.10206  0.34998  0.23309  1.0000
  C   C3        1.0  0.34998  0.10206  0.73309  1.0000
  C   C4        1.0  0.89795  0.65002  0.76690  1.0000
  C   C5        1.0  0.50756  0.90202  0.16970  1.0000
  C   C6        1.0  0.09799  0.49245  0.33029  1.0000
  C   C7        1.0  0.49245  0.09800  0.83029  1.0000
  C   C8        1.0  0.90201  0.50755  0.66971  1.0000
  C   C9        1.0  0.37362  0.94423  0.13623  1.0000
  C   C10       1.0  0.05577  0.62637  0.36377  1.0000
  C   C11       1.0  0.62637  0.05577  0.86377  1.0000
  C   C12       1.0  0.94423  0.37362  0.63623  1.0000
  C   C13       1.0  0.69060  0.69914  0.05719  1.0000
  C   C14       1.0  0.30087  0.30942  0.44281  1.0000
  C   C15       1.0  0.30941  0.30087  0.94281  1.0000
  C   C16       1.0  0.69913  0.69058  0.55720  1.0000
  C   C17       1.0  0.63822  0.80215  0.13460  1.0000
  C   C18       1.0  0.19786  0.36178  0.36539  1.0000
  C   C19       1.0  0.36178  0.19787  0.86538  1.0000
  C   C20       1.0  0.80214  0.63822  0.63461  1.0000
  C   C21       1.0  0.12589  0.01889  0.54132  1.0000
  C   C22       1.0  0.98111  0.87410  0.95867  1.0000
  C   C23       1.0  0.87410  0.98111  0.45867  1.0000
  C   C24       1.0  0.01889  0.12590  0.04133  1.0000
  C   C25       1.0  0.10383  0.90984  0.61626  1.0000
  C   C26       1.0  0.09015  0.89616  0.88374  1.0000
  C   C27       1.0  0.89616  0.09016  0.38374  1.0000
  C   C28       1.0  0.90985  0.10384  0.11626  1.0000
  C   C29       1.0  0.32215  0.83490  0.52382  1.0000
  C   C30       1.0  0.16509  0.67786  0.97617  1.0000
  C   C31       1.0  0.67785  0.16510  0.47618  1.0000
  C   C32       1.0  0.83491  0.32215  0.02383  1.0000
  C   C33       1.0  0.25253  0.65355  0.66593  1.0000
  C   C34       1.0  0.34647  0.74747  0.83406  1.0000
  C   C35       1.0  0.74747  0.34646  0.33407  1.0000
  C   C36       1.0  0.65354  0.25253  0.16593  1.0000
  C   C37       1.0  0.38891  0.57041  0.70943  1.0000
  C   C38       1.0  0.42957  0.61110  0.79058  1.0000
  C   C39       1.0  0.61110  0.42958  0.29058  1.0000
  C   C40       1.0  0.57042  0.38890  0.20942  1.0000
  C   C41       1.0  0.47655  0.44486  0.66937  1.0000
  C   C42       1.0  0.55513  0.52345  0.83064  1.0000
  C   C43       1.0  0.52345  0.55514  0.33063  1.0000
  C   C44       1.0  0.44486  0.47654  0.16937  1.0000
  C   C45       1.0  0.60184  0.35924  0.70915  1.0000
  C   C46       1.0  0.64075  0.39816  0.79084  1.0000
  C   C47       1.0  0.39816  0.64076  0.29084  1.0000
  C   C48       1.0  0.35924  0.60184  0.20915  1.0000
  N   N1        1.0  0.51667  0.96107  0.25364  1.0000
  N   N2        1.0  0.03893  0.48333  0.24636  1.0000
  N   N3        1.0  0.48332  0.03894  0.74636  1.0000
  N   N4        1.0  0.96107  0.51667  0.75365  1.0000
  N   N5        1.0  0.72636  0.80122  0.19635  1.0000
  N   N6        1.0  0.19878  0.27364  0.30364  1.0000
  N   N7        1.0  0.27363  0.19879  0.80364  1.0000
  N   N8        1.0  0.80122  0.72636  0.69635  1.0000
  N   N9        1.0  0.26223  0.97070  0.48400  1.0000
  N   N10       1.0  0.02930  0.73777  0.01600  1.0000
  N   N11       1.0  0.73776  0.02930  0.51600  1.0000
  N   N12       1.0  0.97071  0.26223  0.98400  1.0000
  N   N13       1.0  0.22859  0.79492  0.60485  1.0000
  N   N14       1.0  0.20508  0.77141  0.89515  1.0000
  N   N15       1.0  0.77140  0.20508  0.39516  1.0000
  N   N16       1.0  0.79492  0.22859  0.10485  1.0000
  O   O1        1.0  0.81313  0.60964  0.05222  1.0000
  O   O2        1.0  0.39037  0.18687  0.44779  1.0000
  O   O3        1.0  0.18687  0.39037  0.94778  1.0000
  O   O4        1.0  0.60963  0.81312  0.55222  1.0000
  O   O5        1.0  0.26771  0.02885  0.19445  1.0000
  O   O6        1.0  0.97115  0.73229  0.30556  1.0000
  O   O7        1.0  0.73228  0.97115  0.80556  1.0000
  O   O8        1.0  0.02885  0.26771  0.69446  1.0000
  O   O9        1.0  0.37387  0.89133  0.05132  1.0000
  O   O10       1.0  0.10866  0.62613  0.44869  1.0000
  O   O11       1.0  0.62613  0.10867  0.94869  1.0000
  O   O12       1.0  0.89133  0.37386  0.55132  1.0000
  O   O13       1.0  0.60520  0.70386  0.99696  1.0000
  O   O14       1.0  0.29615  0.39480  0.50305  1.0000
  O   O15       1.0  0.39480  0.29615  0.00305  1.0000
  O   O16       1.0  0.70385  0.60520  0.49696  1.0000
