data_image0
_chemical_formula_structural       Cd10H20C40N16O36
_chemical_formula_sum              "Cd10 H20 C40 N16 O36"
_cell_length_a       10.6464
_cell_length_b       10.9259
_cell_length_c       15.8369
_cell_angle_alpha    90
_cell_angle_beta     90
_cell_angle_gamma    97.9397

_space_group_name_H-M_alt    "P 1"
_space_group_IT_number       1

loop_
  _space_group_symop_operation_xyz
  'x, y, z'

loop_
  _atom_site_type_symbol
  _atom_site_label
  _atom_site_symmetry_multiplicity
  _atom_site_fract_x
  _atom_site_fract_y
  _atom_site_fract_z
  _atom_site_occupancy
  Cd  Cd1       1.0  0.83466  0.42897  0.45464  1.0000
  Cd  Cd2       1.0  0.66534  0.07103  0.95464  1.0000
  Cd  Cd3       1.0  0.16534  0.57103  0.54536  1.0000
  Cd  Cd4       1.0  0.33466  0.92897  0.04536  1.0000
  Cd  Cd5       1.0  0.00000  0.00000  0.50000  1.0000
  Cd  Cd6       1.0  0.50000  0.50000  0.00000  1.0000
  Cd  Cd7       1.0  0.57408  0.15654  0.54395  1.0000
  Cd  Cd8       1.0  0.92592  0.34346  0.04395  1.0000
  Cd  Cd9       1.0  0.42592  0.84346  0.45605  1.0000
  Cd  Cd10      1.0  0.07408  0.65654  0.95605  1.0000
  H   H1        1.0  0.53926  0.54996  0.41263  1.0000
  H   H2        1.0  0.96074  0.95004  0.91263  1.0000
  H   H3        1.0  0.46074  0.45004  0.58737  1.0000
  H   H4        1.0  0.03926  0.04996  0.08737  1.0000
  H   H5        1.0  0.94753  0.50386  0.23767  1.0000
  H   H6        1.0  0.55247  0.99614  0.73767  1.0000
  H   H7        1.0  0.05247  0.49614  0.76233  1.0000
  H   H8        1.0  0.44753  0.00386  0.26233  1.0000
  H   H9        1.0  0.67731  0.03899  0.26012  1.0000
  H   H10       1.0  0.82269  0.46101  0.76012  1.0000
  H   H11       1.0  0.32269  0.96101  0.73988  1.0000
  H   H12       1.0  0.17731  0.53899  0.23988  1.0000
  H   H13       1.0  0.96957  0.08270  0.67021  1.0000
  H   H14       1.0  0.53043  0.41730  0.17021  1.0000
  H   H15       1.0  0.03043  0.91730  0.32979  1.0000
  H   H16       1.0  0.46957  0.58270  0.82979  1.0000
  H   H17       1.0  0.11444  0.12873  0.65934  1.0000
  H   H18       1.0  0.38556  0.37127  0.15934  1.0000
  H   H19       1.0  0.88556  0.87127  0.34066  1.0000
  H   H20       1.0  0.61444  0.62873  0.84066  1.0000
  C   C1        1.0  0.61250  0.61847  0.43892  1.0000
  C   C2        1.0  0.88750  0.88152  0.93892  1.0000
  C   C3        1.0  0.38750  0.38153  0.56108  1.0000
  C   C4        1.0  0.11250  0.11848  0.06108  1.0000
  C   C5        1.0  0.79500  0.70738  0.48539  1.0000
  C   C6        1.0  0.70500  0.79262  0.98539  1.0000
  C   C7        1.0  0.20500  0.29262  0.51461  1.0000
  C   C8        1.0  0.29500  0.20738  0.01461  1.0000
  C   C9        1.0  0.70511  0.79011  0.49408  1.0000
  C   C10       1.0  0.79488  0.70989  0.99408  1.0000
  C   C11       1.0  0.29488  0.20989  0.50591  1.0000
  C   C12       1.0  0.20511  0.29011  0.00592  1.0000
  C   C13       1.0  0.93142  0.71247  0.50662  1.0000
  C   C14       1.0  0.56858  0.78753  0.00662  1.0000
  C   C15       1.0  0.06858  0.28753  0.49338  1.0000
  C   C16       1.0  0.43142  0.21247  0.99338  1.0000
  C   C17       1.0  0.70457  0.91586  0.53006  1.0000
  C   C18       1.0  0.79543  0.58414  0.03006  1.0000
  C   C19       1.0  0.29543  0.08414  0.46994  1.0000
  C   C20       1.0  0.20457  0.41586  0.96994  1.0000
  C   C21       1.0  0.89327  0.41286  0.24465  1.0000
  C   C22       1.0  0.60673  0.08714  0.74465  1.0000
  C   C23       1.0  0.10673  0.58714  0.75535  1.0000
  C   C24       1.0  0.39327  0.91286  0.25535  1.0000
  C   C25       1.0  0.78208  0.25138  0.29951  1.0000
  C   C26       1.0  0.71792  0.24862  0.79951  1.0000
  C   C27       1.0  0.21792  0.74862  0.70049  1.0000
  C   C28       1.0  0.28208  0.75138  0.20049  1.0000
  C   C29       1.0  0.80087  0.22898  0.21366  1.0000
  C   C30       1.0  0.69913  0.27102  0.71366  1.0000
  C   C31       1.0  0.19913  0.77102  0.78634  1.0000
  C   C32       1.0  0.30087  0.72898  0.28634  1.0000
  C   C33       1.0  0.71050  0.17452  0.36437  1.0000
  C   C34       1.0  0.78950  0.32548  0.86438  1.0000
  C   C35       1.0  0.28950  0.82548  0.63563  1.0000
  C   C36       1.0  0.21050  0.67452  0.13563  1.0000
  C   C37       1.0  0.75584  0.12333  0.15940  1.0000
  C   C38       1.0  0.74416  0.37666  0.65940  1.0000
  C   C39       1.0  0.24416  0.87667  0.84061  1.0000
  C   C40       1.0  0.25584  0.62333  0.34060  1.0000
  N   N1        1.0  0.73317  0.59955  0.45091  1.0000
  N   N2        1.0  0.76683  0.90045  0.95091  1.0000
  N   N3        1.0  0.26683  0.40045  0.54909  1.0000
  N   N4        1.0  0.23317  0.09955  0.04909  1.0000
  N   N5        1.0  0.59131  0.73122  0.46367  1.0000
  N   N6        1.0  0.90869  0.76877  0.96367  1.0000
  N   N7        1.0  0.40869  0.26878  0.53633  1.0000
  N   N8        1.0  0.09131  0.23122  0.03633  1.0000
  N   N9        1.0  0.84096  0.36784  0.31771  1.0000
  N   N10       1.0  0.65904  0.13216  0.81771  1.0000
  N   N11       1.0  0.15904  0.63216  0.68229  1.0000
  N   N12       1.0  0.34096  0.86784  0.18229  1.0000
  N   N13       1.0  0.87124  0.33262  0.18050  1.0000
  N   N14       1.0  0.62876  0.16738  0.68050  1.0000
  N   N15       1.0  0.12876  0.66738  0.81950  1.0000
  N   N16       1.0  0.37124  0.83262  0.31950  1.0000
  O   O1        1.0  0.99458  0.80442  0.54229  1.0000
  O   O2        1.0  0.50542  0.69558  0.04229  1.0000
  O   O3        1.0  0.00542  0.19558  0.45771  1.0000
  O   O4        1.0  0.49458  0.30442  0.95771  1.0000
  O   O5        1.0  0.98122  0.61538  0.48652  1.0000
  O   O6        1.0  0.51878  0.88462  0.98652  1.0000
  O   O7        1.0  0.01878  0.38462  0.51348  1.0000
  O   O8        1.0  0.48122  0.11538  0.01348  1.0000
  O   O9        1.0  0.80406  0.98772  0.54985  1.0000
  O   O10       1.0  0.69594  0.51228  0.04985  1.0000
  O   O11       1.0  0.19594  0.01228  0.45015  1.0000
  O   O12       1.0  0.30406  0.48772  0.95015  1.0000
  O   O13       1.0  0.59405  0.94780  0.54068  1.0000
  O   O14       1.0  0.90595  0.55221  0.04068  1.0000
  O   O15       1.0  0.40595  0.05221  0.45932  1.0000
  O   O16       1.0  0.09405  0.44780  0.95932  1.0000
  O   O17       1.0  0.70174  0.22640  0.43634  1.0000
  O   O18       1.0  0.79826  0.27360  0.93634  1.0000
  O   O19       1.0  0.29826  0.77360  0.56366  1.0000
  O   O20       1.0  0.20174  0.72640  0.06366  1.0000
  O   O21       1.0  0.66056  0.06497  0.34644  1.0000
  O   O22       1.0  0.83944  0.43503  0.84644  1.0000
  O   O23       1.0  0.33944  0.93503  0.65356  1.0000
  O   O24       1.0  0.16056  0.56497  0.15356  1.0000
  O   O25       1.0  0.68867  0.02576  0.19310  1.0000
  O   O26       1.0  0.81133  0.47424  0.69310  1.0000
  O   O27       1.0  0.31133  0.97424  0.80690  1.0000
  O   O28       1.0  0.18866  0.52576  0.30690  1.0000
  O   O29       1.0  0.78194  0.12870  0.08202  1.0000
  O   O30       1.0  0.71806  0.37130  0.58202  1.0000
  O   O31       1.0  0.21806  0.87130  0.91798  1.0000
  O   O32       1.0  0.28194  0.62870  0.41798  1.0000
  O   O33       1.0  0.04836  0.05987  0.64783  1.0000
  O   O34       1.0  0.45164  0.44013  0.14783  1.0000
  O   O35       1.0  0.95164  0.94013  0.35217  1.0000
  O   O36       1.0  0.54836  0.55987  0.85217  1.0000
