data_image0
_chemical_formula_structural       Cd4H36C48N16O16
_chemical_formula_sum              "Cd4 H36 C48 N16 O16"
_cell_length_a       10.4013
_cell_length_b       10.6649
_cell_length_c       13.3484
_cell_angle_alpha    89.4035
_cell_angle_beta     83.5627
_cell_angle_gamma    69.1781

_space_group_name_H-M_alt    "P 1"
_space_group_IT_number       1

loop_
  _space_group_symop_operation_xyz
  'x, y, z'

loop_
  _atom_site_type_symbol
  _atom_site_label
  _atom_site_symmetry_multiplicity
  _atom_site_fract_x
  _atom_site_fract_y
  _atom_site_fract_z
  _atom_site_occupancy
  Cd  Cd1       1.0  0.61906  0.49357  0.61150  1.0000
  Cd  Cd2       1.0  0.38094  0.50643  0.38850  1.0000
  Cd  Cd3       1.0  0.40195  0.07337  0.87853  1.0000
  Cd  Cd4       1.0  0.59805  0.92663  0.12147  1.0000
  H   H1        1.0  0.59603  0.72298  0.82668  1.0000
  H   H2        1.0  0.40397  0.27702  0.17332  1.0000
  H   H3        1.0  0.89576  0.25721  0.47789  1.0000
  H   H4        1.0  0.10424  0.74279  0.52211  1.0000
  H   H5        1.0  0.99870  0.56179  0.32076  1.0000
  H   H6        1.0  0.00130  0.43821  0.67924  1.0000
  H   H7        1.0  0.76480  0.67966  0.45826  1.0000
  H   H8        1.0  0.23520  0.32034  0.54174  1.0000
  H   H9        1.0  0.18301  0.24262  0.37303  1.0000
  H   H10       1.0  0.81699  0.75738  0.62697  1.0000
  H   H11       1.0  0.13240  0.32715  0.26129  1.0000
  H   H12       1.0  0.86760  0.67285  0.73871  1.0000
  H   H13       1.0  0.86128  0.07127  0.14367  1.0000
  H   H14       1.0  0.13872  0.92873  0.85633  1.0000
  H   H15       1.0  0.95887  0.85475  0.22973  1.0000
  H   H16       1.0  0.04113  0.14525  0.77027  1.0000
  H   H17       1.0  0.12507  0.83451  0.35654  1.0000
  H   H18       1.0  0.87493  0.16549  0.64346  1.0000
  H   H19       1.0  0.18562  0.02965  0.39775  1.0000
  H   H20       1.0  0.81438  0.97035  0.60225  1.0000
  H   H21       1.0  0.41353  0.30722  0.68558  1.0000
  H   H22       1.0  0.58647  0.69278  0.31442  1.0000
  H   H23       1.0  0.09575  0.09680  0.01936  1.0000
  H   H24       1.0  0.90425  0.90320  0.98064  1.0000
  H   H25       1.0  0.27542  0.39339  0.97061  1.0000
  H   H26       1.0  0.72458  0.60661  0.02939  1.0000
  H   H27       1.0  0.04730  0.49055  0.11501  1.0000
  H   H28       1.0  0.95270  0.50945  0.88499  1.0000
  H   H29       1.0  0.83236  0.29566  0.12067  1.0000
  H   H30       1.0  0.16764  0.70434  0.87933  1.0000
  H   H31       1.0  0.88631  0.38928  0.20547  1.0000
  H   H32       1.0  0.11369  0.61072  0.79453  1.0000
  H   H33       1.0  0.28728  0.97840  0.52849  1.0000
  H   H34       1.0  0.71272  0.02160  0.47151  1.0000
  H   H35       1.0  0.79853  0.26576  0.94449  1.0000
  H   H36       1.0  0.20147  0.73424  0.05551  1.0000
  C   C1        1.0  0.53602  0.77098  0.76622  1.0000
  C   C2        1.0  0.46398  0.22902  0.23378  1.0000
  C   C3        1.0  0.39996  0.92358  0.67836  1.0000
  C   C4        1.0  0.60004  0.07642  0.32164  1.0000
  C   C5        1.0  0.44470  0.80016  0.62548  1.0000
  C   C6        1.0  0.55530  0.19984  0.37452  1.0000
  C   C7        1.0  0.30901  0.05896  0.65465  1.0000
  C   C8        1.0  0.69099  0.94104  0.34535  1.0000
  C   C9        1.0  0.40660  0.76072  0.53057  1.0000
  C   C10       1.0  0.59340  0.23928  0.46943  1.0000
  C   C11       1.0  0.89046  0.35702  0.45620  1.0000
  C   C12       1.0  0.10954  0.64298  0.54380  1.0000
  C   C13       1.0  0.94053  0.51852  0.37388  1.0000
  C   C14       1.0  0.05947  0.48148  0.62612  1.0000
  C   C15       1.0  0.82627  0.57436  0.44334  1.0000
  C   C16       1.0  0.17373  0.42564  0.55666  1.0000
  C   C17       1.0  0.09794  0.27758  0.32568  1.0000
  C   C18       1.0  0.90206  0.72242  0.67432  1.0000
  C   C19       1.0  0.05961  0.16068  0.29507  1.0000
  C   C20       1.0  0.94039  0.83932  0.70493  1.0000
  C   C21       1.0  0.96788  0.17176  0.22244  1.0000
  C   C22       1.0  0.03212  0.82824  0.77756  1.0000
  C   C23       1.0  0.93210  0.06132  0.20029  1.0000
  C   C24       1.0  0.06790  0.93868  0.79971  1.0000
  C   C25       1.0  0.98764  0.93979  0.24810  1.0000
  C   C26       1.0  0.01237  0.06021  0.75190  1.0000
  C   C27       1.0  0.07943  0.92853  0.31897  1.0000
  C   C28       1.0  0.92057  0.07147  0.68103  1.0000
  C   C29       1.0  0.11420  0.03884  0.34232  1.0000
  C   C30       1.0  0.88580  0.96116  0.65768  1.0000
  C   C31       1.0  0.48763  0.29889  0.73863  1.0000
  C   C32       1.0  0.51237  0.70111  0.26137  1.0000
  C   C33       1.0  0.60460  0.23558  0.86663  1.0000
  C   C34       1.0  0.39540  0.76442  0.13337  1.0000
  C   C35       1.0  0.65292  0.32578  0.81157  1.0000
  C   C36       1.0  0.34708  0.67422  0.18843  1.0000
  C   C37       1.0  0.64915  0.15714  0.95656  1.0000
  C   C38       1.0  0.35085  0.84286  0.04344  1.0000
  C   C39       1.0  0.76504  0.37523  0.82352  1.0000
  C   C40       1.0  0.23496  0.62477  0.17648  1.0000
  C   C41       1.0  0.11340  0.19082  0.02306  1.0000
  C   C42       1.0  0.88660  0.80918  0.97694  1.0000
  C   C43       1.0  0.20366  0.34631  0.00172  1.0000
  C   C44       1.0  0.79634  0.65369  0.99828  1.0000
  C   C45       1.0  0.09071  0.39561  0.07323  1.0000
  C   C46       1.0  0.90929  0.60439  0.92677  1.0000
  C   C47       1.0  0.91934  0.29557  0.16027  1.0000
  C   C48       1.0  0.08066  0.70443  0.83973  1.0000
  N   N1        1.0  0.53096  0.70556  0.68193  1.0000
  N   N2        1.0  0.46904  0.29444  0.31807  1.0000
  N   N3        1.0  0.45848  0.90248  0.76729  1.0000
  N   N4        1.0  0.54152  0.09752  0.23271  1.0000
  N   N5        1.0  0.79663  0.47250  0.49434  1.0000
  N   N6        1.0  0.20337  0.52750  0.50566  1.0000
  N   N7        1.0  0.97938  0.38111  0.38304  1.0000
  N   N8        1.0  0.02062  0.61889  0.61696  1.0000
  N   N9        1.0  0.57737  0.36406  0.73121  1.0000
  N   N10       1.0  0.42263  0.63594  0.26879  1.0000
  N   N11       1.0  0.50059  0.22082  0.81926  1.0000
  N   N12       1.0  0.49941  0.77918  0.18074  1.0000
  N   N13       1.0  0.21624  0.21861  0.97116  1.0000
  N   N14       1.0  0.78376  0.78139  0.02884  1.0000
  N   N15       1.0  0.03466  0.29621  0.08562  1.0000
  N   N16       1.0  0.96534  0.70379  0.91438  1.0000
  O   O1        1.0  0.27997  0.15507  0.71567  1.0000
  O   O2        1.0  0.72003  0.84493  0.28433  1.0000
  O   O3        1.0  0.26057  0.07428  0.56604  1.0000
  O   O4        1.0  0.73943  0.92572  0.43396  1.0000
  O   O5        1.0  0.32138  0.84963  0.48210  1.0000
  O   O6        1.0  0.67862  0.15036  0.51790  1.0000
  O   O7        1.0  0.46011  0.63664  0.50334  1.0000
  O   O8        1.0  0.53989  0.36336  0.49666  1.0000
  O   O9        1.0  0.58402  0.07948  0.98634  1.0000
  O   O10       1.0  0.41598  0.92053  0.01366  1.0000
  O   O11       1.0  0.74906  0.16931  0.99817  1.0000
  O   O12       1.0  0.25094  0.83069  0.00183  1.0000
  O   O13       1.0  0.83299  0.33629  0.90336  1.0000
  O   O14       1.0  0.16701  0.66371  0.09664  1.0000
  O   O15       1.0  0.79547  0.45038  0.76065  1.0000
  O   O16       1.0  0.20453  0.54963  0.23935  1.0000
