data_image0
_chemical_formula_structural       Ag4H64C52S4N12O12
_chemical_formula_sum              "Ag4 H64 C52 S4 N12 O12"
_cell_length_a       8.77914
_cell_length_b       13.8889
_cell_length_c       13.7724
_cell_angle_alpha    109.529
_cell_angle_beta     90.0193
_cell_angle_gamma    108.398

_space_group_name_H-M_alt    "P 1"
_space_group_IT_number       1

loop_
  _space_group_symop_operation_xyz
  'x, y, z'

loop_
  _atom_site_type_symbol
  _atom_site_label
  _atom_site_symmetry_multiplicity
  _atom_site_fract_x
  _atom_site_fract_y
  _atom_site_fract_z
  _atom_site_occupancy
  Ag  Ag1       1.0  0.18663  0.73965  0.93814  1.0000
  Ag  Ag2       1.0  0.44672  0.26031  0.56178  1.0000
  Ag  Ag3       1.0  0.81339  0.26036  0.06186  1.0000
  Ag  Ag4       1.0  0.55327  0.73969  0.43821  1.0000
  H   H1        1.0  0.55351  0.83005  0.94123  1.0000
  H   H2        1.0  0.72333  0.17000  0.55860  1.0000
  H   H3        1.0  0.44650  0.16997  0.05877  1.0000
  H   H4        1.0  0.27665  0.82999  0.44141  1.0000
  H   H5        1.0  0.15425  0.39106  0.02523  1.0000
  H   H6        1.0  0.76307  0.60886  0.47474  1.0000
  H   H7        1.0  0.84574  0.60894  0.97476  1.0000
  H   H8        1.0  0.23693  0.39114  0.52526  1.0000
  H   H9        1.0  0.38390  0.65734  0.99534  1.0000
  H   H10       1.0  0.72660  0.34265  0.50499  1.0000
  H   H11       1.0  0.61610  0.34266  0.00465  1.0000
  H   H12       1.0  0.27341  0.65735  0.49502  1.0000
  H   H13       1.0  0.36013  0.52486  0.90532  1.0000
  H   H14       1.0  0.83520  0.47515  0.59491  1.0000
  H   H15       1.0  0.63987  0.47514  0.09467  1.0000
  H   H16       1.0  0.16481  0.52486  0.40510  1.0000
  H   H17       1.0  0.40664  0.55476  0.03968  1.0000
  H   H18       1.0  0.85193  0.44508  0.46056  1.0000
  H   H19       1.0  0.59335  0.44523  0.96031  1.0000
  H   H20       1.0  0.14807  0.55491  0.53943  1.0000
  H   H21       1.0  0.91009  0.07431  0.03136  1.0000
  H   H22       1.0  0.83570  0.92547  0.46869  1.0000
  H   H23       1.0  0.08992  0.92569  0.96863  1.0000
  H   H24       1.0  0.16426  0.07451  0.53131  1.0000
  H   H25       1.0  0.83762  0.92901  0.96604  1.0000
  H   H26       1.0  0.90867  0.07080  0.53383  1.0000
  H   H27       1.0  0.16239  0.07099  0.03396  1.0000
  H   H28       1.0  0.09132  0.92918  0.46616  1.0000
  H   H29       1.0  0.85322  0.01616  0.89544  1.0000
  H   H30       1.0  0.83715  0.98384  0.60460  1.0000
  H   H31       1.0  0.14679  0.98385  0.10456  1.0000
  H   H32       1.0  0.16284  0.01615  0.39541  1.0000
  H   H33       1.0  0.14860  0.66659  0.72243  1.0000
  H   H34       1.0  0.48198  0.33341  0.77760  1.0000
  H   H35       1.0  0.85141  0.33341  0.27757  1.0000
  H   H36       1.0  0.51802  0.66659  0.22239  1.0000
  H   H37       1.0  0.21684  0.57561  0.75036  1.0000
  H   H38       1.0  0.64106  0.42436  0.74968  1.0000
  H   H39       1.0  0.78317  0.42439  0.24964  1.0000
  H   H40       1.0  0.35894  0.57563  0.25032  1.0000
  H   H41       1.0  0.84346  0.85127  0.70489  1.0000
  H   H42       1.0  0.99259  0.14900  0.79554  1.0000
  H   H43       1.0  0.15656  0.14875  0.29512  1.0000
  H   H44       1.0  0.00741  0.85099  0.20446  1.0000
  H   H45       1.0  0.62311  0.92198  0.68015  1.0000
  H   H46       1.0  0.70165  0.07826  0.82028  1.0000
  H   H47       1.0  0.37690  0.07804  0.31986  1.0000
  H   H48       1.0  0.29834  0.92173  0.17972  1.0000
  H   H49       1.0  0.49380  0.59356  0.77521  1.0000
  H   H50       1.0  0.89997  0.40641  0.72482  1.0000
  H   H51       1.0  0.50621  0.40644  0.22479  1.0000
  H   H52       1.0  0.10002  0.59358  0.27518  1.0000
  H   H53       1.0  0.35554  0.91829  0.68111  1.0000
  H   H54       1.0  0.43758  0.08177  0.81904  1.0000
  H   H55       1.0  0.64447  0.08172  0.31890  1.0000
  H   H56       1.0  0.56242  0.91823  0.18095  1.0000
  H   H57       1.0  0.24953  0.86803  0.77388  1.0000
  H   H58       1.0  0.38174  0.13204  0.72623  1.0000
  H   H59       1.0  0.75048  0.13197  0.22612  1.0000
  H   H60       1.0  0.61826  0.86796  0.27377  1.0000
  H   H61       1.0  0.20585  0.78718  0.64241  1.0000
  H   H62       1.0  0.41900  0.21292  0.85770  1.0000
  H   H63       1.0  0.79416  0.21283  0.35760  1.0000
  H   H64       1.0  0.58100  0.78708  0.14230  1.0000
  C   C1        1.0  0.52912  0.90638  0.96785  1.0000
  C   C2        1.0  0.62273  0.09362  0.53203  1.0000
  C   C3        1.0  0.47089  0.09362  0.03215  1.0000
  C   C4        1.0  0.37725  0.90636  0.46797  1.0000
  C   C5        1.0  0.65549  0.00381  0.98598  1.0000
  C   C6        1.0  0.65173  0.99620  0.51403  1.0000
  C   C7        1.0  0.34452  0.99620  0.01401  1.0000
  C   C8        1.0  0.34824  0.00379  0.48597  1.0000
  C   C9        1.0  0.16219  0.53478  0.99271  1.0000
  C   C10       1.0  0.62744  0.46519  0.50734  1.0000
  C   C11       1.0  0.83782  0.46522  0.00728  1.0000
  C   C12       1.0  0.37257  0.53480  0.49266  1.0000
  C   C13       1.0  0.08572  0.44012  0.01347  1.0000
  C   C14       1.0  0.64557  0.55982  0.48653  1.0000
  C   C15       1.0  0.91428  0.55988  0.98652  1.0000
  C   C16       1.0  0.35443  0.44019  0.51349  1.0000
  C   C17       1.0  0.33867  0.57035  0.98321  1.0000
  C   C18       1.0  0.76835  0.42961  0.51701  1.0000
  C   C19       1.0  0.66133  0.42965  0.01678  1.0000
  C   C20       1.0  0.23166  0.57039  0.48300  1.0000
  C   C21       1.0  0.82363  0.00578  0.96975  1.0000
  C   C22       1.0  0.81790  0.99412  0.53022  1.0000
  C   C23       1.0  0.17638  0.99423  0.03024  1.0000
  C   C24       1.0  0.18208  0.00586  0.46978  1.0000
  C   C25       1.0  0.68090  0.71997  0.74446  1.0000
  C   C26       1.0  0.96096  0.28008  0.75567  1.0000
  C   C27       1.0  0.31912  0.28004  0.25555  1.0000
  C   C28       1.0  0.03904  0.71992  0.24432  1.0000
  C   C29       1.0  0.71956  0.81176  0.71596  1.0000
  C   C30       1.0  0.90803  0.18838  0.78431  1.0000
  C   C31       1.0  0.28046  0.18825  0.28404  1.0000
  C   C32       1.0  0.09196  0.81162  0.21569  1.0000
  C   C33       1.0  0.59570  0.85006  0.70150  1.0000
  C   C34       1.0  0.74599  0.15006  0.79875  1.0000
  C   C35       1.0  0.40431  0.14995  0.29851  1.0000
  C   C36       1.0  0.25399  0.84994  0.20124  1.0000
  C   C37       1.0  0.43540  0.80034  0.71457  1.0000
  C   C38       1.0  0.63525  0.19967  0.78552  1.0000
  C   C39       1.0  0.56460  0.19966  0.28543  1.0000
  C   C40       1.0  0.36473  0.80033  0.21447  1.0000
  C   C41       1.0  0.39792  0.70592  0.74075  1.0000
  C   C42       1.0  0.69203  0.29408  0.75934  1.0000
  C   C43       1.0  0.60209  0.29408  0.25925  1.0000
  C   C44       1.0  0.30796  0.70592  0.24066  1.0000
  C   C45       1.0  0.52228  0.66648  0.75552  1.0000
  C   C46       1.0  0.85571  0.33348  0.74452  1.0000
  C   C47       1.0  0.47773  0.33351  0.24447  1.0000
  C   C48       1.0  0.14429  0.66652  0.25547  1.0000
  C   C49       1.0  0.30602  0.84590  0.70193  1.0000
  C   C50       1.0  0.46042  0.15415  0.79818  1.0000
  C   C51       1.0  0.69399  0.15411  0.29808  1.0000
  C   C52       1.0  0.53957  0.84585  0.20182  1.0000
  S   S1        1.0  0.83944  0.67496  0.77214  1.0000
  S   S2        1.0  0.16441  0.32517  0.72803  1.0000
  S   S3        1.0  0.16056  0.32505  0.22786  1.0000
  S   S4        1.0  0.83559  0.67482  0.27197  1.0000
  N   N1        1.0  0.24124  0.65526  0.75780  1.0000
  N   N2        1.0  0.58592  0.34472  0.74226  1.0000
  N   N3        1.0  0.75876  0.34474  0.24220  1.0000
  N   N4        1.0  0.41408  0.65528  0.25775  1.0000
  N   N5        1.0  0.07332  0.59396  0.97919  1.0000
  N   N6        1.0  0.47944  0.40609  0.52084  1.0000
  N   N7        1.0  0.92668  0.40604  0.02081  1.0000
  N   N8        1.0  0.52056  0.59391  0.47916  1.0000
  N   N9        1.0  0.37564  0.90168  0.98144  1.0000
  N   N10       1.0  0.47389  0.09825  0.51841  1.0000
  N   N11       1.0  0.62437  0.09832  0.01856  1.0000
  N   N12       1.0  0.52609  0.90174  0.48160  1.0000
  O   O1        1.0  0.92479  0.75560  0.87385  1.0000
  O   O2        1.0  0.16915  0.24465  0.62626  1.0000
  O   O3        1.0  0.07522  0.24440  0.12615  1.0000
  O   O4        1.0  0.83084  0.75535  0.37374  1.0000
  O   O5        1.0  0.76157  0.56663  0.77722  1.0000
  O   O6        1.0  0.19462  0.43352  0.72303  1.0000
  O   O7        1.0  0.23845  0.43339  0.22278  1.0000
  O   O8        1.0  0.80539  0.56647  0.27698  1.0000
  O   O9        1.0  0.94153  0.67521  0.68740  1.0000
  O   O10       1.0  0.26638  0.32487  0.81272  1.0000
  O   O11       1.0  0.05847  0.32478  0.31260  1.0000
  O   O12       1.0  0.73361  0.67511  0.18727  1.0000
