data_image0
_chemical_formula_structural       Ag4H56C48S4N12O12
_chemical_formula_sum              "Ag4 H56 C48 S4 N12 O12"
_cell_length_a       7.75983
_cell_length_b       12.0348
_cell_length_c       14.7506
_cell_angle_alpha    93.8491
_cell_angle_beta     90.0717
_cell_angle_gamma    108.772

_space_group_name_H-M_alt    "P 1"
_space_group_IT_number       1

loop_
  _space_group_symop_operation_xyz
  'x, y, z'

loop_
  _atom_site_type_symbol
  _atom_site_label
  _atom_site_symmetry_multiplicity
  _atom_site_fract_x
  _atom_site_fract_y
  _atom_site_fract_z
  _atom_site_occupancy
  Ag  Ag1       1.0  0.64879  0.71350  0.33427  1.0000
  Ag  Ag2       1.0  0.93444  0.28589  0.16570  1.0000
  Ag  Ag3       1.0  0.35121  0.28650  0.66573  1.0000
  Ag  Ag4       1.0  0.06556  0.71410  0.83430  1.0000
  H   H1        1.0  0.02852  0.90683  0.29154  1.0000
  H   H2        1.0  0.12122  0.09240  0.20923  1.0000
  H   H3        1.0  0.97146  0.09316  0.70845  1.0000
  H   H4        1.0  0.87877  0.90759  0.79076  1.0000
  H   H5        1.0  0.49067  0.90564  0.29062  1.0000
  H   H6        1.0  0.58439  0.09336  0.20897  1.0000
  H   H7        1.0  0.50932  0.09436  0.70938  1.0000
  H   H8        1.0  0.41560  0.90664  0.79104  1.0000
  H   H9        1.0  0.32665  0.62968  0.46837  1.0000
  H   H10       1.0  0.69679  0.37092  0.03132  1.0000
  H   H11       1.0  0.67335  0.37032  0.53163  1.0000
  H   H12       1.0  0.30324  0.62907  0.96869  1.0000
  H   H13       1.0  0.77892  0.52341  0.41690  1.0000
  H   H14       1.0  0.25519  0.47541  0.08302  1.0000
  H   H15       1.0  0.22107  0.47659  0.58309  1.0000
  H   H16       1.0  0.74483  0.52458  0.91699  1.0000
  H   H17       1.0  0.19098  0.98605  0.96330  1.0000
  H   H18       1.0  0.20431  0.01338  0.53693  1.0000
  H   H19       1.0  0.80901  0.01394  0.03670  1.0000
  H   H20       1.0  0.79570  0.98663  0.46307  1.0000
  H   H21       1.0  0.35605  0.91407  0.97284  1.0000
  H   H22       1.0  0.44131  0.08510  0.52792  1.0000
  H   H23       1.0  0.64395  0.08592  0.02715  1.0000
  H   H24       1.0  0.55869  0.91491  0.47207  1.0000
  H   H25       1.0  0.34668  0.02449  0.05716  1.0000
  H   H26       1.0  0.32190  0.97465  0.44348  1.0000
  H   H27       1.0  0.65332  0.97551  0.94283  1.0000
  H   H28       1.0  0.67810  0.02536  0.55652  1.0000
  H   H29       1.0  0.33847  0.84211  0.15513  1.0000
  H   H30       1.0  0.49610  0.15687  0.34524  1.0000
  H   H31       1.0  0.66153  0.15788  0.84487  1.0000
  H   H32       1.0  0.50390  0.84314  0.65475  1.0000
  H   H33       1.0  0.81836  0.55752  0.25390  1.0000
  H   H34       1.0  0.26041  0.44174  0.24596  1.0000
  H   H35       1.0  0.18163  0.44247  0.74610  1.0000
  H   H36       1.0  0.73959  0.55826  0.75404  1.0000
  H   H37       1.0  0.64504  0.55153  0.18319  1.0000
  H   H38       1.0  0.09336  0.44788  0.31660  1.0000
  H   H39       1.0  0.35495  0.44848  0.81681  1.0000
  H   H40       1.0  0.90664  0.55213  0.68340  1.0000
  H   H41       1.0  0.53924  0.70002  0.12747  1.0000
  H   H42       1.0  0.83936  0.29973  0.37250  1.0000
  H   H43       1.0  0.46076  0.29998  0.87252  1.0000
  H   H44       1.0  0.16064  0.70027  0.62750  1.0000
  H   H45       1.0  0.57407  0.60048  0.04162  1.0000
  H   H46       1.0  0.97443  0.39952  0.45809  1.0000
  H   H47       1.0  0.42594  0.39952  0.95838  1.0000
  H   H48       1.0  0.02557  0.60049  0.54192  1.0000
  H   H49       1.0  0.59509  0.74553  0.01480  1.0000
  H   H50       1.0  0.85062  0.25467  0.48530  1.0000
  H   H51       1.0  0.40491  0.25447  0.98520  1.0000
  H   H52       1.0  0.14939  0.74534  0.51470  1.0000
  H   H53       1.0  0.89290  0.85260  0.98674  1.0000
  H   H54       1.0  0.04066  0.14711  0.51329  1.0000
  H   H55       1.0  0.10710  0.14739  0.01326  1.0000
  H   H56       1.0  0.95935  0.85290  0.48671  1.0000
  C   C1        1.0  0.92826  0.94762  0.27255  1.0000
  C   C2        1.0  0.98015  0.05158  0.22792  1.0000
  C   C3        1.0  0.07172  0.05237  0.72745  1.0000
  C   C4        1.0  0.01984  0.94841  0.77208  1.0000
  C   C5        1.0  0.63164  0.94756  0.27173  1.0000
  C   C6        1.0  0.68353  0.05147  0.22806  1.0000
  C   C7        1.0  0.36834  0.05243  0.72828  1.0000
  C   C8        1.0  0.31646  0.94853  0.77194  1.0000
  C   C9        1.0  0.40438  0.57176  0.48270  1.0000
  C   C10       1.0  0.83256  0.42856  0.01713  1.0000
  C   C11       1.0  0.59562  0.42824  0.51729  1.0000
  C   C12       1.0  0.16746  0.57143  0.98288  1.0000
  C   C13       1.0  0.65412  0.51270  0.45424  1.0000
  C   C14       1.0  0.14123  0.48663  0.04571  1.0000
  C   C15       1.0  0.34588  0.48730  0.54575  1.0000
  C   C16       1.0  0.85880  0.51337  0.95430  1.0000
  C   C17       1.0  0.26353  0.95075  0.01162  1.0000
  C   C18       1.0  0.31238  0.04851  0.48883  1.0000
  C   C19       1.0  0.73647  0.04924  0.98838  1.0000
  C   C20       1.0  0.68762  0.95150  0.51117  1.0000
  C   C21       1.0  0.07367  0.72794  0.18803  1.0000
  C   C22       1.0  0.34556  0.27125  0.31210  1.0000
  C   C23       1.0  0.92633  0.27206  0.81197  1.0000
  C   C24       1.0  0.65444  0.72876  0.68789  1.0000
  C   C25       1.0  0.19375  0.81209  0.13689  1.0000
  C   C26       1.0  0.38148  0.18702  0.36335  1.0000
  C   C27       1.0  0.80625  0.18790  0.86311  1.0000
  C   C28       1.0  0.61852  0.81299  0.63665  1.0000
  C   C29       1.0  0.88562  0.68597  0.16565  1.0000
  C   C30       1.0  0.19957  0.31339  0.33430  1.0000
  C   C31       1.0  0.11438  0.31402  0.83435  1.0000
  C   C32       1.0  0.80043  0.68662  0.66569  1.0000
  C   C33       1.0  0.62214  0.69351  0.06803  1.0000
  C   C34       1.0  0.92918  0.30641  0.43191  1.0000
  C   C35       1.0  0.37786  0.30648  0.93197  1.0000
  C   C36       1.0  0.07082  0.69360  0.56809  1.0000
  C   C37       1.0  0.13261  0.85892  0.06427  1.0000
  C   C38       1.0  0.27365  0.14040  0.43593  1.0000
  C   C39       1.0  0.86739  0.14107  0.93572  1.0000
  C   C40       1.0  0.72636  0.85961  0.56407  1.0000
  C   C41       1.0  0.82172  0.73337  0.09205  1.0000
  C   C42       1.0  0.08856  0.26625  0.40793  1.0000
  C   C43       1.0  0.17827  0.26663  0.90796  1.0000
  C   C44       1.0  0.91145  0.73376  0.59207  1.0000
  C   C45       1.0  0.94541  0.81777  0.04326  1.0000
  C   C46       1.0  0.12787  0.18184  0.45680  1.0000
  C   C47       1.0  0.05459  0.18223  0.95674  1.0000
  C   C48       1.0  0.87213  0.81818  0.54320  1.0000
  S   S1        1.0  0.17435  0.69178  0.28659  1.0000
  S   S2        1.0  0.48233  0.30753  0.21370  1.0000
  S   S3        1.0  0.82564  0.30822  0.71341  1.0000
  S   S4        1.0  0.51767  0.69248  0.78629  1.0000
  N   N1        1.0  0.55849  0.58471  0.43693  1.0000
  N   N2        1.0  0.97348  0.41492  0.06288  1.0000
  N   N3        1.0  0.44151  0.41529  0.56306  1.0000
  N   N4        1.0  0.02655  0.58508  0.93713  1.0000
  N   N5        1.0  0.75378  0.89479  0.29402  1.0000
  N   N6        1.0  0.85841  0.10435  0.20611  1.0000
  N   N7        1.0  0.24621  0.10520  0.70598  1.0000
  N   N8        1.0  0.14158  0.89564  0.79390  1.0000
  N   N9        1.0  0.76011  0.60558  0.21695  1.0000
  N   N10       1.0  0.15422  0.39373  0.28287  1.0000
  N   N11       1.0  0.23989  0.39442  0.78305  1.0000
  N   N12       1.0  0.84578  0.60628  0.71713  1.0000
  O   O1        1.0  0.03641  0.59364  0.32743  1.0000
  O   O2        1.0  0.44250  0.40586  0.17298  1.0000
  O   O3        1.0  0.96359  0.40636  0.67257  1.0000
  O   O4        1.0  0.55750  0.59415  0.82701  1.0000
  O   O5        1.0  0.22872  0.80029  0.34706  1.0000
  O   O6        1.0  0.42822  0.19918  0.15306  1.0000
  O   O7        1.0  0.77127  0.19971  0.65294  1.0000
  O   O8        1.0  0.57177  0.80082  0.84694  1.0000
  O   O9        1.0  0.33162  0.65860  0.25320  1.0000
  O   O10       1.0  0.67272  0.34051  0.24729  1.0000
  O   O11       1.0  0.66838  0.34140  0.74680  1.0000
  O   O12       1.0  0.32728  0.65949  0.75270  1.0000
