data_image0
_chemical_formula_structural       Ag4H64C52S4N12O12
_chemical_formula_sum              "Ag4 H64 C52 S4 N12 O12"
_cell_length_a       7.94556
_cell_length_b       12.4955
_cell_length_c       14.2251
_cell_angle_alpha    89.9997
_cell_angle_beta     89.9988
_cell_angle_gamma    90.0005

_space_group_name_H-M_alt    "P 1"
_space_group_IT_number       1

loop_
  _space_group_symop_operation_xyz
  'x, y, z'

loop_
  _atom_site_type_symbol
  _atom_site_label
  _atom_site_symmetry_multiplicity
  _atom_site_fract_x
  _atom_site_fract_y
  _atom_site_fract_z
  _atom_site_occupancy
  Ag  Ag1       1.0  0.28475  0.67947  0.49082  1.0000
  Ag  Ag2       1.0  0.71525  0.17946  0.50918  1.0000
  Ag  Ag3       1.0  0.78474  0.17946  0.00918  1.0000
  Ag  Ag4       1.0  0.21528  0.67947  0.99082  1.0000
  H   H1        1.0  0.44694  0.99136  0.25706  1.0000
  H   H2        1.0  0.55301  0.49135  0.74294  1.0000
  H   H3        1.0  0.94695  0.49136  0.24294  1.0000
  H   H4        1.0  0.05300  0.99136  0.75706  1.0000
  H   H5        1.0  0.76105  0.72236  0.18581  1.0000
  H   H6        1.0  0.23894  0.22232  0.81419  1.0000
  H   H7        1.0  0.26105  0.22236  0.31419  1.0000
  H   H8        1.0  0.73896  0.72233  0.68581  1.0000
  H   H9        1.0  0.63117  0.82623  0.05953  1.0000
  H   H10       1.0  0.36881  0.32623  0.94047  1.0000
  H   H11       1.0  0.13116  0.32623  0.44047  1.0000
  H   H12       1.0  0.86881  0.82624  0.55954  1.0000
  H   H13       1.0  0.66818  0.96170  0.08857  1.0000
  H   H14       1.0  0.33179  0.46169  0.91140  1.0000
  H   H15       1.0  0.16819  0.46170  0.41142  1.0000
  H   H16       1.0  0.83181  0.96170  0.58860  1.0000
  H   H17       1.0  0.45996  0.91128  0.08547  1.0000
  H   H18       1.0  0.54000  0.41128  0.91452  1.0000
  H   H19       1.0  0.95996  0.41129  0.41453  1.0000
  H   H20       1.0  0.04001  0.91128  0.58548  1.0000
  H   H21       1.0  0.87011  0.65398  0.42400  1.0000
  H   H22       1.0  0.12989  0.15394  0.57600  1.0000
  H   H23       1.0  0.37011  0.15399  0.07600  1.0000
  H   H24       1.0  0.62990  0.65393  0.92399  1.0000
  H   H25       1.0  0.88472  0.61975  0.30333  1.0000
  H   H26       1.0  0.11530  0.11974  0.69668  1.0000
  H   H27       1.0  0.38472  0.11975  0.19667  1.0000
  H   H28       1.0  0.61533  0.61973  0.80332  1.0000
  H   H29       1.0  0.71526  0.57102  0.37298  1.0000
  H   H30       1.0  0.28475  0.07101  0.62704  1.0000
  H   H31       1.0  0.21526  0.07103  0.12702  1.0000
  H   H32       1.0  0.78477  0.57101  0.87296  1.0000
  H   H33       1.0  0.39822  0.53391  0.32603  1.0000
  H   H34       1.0  0.60178  0.03391  0.67397  1.0000
  H   H35       1.0  0.89819  0.03391  0.17397  1.0000
  H   H36       1.0  0.10181  0.53393  0.82603  1.0000
  H   H37       1.0  0.11940  0.81432  0.33358  1.0000
  H   H38       1.0  0.88061  0.31432  0.66642  1.0000
  H   H39       1.0  0.61940  0.31433  0.16642  1.0000
  H   H40       1.0  0.38062  0.81434  0.83358  1.0000
  H   H41       1.0  0.11933  0.82040  0.15578  1.0000
  H   H42       1.0  0.88069  0.32040  0.84422  1.0000
  H   H43       1.0  0.61932  0.32041  0.34422  1.0000
  H   H44       1.0  0.38070  0.82042  0.65578  1.0000
  H   H45       1.0  0.38093  0.51383  0.06072  1.0000
  H   H46       1.0  0.61908  0.01383  0.93927  1.0000
  H   H47       1.0  0.88092  0.01383  0.43927  1.0000
  H   H48       1.0  0.11908  0.51386  0.56072  1.0000
  H   H49       1.0  0.39843  0.43461  0.16446  1.0000
  H   H50       1.0  0.60158  0.93461  0.83554  1.0000
  H   H51       1.0  0.89841  0.93463  0.33552  1.0000
  H   H52       1.0  0.10157  0.43464  0.66445  1.0000
  H   H53       1.0  0.55979  0.52827  0.13445  1.0000
  H   H54       1.0  0.44022  0.02826  0.86555  1.0000
  H   H55       1.0  0.05980  0.02826  0.36555  1.0000
  H   H56       1.0  0.94020  0.52830  0.63445  1.0000
  H   H57       1.0  0.65090  0.69178  0.51124  1.0000
  H   H58       1.0  0.34909  0.19178  0.48875  1.0000
  H   H59       1.0  0.15090  0.19178  0.98876  1.0000
  H   H60       1.0  0.84911  0.69177  0.01125  1.0000
  H   H61       1.0  0.57688  0.81667  0.53948  1.0000
  H   H62       1.0  0.42312  0.31666  0.46052  1.0000
  H   H63       1.0  0.07688  0.31667  0.96053  1.0000
  H   H64       1.0  0.92312  0.81666  0.03948  1.0000
  C   C1        1.0  0.51952  0.88933  0.36999  1.0000
  C   C2        1.0  0.48048  0.38933  0.63000  1.0000
  C   C3        1.0  0.01951  0.38933  0.13001  1.0000
  C   C4        1.0  0.98048  0.88934  0.86999  1.0000
  C   C5        1.0  0.51906  0.92062  0.27613  1.0000
  C   C6        1.0  0.48092  0.42061  0.72386  1.0000
  C   C7        1.0  0.01905  0.42062  0.22387  1.0000
  C   C8        1.0  0.98093  0.92062  0.77614  1.0000
  C   C9        1.0  0.60257  0.86086  0.20721  1.0000
  C   C10       1.0  0.39743  0.36085  0.79278  1.0000
  C   C11       1.0  0.10255  0.36088  0.29278  1.0000
  C   C12       1.0  0.89745  0.86088  0.70722  1.0000
  C   C13       1.0  0.69349  0.77105  0.23725  1.0000
  C   C14       1.0  0.30651  0.27103  0.76274  1.0000
  C   C15       1.0  0.19347  0.27105  0.26274  1.0000
  C   C16       1.0  0.80653  0.77104  0.73727  1.0000
  C   C17       1.0  0.69770  0.73794  0.33134  1.0000
  C   C18       1.0  0.30230  0.23792  0.66865  1.0000
  C   C19       1.0  0.19769  0.23794  0.16866  1.0000
  C   C20       1.0  0.80232  0.73792  0.83136  1.0000
  C   C21       1.0  0.60426  0.79550  0.39899  1.0000
  C   C22       1.0  0.39573  0.29550  0.60100  1.0000
  C   C23       1.0  0.10425  0.29550  0.10101  1.0000
  C   C24       1.0  0.89575  0.79550  0.89900  1.0000
  C   C25       1.0  0.58975  0.89159  0.10542  1.0000
  C   C26       1.0  0.41022  0.39159  0.89458  1.0000
  C   C27       1.0  0.08975  0.39160  0.39458  1.0000
  C   C28       1.0  0.91024  0.89160  0.60542  1.0000
  C   C29       1.0  0.79648  0.64074  0.35940  1.0000
  C   C30       1.0  0.20351  0.14072  0.64061  1.0000
  C   C31       1.0  0.29649  0.14075  0.14060  1.0000
  C   C32       1.0  0.70352  0.64071  0.85940  1.0000
  C   C33       1.0  0.33330  0.59671  0.28715  1.0000
  C   C34       1.0  0.66670  0.09672  0.71285  1.0000
  C   C35       1.0  0.83330  0.09672  0.21285  1.0000
  C   C36       1.0  0.16671  0.59673  0.78715  1.0000
  C   C37       1.0  0.17829  0.75205  0.29144  1.0000
  C   C38       1.0  0.82172  0.25204  0.70855  1.0000
  C   C39       1.0  0.67830  0.25205  0.20856  1.0000
  C   C40       1.0  0.32173  0.75206  0.79144  1.0000
  C   C41       1.0  0.17855  0.75485  0.19412  1.0000
  C   C42       1.0  0.82147  0.25484  0.80588  1.0000
  C   C43       1.0  0.67855  0.25486  0.30588  1.0000
  C   C44       1.0  0.32147  0.75486  0.69412  1.0000
  C   C45       1.0  0.33354  0.59808  0.18848  1.0000
  C   C46       1.0  0.66647  0.09807  0.81153  1.0000
  C   C47       1.0  0.83354  0.09809  0.31152  1.0000
  C   C48       1.0  0.16647  0.59810  0.68848  1.0000
  C   C49       1.0  0.42294  0.51392  0.13416  1.0000
  C   C50       1.0  0.57706  0.01391  0.86584  1.0000
  C   C51       1.0  0.92294  0.01392  0.36583  1.0000
  C   C52       1.0  0.07706  0.51395  0.63416  1.0000
  S   S1        1.0  0.39519  0.96232  0.45230  1.0000
  S   S2        1.0  0.60480  0.46232  0.54770  1.0000
  S   S3        1.0  0.89520  0.46232  0.04770  1.0000
  S   S4        1.0  0.10480  0.96232  0.95231  1.0000
  N   N1        1.0  0.58422  0.75750  0.49027  1.0000
  N   N2        1.0  0.41578  0.25749  0.50973  1.0000
  N   N3        1.0  0.08421  0.25749  0.00973  1.0000
  N   N4        1.0  0.91579  0.75749  0.99027  1.0000
  N   N5        1.0  0.25512  0.67172  0.33818  1.0000
  N   N6        1.0  0.74489  0.17172  0.66181  1.0000
  N   N7        1.0  0.75511  0.17173  0.16182  1.0000
  N   N8        1.0  0.24490  0.67173  0.83819  1.0000
  N   N9        1.0  0.25366  0.67780  0.14267  1.0000
  N   N10       1.0  0.74635  0.17779  0.85733  1.0000
  N   N11       1.0  0.75368  0.17781  0.35733  1.0000
  N   N12       1.0  0.24635  0.67781  0.64267  1.0000
  O   O1        1.0  0.34563  0.06248  0.40559  1.0000
  O   O2        1.0  0.65435  0.56247  0.59439  1.0000
  O   O3        1.0  0.84564  0.56248  0.09439  1.0000
  O   O4        1.0  0.15437  0.06248  0.90561  1.0000
  O   O5        1.0  0.25011  0.89323  0.47465  1.0000
  O   O6        1.0  0.74988  0.39323  0.52535  1.0000
  O   O7        1.0  0.75011  0.39323  0.02534  1.0000
  O   O8        1.0  0.24989  0.89323  0.97466  1.0000
  O   O9        1.0  0.50491  0.97904  0.53532  1.0000
  O   O10       1.0  0.49508  0.47902  0.46467  1.0000
  O   O11       1.0  0.00494  0.47902  0.96467  1.0000
  O   O12       1.0  0.99507  0.97902  0.03534  1.0000
