data_image0
_chemical_formula_structural       Cu2P2H56C56I2N4
_chemical_formula_sum              "Cu2 P2 H56 C56 I2 N4"
_cell_length_a       9.32484
_cell_length_b       13.0715
_cell_length_c       14.5804
_cell_angle_alpha    107.22
_cell_angle_beta     101.101
_cell_angle_gamma    107.591

_space_group_name_H-M_alt    "P 1"
_space_group_IT_number       1

loop_
  _space_group_symop_operation_xyz
  'x, y, z'

loop_
  _atom_site_type_symbol
  _atom_site_label
  _atom_site_symmetry_multiplicity
  _atom_site_fract_x
  _atom_site_fract_y
  _atom_site_fract_z
  _atom_site_occupancy
  Cu  Cu1       1.0  0.52640  0.61895  0.52933  1.0000
  Cu  Cu2       1.0  0.47359  0.38105  0.47067  1.0000
  P   P1        1.0  0.69778  0.75378  0.49833  1.0000
  P   P2        1.0  0.30221  0.24622  0.50166  1.0000
  H   H1        1.0  0.78634  0.55531  0.45097  1.0000
  H   H2        1.0  0.21365  0.44468  0.54903  1.0000
  H   H3        1.0  0.86689  0.85673  0.37329  1.0000
  H   H4        1.0  0.13312  0.14326  0.62671  1.0000
  H   H5        1.0  0.66893  0.85209  0.69247  1.0000
  H   H6        1.0  0.33107  0.14792  0.30754  1.0000
  H   H7        1.0  0.67906  0.11916  0.46247  1.0000
  H   H8        1.0  0.32095  0.88085  0.53753  1.0000
  H   H9        1.0  0.78915  0.01003  0.54817  1.0000
  H   H10       1.0  0.21085  0.98998  0.45182  1.0000
  H   H11       1.0  0.22387  0.64996  0.49077  1.0000
  H   H12       1.0  0.77612  0.35005  0.50923  1.0000
  H   H13       1.0  0.05185  0.71163  0.58802  1.0000
  H   H14       1.0  0.94816  0.28838  0.41199  1.0000
  H   H15       1.0  0.39567  0.76464  0.85933  1.0000
  H   H16       1.0  0.60432  0.23536  0.14066  1.0000
  H   H17       1.0  0.55176  0.69436  0.74972  1.0000
  H   H18       1.0  0.44824  0.30563  0.25028  1.0000
  H   H19       1.0  0.95985  0.49699  0.35280  1.0000
  H   H20       1.0  0.04015  0.50301  0.64720  1.0000
  H   H21       1.0  0.04854  0.89561  0.56170  1.0000
  H   H22       1.0  0.95145  0.10439  0.43830  1.0000
  H   H23       1.0  0.23658  0.03896  0.72689  1.0000
  H   H24       1.0  0.76341  0.96104  0.27311  1.0000
  H   H25       1.0  0.14130  0.09304  0.87578  1.0000
  H   H26       1.0  0.85870  0.90697  0.12422  1.0000
  H   H27       1.0  0.85430  0.00165  0.85685  1.0000
  H   H28       1.0  0.14569  0.99835  0.14315  1.0000
  H   H29       1.0  0.03661  0.79827  0.27475  1.0000
  H   H30       1.0  0.96341  0.20174  0.72525  1.0000
  H   H31       1.0  0.08451  0.61720  0.26486  1.0000
  H   H32       1.0  0.91550  0.38280  0.73515  1.0000
  H   H33       1.0  0.98638  0.75658  0.74475  1.0000
  H   H34       1.0  0.01362  0.24342  0.25526  1.0000
  H   H35       1.0  0.43426  0.68795  0.32423  1.0000
  H   H36       1.0  0.56573  0.31206  0.67577  1.0000
  H   H37       1.0  0.32639  0.79806  0.23639  1.0000
  H   H38       1.0  0.67360  0.20194  0.76360  1.0000
  H   H39       1.0  0.44948  0.01401  0.30499  1.0000
  H   H40       1.0  0.55052  0.98599  0.69501  1.0000
  H   H41       1.0  0.14625  0.79529  0.06596  1.0000
  H   H42       1.0  0.85375  0.20471  0.93405  1.0000
  H   H43       1.0  0.94144  0.76195  0.04587  1.0000
  H   H44       1.0  0.05857  0.23804  0.95414  1.0000
  H   H45       1.0  0.08423  0.61881  0.91206  1.0000
  H   H46       1.0  0.91578  0.38118  0.08795  1.0000
  H   H47       1.0  0.88039  0.58221  0.89527  1.0000
  H   H48       1.0  0.11962  0.41779  0.10473  1.0000
  H   H49       1.0  0.91680  0.56348  0.06363  1.0000
  H   H50       1.0  0.08321  0.43652  0.93638  1.0000
  H   H51       1.0  0.12305  0.61065  0.08619  1.0000
  H   H52       1.0  0.87696  0.38935  0.91382  1.0000
  H   H53       1.0  0.06162  0.91161  0.97916  1.0000
  H   H54       1.0  0.93839  0.08839  0.02084  1.0000
  H   H55       1.0  0.91097  0.78543  0.88036  1.0000
  H   H56       1.0  0.08903  0.21457  0.11964  1.0000
  C   C1        1.0  0.81670  0.71042  0.41956  1.0000
  C   C2        1.0  0.18330  0.28957  0.58044  1.0000
  C   C3        1.0  0.84189  0.60816  0.41225  1.0000
  C   C4        1.0  0.15811  0.39183  0.58775  1.0000
  C   C5        1.0  0.88686  0.77782  0.36901  1.0000
  C   C6        1.0  0.11315  0.22218  0.63099  1.0000
  C   C7        1.0  0.84579  0.86406  0.61593  1.0000
  C   C8        1.0  0.15420  0.13594  0.38407  1.0000
  C   C9        1.0  0.79310  0.89487  0.70016  1.0000
  C   C10       1.0  0.20690  0.10512  0.29985  1.0000
  C   C11       1.0  0.62658  0.02467  0.43090  1.0000
  C   C12       1.0  0.37342  0.97533  0.56909  1.0000
  C   C13       1.0  0.62091  0.84139  0.44090  1.0000
  C   C14       1.0  0.37909  0.15861  0.55910  1.0000
  C   C15       1.0  0.68832  0.96299  0.47957  1.0000
  C   C16       1.0  0.31168  0.03702  0.52043  1.0000
  C   C17       1.0  0.25906  0.67762  0.57277  1.0000
  C   C18       1.0  0.74094  0.32239  0.42723  1.0000
  C   C19       1.0  0.16427  0.71267  0.62746  1.0000
  C   C20       1.0  0.83573  0.28733  0.37254  1.0000
  C   C21       1.0  0.21212  0.74596  0.73256  1.0000
  C   C22       1.0  0.78788  0.25404  0.26744  1.0000
  C   C23       1.0  0.35613  0.74164  0.77798  1.0000
  C   C24       1.0  0.64387  0.25836  0.22201  1.0000
  C   C25       1.0  0.44252  0.70353  0.71789  1.0000
  C   C26       1.0  0.55747  0.29647  0.28210  1.0000
  C   C27       1.0  0.93820  0.57532  0.35684  1.0000
  C   C28       1.0  0.06180  0.42467  0.64316  1.0000
  C   C29       1.0  0.00591  0.91772  0.62649  1.0000
  C   C30       1.0  0.99409  0.08228  0.37351  1.0000
  C   C31       1.0  0.11188  0.99938  0.71985  1.0000
  C   C32       1.0  0.88811  0.00062  0.28015  1.0000
  C   C33       1.0  0.05813  0.02983  0.80295  1.0000
  C   C34       1.0  0.94187  0.97018  0.19705  1.0000
  C   C35       1.0  0.89790  0.97814  0.79264  1.0000
  C   C36       1.0  0.10210  0.02187  0.20736  1.0000
  C   C37       1.0  0.98256  0.74457  0.31331  1.0000
  C   C38       1.0  0.01745  0.25542  0.68669  1.0000
  C   C39       1.0  0.00890  0.64340  0.30750  1.0000
  C   C40       1.0  0.99111  0.35659  0.69250  1.0000
  C   C41       1.0  0.10670  0.77382  0.79002  1.0000
  C   C42       1.0  0.89329  0.22617  0.20997  1.0000
  C   C43       1.0  0.48896  0.78254  0.35340  1.0000
  C   C44       1.0  0.51103  0.21746  0.64660  1.0000
  C   C45       1.0  0.42848  0.84455  0.30453  1.0000
  C   C46       1.0  0.57152  0.15545  0.69546  1.0000
  C   C47       1.0  0.49756  0.96572  0.34291  1.0000
  C   C48       1.0  0.50245  0.03428  0.65709  1.0000
  C   C49       1.0  0.02999  0.75339  0.00706  1.0000
  C   C50       1.0  0.97002  0.24660  0.99295  1.0000
  C   C51       1.0  0.99784  0.62547  0.95320  1.0000
  C   C52       1.0  0.00217  0.37453  0.04680  1.0000
  C   C53       1.0  0.00824  0.56247  0.02566  1.0000
  C   C54       1.0  0.99176  0.43753  0.97434  1.0000
  C   C55       1.0  0.03023  0.81878  0.93551  1.0000
  C   C56       1.0  0.96977  0.18122  0.06449  1.0000
  I   I1        1.0  0.30968  0.46219  0.35695  1.0000
  I   I2        1.0  0.69032  0.53781  0.64304  1.0000
  N   N1        1.0  0.39631  0.67179  0.61628  1.0000
  N   N2        1.0  0.60369  0.32821  0.38372  1.0000
  N   N3        1.0  0.14931  0.80881  0.88633  1.0000
  N   N4        1.0  0.85069  0.19118  0.11367  1.0000
