data_image0
_chemical_formula_structural       Zn2H6C12N4O8
_chemical_formula_sum              "Zn2 H6 C12 N4 O8"
_cell_length_a       5.60975
_cell_length_b       9.84977
_cell_length_c       9.51715
_cell_angle_alpha    58.8357
_cell_angle_beta     79.5003
_cell_angle_gamma    69.3617

_space_group_name_H-M_alt    "P 1"
_space_group_IT_number       1

loop_
  _space_group_symop_operation_xyz
  'x, y, z'

loop_
  _atom_site_type_symbol
  _atom_site_label
  _atom_site_symmetry_multiplicity
  _atom_site_fract_x
  _atom_site_fract_y
  _atom_site_fract_z
  _atom_site_occupancy
  Zn  Zn1       1.0  0.49975  0.17861  0.64289  1.0000
  Zn  Zn2       1.0  0.50026  0.82139  0.35711  1.0000
  H   H1        1.0  0.00974  0.85450  0.73302  1.0000
  H   H2        1.0  0.98970  0.41246  0.73323  1.0000
  H   H3        1.0  0.99026  0.14548  0.26697  1.0000
  H   H4        1.0  0.01027  0.58754  0.26676  1.0000
  H   H5        1.0  0.21438  0.60252  0.99985  1.0000
  H   H6        1.0  0.78561  0.39747  0.00016  1.0000
  C   C1        1.0  0.61986  0.93550  0.99998  1.0000
  C   C2        1.0  0.38016  0.06452  0.00000  1.0000
  C   C3        1.0  0.93074  0.83665  0.85291  1.0000
  C   C4        1.0  0.06900  0.31044  0.85310  1.0000
  C   C5        1.0  0.06927  0.16334  0.14708  1.0000
  C   C6        1.0  0.93100  0.68957  0.14688  1.0000
  C   C7        1.0  0.04295  0.69921  0.99986  1.0000
  C   C8        1.0  0.95705  0.30079  0.00014  1.0000
  C   C9        1.0  0.38176  0.97623  0.55262  1.0000
  C   C10       1.0  0.61829  0.47106  0.55266  1.0000
  C   C11       1.0  0.61820  0.02378  0.44739  1.0000
  C   C12       1.0  0.38173  0.52892  0.44738  1.0000
  N   N1        1.0  0.71836  0.95486  0.85415  1.0000
  N   N2        1.0  0.28136  0.19101  0.85424  1.0000
  N   N3        1.0  0.28165  0.04514  0.14582  1.0000
  N   N4        1.0  0.71864  0.80900  0.14575  1.0000
  O   O1        1.0  0.29188  0.03284  0.65043  1.0000
  O   O2        1.0  0.70805  0.31662  0.65053  1.0000
  O   O3        1.0  0.70809  0.96719  0.34955  1.0000
  O   O4        1.0  0.29199  0.68338  0.34948  1.0000
  O   O5        1.0  0.29582  0.88382  0.53309  1.0000
  O   O6        1.0  0.70452  0.58289  0.53313  1.0000
  O   O7        1.0  0.70417  0.11616  0.46692  1.0000
  O   O8        1.0  0.29548  0.41711  0.46692  1.0000
