data_image0
_chemical_formula_structural       Co2H6C12N4O8
_chemical_formula_sum              "Co2 H6 C12 N4 O8"
_cell_length_a       5.69954
_cell_length_b       8.11389
_cell_length_c       9.55273
_cell_angle_alpha    64.9653
_cell_angle_beta     89.8222
_cell_angle_gamma    89.5086

_space_group_name_H-M_alt    "P 1"
_space_group_IT_number       1

loop_
  _space_group_symop_operation_xyz
  'x, y, z'

loop_
  _atom_site_type_symbol
  _atom_site_label
  _atom_site_symmetry_multiplicity
  _atom_site_fract_x
  _atom_site_fract_y
  _atom_site_fract_z
  _atom_site_occupancy
  Co  Co1       1.0  0.50028  0.15099  0.69832  1.0000
  Co  Co2       1.0  0.49946  0.84879  0.30165  1.0000
  H   H1        1.0  0.94558  0.89072  0.74838  1.0000
  H   H2        1.0  0.05573  0.36191  0.74859  1.0000
  H   H3        1.0  0.05459  0.10957  0.25166  1.0000
  H   H4        1.0  0.94457  0.63865  0.25150  1.0000
  H   H5        1.0  0.11784  0.66418  0.99988  1.0000
  H   H6        1.0  0.88287  0.33660  0.00020  1.0000
  C   C1        1.0  0.59911  0.94714  0.99997  1.0000
  C   C2        1.0  0.40055  0.05276  0.00003  1.0000
  C   C3        1.0  0.87062  0.87012  0.85955  1.0000
  C   C4        1.0  0.13013  0.27103  0.85977  1.0000
  C   C5        1.0  0.12950  0.13015  0.14043  1.0000
  C   C6        1.0  0.87011  0.72942  0.14024  1.0000
  C   C7        1.0  0.96583  0.74645  0.99992  1.0000
  C   C8        1.0  0.03457  0.25409  0.00015  1.0000
  C   C9        1.0  0.38996  0.94234  0.53563  1.0000
  C   C10       1.0  0.60988  0.52184  0.53554  1.0000
  C   C11       1.0  0.60968  0.05716  0.46442  1.0000
  C   C12       1.0  0.39013  0.47776  0.46433  1.0000
  N   N1        1.0  0.68318  0.97348  0.85985  1.0000
  N   N2        1.0  0.31737  0.16718  0.85993  1.0000
  N   N3        1.0  0.31661  0.02650  0.14014  1.0000
  N   N4        1.0  0.68249  0.83293  0.14002  1.0000
  O   O1        1.0  0.31218  0.93835  0.66025  1.0000
  O   O2        1.0  0.68810  0.40167  0.66011  1.0000
  O   O3        1.0  0.68753  0.06113  0.33982  1.0000
  O   O4        1.0  0.31201  0.59786  0.33971  1.0000
  O   O5        1.0  0.30096  0.85856  0.46146  1.0000
  O   O6        1.0  0.69835  0.67970  0.46142  1.0000
  O   O7        1.0  0.69871  0.14097  0.53858  1.0000
  O   O8        1.0  0.30151  0.32000  0.53855  1.0000
