data_image0
_chemical_formula_structural       Zn8Te8H64C24N8
_chemical_formula_sum              "Zn8 Te8 H64 C24 N8"
_cell_length_a       6.87222
_cell_length_b       6.93831
_cell_length_c       26.8761
_cell_angle_alpha    89.9999
_cell_angle_beta     89.9995
_cell_angle_gamma    90.0001

_space_group_name_H-M_alt    "P 1"
_space_group_IT_number       1

loop_
  _space_group_symop_operation_xyz
  'x, y, z'

loop_
  _atom_site_type_symbol
  _atom_site_label
  _atom_site_symmetry_multiplicity
  _atom_site_fract_x
  _atom_site_fract_y
  _atom_site_fract_z
  _atom_site_occupancy
  Zn  Zn1       1.0  0.18943  0.40906  0.28371  1.0000
  Zn  Zn2       1.0  0.81056  0.09094  0.78370  1.0000
  Zn  Zn3       1.0  0.68944  0.59093  0.21630  1.0000
  Zn  Zn4       1.0  0.31056  0.90907  0.71630  1.0000
  Zn  Zn5       1.0  0.81057  0.59094  0.71629  1.0000
  Zn  Zn6       1.0  0.18943  0.90907  0.21629  1.0000
  Zn  Zn7       1.0  0.31057  0.40906  0.78371  1.0000
  Zn  Zn8       1.0  0.68943  0.09094  0.28371  1.0000
  Te  Te1       1.0  0.81399  0.44563  0.30071  1.0000
  Te  Te2       1.0  0.18601  0.05437  0.80071  1.0000
  Te  Te3       1.0  0.31399  0.55437  0.19930  1.0000
  Te  Te4       1.0  0.68601  0.94563  0.69929  1.0000
  Te  Te5       1.0  0.18602  0.55437  0.69930  1.0000
  Te  Te6       1.0  0.81398  0.94563  0.19930  1.0000
  Te  Te7       1.0  0.68601  0.44563  0.80070  1.0000
  Te  Te8       1.0  0.31398  0.05437  0.30070  1.0000
  H   H1        1.0  0.47276  0.55243  0.33235  1.0000
  H   H2        1.0  0.52724  0.94756  0.83235  1.0000
  H   H3        1.0  0.97276  0.44756  0.16765  1.0000
  H   H4        1.0  0.02724  0.05244  0.66765  1.0000
  H   H5        1.0  0.52724  0.44757  0.66765  1.0000
  H   H6        1.0  0.47276  0.05244  0.16765  1.0000
  H   H7        1.0  0.02724  0.55244  0.83235  1.0000
  H   H8        1.0  0.97276  0.94757  0.33235  1.0000
  H   H9        1.0  0.29150  0.70381  0.34033  1.0000
  H   H10       1.0  0.70850  0.79617  0.84033  1.0000
  H   H11       1.0  0.79150  0.29617  0.15967  1.0000
  H   H12       1.0  0.20850  0.20382  0.65967  1.0000
  H   H13       1.0  0.70850  0.29619  0.65967  1.0000
  H   H14       1.0  0.29150  0.20384  0.15967  1.0000
  H   H15       1.0  0.20850  0.70383  0.84033  1.0000
  H   H16       1.0  0.79150  0.79618  0.34033  1.0000
  H   H17       1.0  0.31936  0.32289  0.38963  1.0000
  H   H18       1.0  0.68063  0.17711  0.88963  1.0000
  H   H19       1.0  0.81937  0.67710  0.11037  1.0000
  H   H20       1.0  0.18063  0.82289  0.61037  1.0000
  H   H21       1.0  0.68065  0.67711  0.61036  1.0000
  H   H22       1.0  0.31936  0.82291  0.11036  1.0000
  H   H23       1.0  0.18063  0.32290  0.88963  1.0000
  H   H24       1.0  0.81936  0.17711  0.38964  1.0000
  H   H25       1.0  0.14922  0.50614  0.40360  1.0000
  H   H26       1.0  0.85078  0.99386  0.90360  1.0000
  H   H27       1.0  0.64922  0.49385  0.09640  1.0000
  H   H28       1.0  0.35079  0.00614  0.59640  1.0000
  H   H29       1.0  0.85080  0.49385  0.59640  1.0000
  H   H30       1.0  0.14921  0.00616  0.09640  1.0000
  H   H31       1.0  0.35077  0.50615  0.90360  1.0000
  H   H32       1.0  0.64921  0.99385  0.40360  1.0000
  H   H33       1.0  0.59284  0.54142  0.41608  1.0000
  H   H34       1.0  0.40716  0.95855  0.91608  1.0000
  H   H35       1.0  0.09283  0.45854  0.08392  1.0000
  H   H36       1.0  0.90717  0.04144  0.58392  1.0000
  H   H37       1.0  0.40717  0.45857  0.58392  1.0000
  H   H38       1.0  0.59283  0.04146  0.08391  1.0000
  H   H39       1.0  0.90715  0.54144  0.91608  1.0000
  H   H40       1.0  0.09284  0.95856  0.41608  1.0000
  H   H41       1.0  0.42176  0.71866  0.43426  1.0000
  H   H42       1.0  0.57826  0.78133  0.93426  1.0000
  H   H43       1.0  0.92173  0.28132  0.06574  1.0000
  H   H44       1.0  0.07826  0.21867  0.56574  1.0000
  H   H45       1.0  0.57826  0.28133  0.56574  1.0000
  H   H46       1.0  0.42173  0.21869  0.06574  1.0000
  H   H47       1.0  0.07825  0.71867  0.93426  1.0000
  H   H48       1.0  0.92174  0.78133  0.43426  1.0000
  H   H49       1.0  0.43986  0.30697  0.47658  1.0000
  H   H50       1.0  0.56016  0.19301  0.97658  1.0000
  H   H51       1.0  0.93984  0.69301  0.02342  1.0000
  H   H52       1.0  0.06016  0.80699  0.52342  1.0000
  H   H53       1.0  0.56017  0.69301  0.52342  1.0000
  H   H54       1.0  0.43982  0.80699  0.02342  1.0000
  H   H55       1.0  0.06016  0.30698  0.97658  1.0000
  H   H56       1.0  0.93985  0.19302  0.47658  1.0000
  H   H57       1.0  0.27729  0.48858  0.49619  1.0000
  H   H58       1.0  0.72271  0.01140  0.99619  1.0000
  H   H59       1.0  0.77727  0.51140  0.00381  1.0000
  H   H60       1.0  0.22273  0.98859  0.50381  1.0000
  H   H61       1.0  0.72274  0.51140  0.50381  1.0000
  H   H62       1.0  0.27727  0.98860  0.00381  1.0000
  H   H63       1.0  0.22272  0.48860  0.99619  1.0000
  H   H64       1.0  0.77728  0.01142  0.49619  1.0000
  C   C1        1.0  0.30102  0.48045  0.39226  1.0000
  C   C2        1.0  0.69899  0.01954  0.89226  1.0000
  C   C3        1.0  0.80101  0.51953  0.10774  1.0000
  C   C4        1.0  0.19899  0.98046  0.60774  1.0000
  C   C5        1.0  0.69899  0.51954  0.60774  1.0000
  C   C6        1.0  0.30100  0.98048  0.10774  1.0000
  C   C7        1.0  0.19898  0.48047  0.89226  1.0000
  C   C8        1.0  0.80102  0.01954  0.39226  1.0000
  C   C9        1.0  0.44359  0.56173  0.43041  1.0000
  C   C10       1.0  0.55643  0.93826  0.93041  1.0000
  C   C11       1.0  0.94357  0.43825  0.06959  1.0000
  C   C12       1.0  0.05643  0.06174  0.56959  1.0000
  C   C13       1.0  0.55644  0.43826  0.56959  1.0000
  C   C14       1.0  0.44355  0.06175  0.06958  1.0000
  C   C15       1.0  0.05642  0.56174  0.93041  1.0000
  C   C16       1.0  0.94358  0.93826  0.43041  1.0000
  C   C17       1.0  0.42492  0.46453  0.48117  1.0000
  C   C18       1.0  0.57509  0.03546  0.98117  1.0000
  C   C19       1.0  0.92490  0.53546  0.01883  1.0000
  C   C20       1.0  0.07510  0.96454  0.51883  1.0000
  C   C21       1.0  0.57511  0.53546  0.51883  1.0000
  C   C22       1.0  0.42489  0.96454  0.01883  1.0000
  C   C23       1.0  0.07509  0.46453  0.98117  1.0000
  C   C24       1.0  0.92491  0.03547  0.48117  1.0000
  N   N1        1.0  0.32723  0.55958  0.34185  1.0000
  N   N2        1.0  0.67277  0.94043  0.84184  1.0000
  N   N3        1.0  0.82723  0.44042  0.15816  1.0000
  N   N4        1.0  0.17277  0.05958  0.65815  1.0000
  N   N5        1.0  0.67278  0.44042  0.65816  1.0000
  N   N6        1.0  0.32723  0.05958  0.15815  1.0000
  N   N7        1.0  0.17276  0.55958  0.84184  1.0000
  N   N8        1.0  0.82723  0.94042  0.34185  1.0000
