data_image0
_chemical_formula_structural       Ag4H24C20N28O12
_chemical_formula_sum              "Ag4 H24 C20 N28 O12"
_cell_length_a       7.2502
_cell_length_b       9.00328
_cell_length_c       14.2944
_cell_angle_alpha    90.0001
_cell_angle_beta     90
_cell_angle_gamma    89.9998

_space_group_name_H-M_alt    "P 1"
_space_group_IT_number       1

loop_
  _space_group_symop_operation_xyz
  'x, y, z'

loop_
  _atom_site_type_symbol
  _atom_site_label
  _atom_site_symmetry_multiplicity
  _atom_site_fract_x
  _atom_site_fract_y
  _atom_site_fract_z
  _atom_site_occupancy
  Ag  Ag1       1.0  0.11773  0.99873  0.65438  1.0000
  Ag  Ag2       1.0  0.88227  0.49873  0.34562  1.0000
  Ag  Ag3       1.0  0.38227  0.49873  0.15438  1.0000
  Ag  Ag4       1.0  0.61773  0.99873  0.84562  1.0000
  H   H1        1.0  0.02172  0.59382  0.84933  1.0000
  H   H2        1.0  0.97828  0.09382  0.15067  1.0000
  H   H3        1.0  0.47828  0.09382  0.34933  1.0000
  H   H4        1.0  0.52173  0.59382  0.65067  1.0000
  H   H5        1.0  0.10589  0.45632  0.92923  1.0000
  H   H6        1.0  0.89411  0.95632  0.07077  1.0000
  H   H7        1.0  0.39411  0.95632  0.42923  1.0000
  H   H8        1.0  0.60589  0.45632  0.57077  1.0000
  H   H9        1.0  0.23106  0.34918  0.57548  1.0000
  H   H10       1.0  0.76894  0.84919  0.42452  1.0000
  H   H11       1.0  0.26894  0.84919  0.07548  1.0000
  H   H12       1.0  0.73106  0.34918  0.92452  1.0000
  H   H13       1.0  0.11512  0.19845  0.84948  1.0000
  H   H14       1.0  0.88487  0.69845  0.15052  1.0000
  H   H15       1.0  0.38487  0.69845  0.34948  1.0000
  H   H16       1.0  0.61512  0.19845  0.65052  1.0000
  H   H17       1.0  0.65650  0.70078  0.99704  1.0000
  H   H18       1.0  0.34350  0.20078  0.00296  1.0000
  H   H19       1.0  0.84350  0.20077  0.49704  1.0000
  H   H20       1.0  0.15650  0.70077  0.50296  1.0000
  H   H21       1.0  0.29321  0.77251  0.77194  1.0000
  H   H22       1.0  0.70680  0.27251  0.22806  1.0000
  H   H23       1.0  0.20679  0.27251  0.27194  1.0000
  H   H24       1.0  0.79321  0.77251  0.72806  1.0000
  C   C1        1.0  0.13813  0.52083  0.86626  1.0000
  C   C2        1.0  0.86187  0.02083  0.13374  1.0000
  C   C3        1.0  0.36187  0.02083  0.36626  1.0000
  C   C4        1.0  0.63813  0.52083  0.63374  1.0000
  C   C5        1.0  0.20200  0.34698  0.65006  1.0000
  C   C6        1.0  0.79800  0.84699  0.34994  1.0000
  C   C7        1.0  0.29801  0.84699  0.15006  1.0000
  C   C8        1.0  0.70200  0.34698  0.84994  1.0000
  C   C9        1.0  0.14364  0.26818  0.78879  1.0000
  C   C10       1.0  0.85635  0.76818  0.21121  1.0000
  C   C11       1.0  0.35636  0.76818  0.28879  1.0000
  C   C12       1.0  0.64364  0.26818  0.71121  1.0000
  C   C13       1.0  0.53979  0.69058  0.95017  1.0000
  C   C14       1.0  0.46021  0.19058  0.04983  1.0000
  C   C15       1.0  0.96021  0.19058  0.45017  1.0000
  C   C16       1.0  0.03979  0.69058  0.54983  1.0000
  C   C17       1.0  0.35887  0.72929  0.83451  1.0000
  C   C18       1.0  0.64113  0.22929  0.16549  1.0000
  C   C19       1.0  0.14113  0.22929  0.33451  1.0000
  C   C20       1.0  0.85887  0.72929  0.66549  1.0000
  N   N1        1.0  0.53824  0.91545  0.58381  1.0000
  N   N2        1.0  0.46176  0.41545  0.41619  1.0000
  N   N3        1.0  0.96176  0.41545  0.08381  1.0000
  N   N4        1.0  0.03824  0.91545  0.91619  1.0000
  N   N5        1.0  0.16685  0.41675  0.78976  1.0000
  N   N6        1.0  0.83315  0.91676  0.21024  1.0000
  N   N7        1.0  0.33315  0.91676  0.28976  1.0000
  N   N8        1.0  0.66685  0.41675  0.71024  1.0000
  N   N9        1.0  0.20311  0.46886  0.70209  1.0000
  N   N10       1.0  0.79690  0.96886  0.29791  1.0000
  N   N11       1.0  0.29690  0.96886  0.20209  1.0000
  N   N12       1.0  0.70311  0.46886  0.79791  1.0000
  N   N13       1.0  0.16478  0.22108  0.70060  1.0000
  N   N14       1.0  0.83521  0.72109  0.29940  1.0000
  N   N15       1.0  0.33521  0.72109  0.20060  1.0000
  N   N16       1.0  0.66478  0.22109  0.79940  1.0000
  N   N17       1.0  0.30008  0.61059  0.88337  1.0000
  N   N18       1.0  0.69992  0.11059  0.11663  1.0000
  N   N19       1.0  0.19992  0.11059  0.38337  1.0000
  N   N20       1.0  0.80008  0.61059  0.61663  1.0000
  N   N21       1.0  0.41450  0.58382  0.95748  1.0000
  N   N22       1.0  0.58551  0.08383  0.04252  1.0000
  N   N23       1.0  0.08550  0.08382  0.45748  1.0000
  N   N24       1.0  0.91450  0.58382  0.54252  1.0000
  N   N25       1.0  0.51003  0.78295  0.87564  1.0000
  N   N26       1.0  0.48997  0.28295  0.12436  1.0000
  N   N27       1.0  0.98997  0.28295  0.37564  1.0000
  N   N28       1.0  0.01003  0.78295  0.62436  1.0000
  O   O1        1.0  0.47112  0.93211  0.66571  1.0000
  O   O2        1.0  0.52888  0.43211  0.33429  1.0000
  O   O3        1.0  0.02888  0.43211  0.16571  1.0000
  O   O4        1.0  0.97112  0.93211  0.83429  1.0000
  O   O5        1.0  0.66152  0.00324  0.55452  1.0000
  O   O6        1.0  0.33848  0.50324  0.44548  1.0000
  O   O7        1.0  0.83848  0.50324  0.05452  1.0000
  O   O8        1.0  0.16151  0.00324  0.94548  1.0000
  O   O9        1.0  0.48003  0.81062  0.53197  1.0000
  O   O10       1.0  0.51997  0.31062  0.46803  1.0000
  O   O11       1.0  0.01997  0.31062  0.03197  1.0000
  O   O12       1.0  0.98003  0.81062  0.96803  1.0000
