data_image0
_chemical_formula_structural       Ag4H24C20N28O8
_chemical_formula_sum              "Ag4 H24 C20 N28 O8"
_cell_length_a       7.5647
_cell_length_b       9.4074
_cell_length_c       13.0814
_cell_angle_alpha    90.0001
_cell_angle_beta     89.9995
_cell_angle_gamma    99.8629

_space_group_name_H-M_alt    "P 1"
_space_group_IT_number       1

loop_
  _space_group_symop_operation_xyz
  'x, y, z'

loop_
  _atom_site_type_symbol
  _atom_site_label
  _atom_site_symmetry_multiplicity
  _atom_site_fract_x
  _atom_site_fract_y
  _atom_site_fract_z
  _atom_site_occupancy
  Ag  Ag1       1.0  0.32043  0.65875  0.00531  1.0000
  Ag  Ag2       1.0  0.67957  0.34125  0.50531  1.0000
  Ag  Ag3       1.0  0.44054  0.24127  0.70208  1.0000
  Ag  Ag4       1.0  0.55945  0.75873  0.20208  1.0000
  H   H1        1.0  0.02647  0.16177  0.33491  1.0000
  H   H2        1.0  0.97353  0.83823  0.83491  1.0000
  H   H3        1.0  0.92298  0.32116  0.34119  1.0000
  H   H4        1.0  0.07703  0.67884  0.84118  1.0000
  H   H5        1.0  0.45453  0.34185  0.08687  1.0000
  H   H6        1.0  0.54546  0.65815  0.58687  1.0000
  H   H7        1.0  0.05170  0.53505  0.22534  1.0000
  H   H8        1.0  0.94830  0.46495  0.72534  1.0000
  H   H9        1.0  0.22332  0.51572  0.63313  1.0000
  H   H10       1.0  0.77669  0.48427  0.13312  1.0000
  H   H11       1.0  0.27503  0.14060  0.46803  1.0000
  H   H12       1.0  0.72497  0.85940  0.96803  1.0000
  H   H13       1.0  0.10248  0.16963  0.98015  1.0000
  H   H14       1.0  0.89752  0.83037  0.48015  1.0000
  H   H15       1.0  0.01842  0.33724  0.99659  1.0000
  H   H16       1.0  0.98158  0.66276  0.49659  1.0000
  H   H17       1.0  0.70238  0.97951  0.72410  1.0000
  H   H18       1.0  0.29762  0.02050  0.22410  1.0000
  H   H19       1.0  0.70981  0.35707  0.89896  1.0000
  H   H20       1.0  0.29019  0.64294  0.39896  1.0000
  H   H21       1.0  0.59507  0.15655  0.25329  1.0000
  H   H22       1.0  0.40492  0.84346  0.75329  1.0000
  H   H23       1.0  0.98980  0.96339  0.10615  1.0000
  H   H24       1.0  0.01020  0.03661  0.60615  1.0000
  C   C1        1.0  0.04985  0.27965  0.34179  1.0000
  C   C2        1.0  0.95016  0.72035  0.84179  1.0000
  C   C3        1.0  0.34916  0.36340  0.13792  1.0000
  C   C4        1.0  0.65084  0.63660  0.63793  1.0000
  C   C5        1.0  0.14686  0.46527  0.20535  1.0000
  C   C6        1.0  0.85314  0.53473  0.70534  1.0000
  C   C7        1.0  0.20837  0.43237  0.57496  1.0000
  C   C8        1.0  0.79164  0.56763  0.07495  1.0000
  C   C9        1.0  0.23771  0.24109  0.49324  1.0000
  C   C10       1.0  0.76229  0.75891  0.99323  1.0000
  C   C11       1.0  0.98290  0.21956  0.99094  1.0000
  C   C12       1.0  0.01710  0.78044  0.49094  1.0000
  C   C13       1.0  0.73767  0.06425  0.78041  1.0000
  C   C14       1.0  0.26233  0.93576  0.28041  1.0000
  C   C15       1.0  0.73964  0.25684  0.86757  1.0000
  C   C16       1.0  0.26036  0.74316  0.36757  1.0000
  C   C17       1.0  0.69873  0.13506  0.20083  1.0000
  C   C18       1.0  0.30126  0.86494  0.70083  1.0000
  C   C19       1.0  0.89724  0.03418  0.13002  1.0000
  C   C20       1.0  0.10276  0.96582  0.63002  1.0000
  N   N1        1.0  0.36289  0.44223  0.83459  1.0000
  N   N2        1.0  0.63710  0.55776  0.33459  1.0000
  N   N3        1.0  0.31380  0.97236  0.99851  1.0000
  N   N4        1.0  0.68620  0.02764  0.49851  1.0000
  N   N5        1.0  0.15740  0.34207  0.25596  1.0000
  N   N6        1.0  0.84261  0.65793  0.75596  1.0000
  N   N7        1.0  0.28666  0.27557  0.21398  1.0000
  N   N8        1.0  0.71335  0.72444  0.71398  1.0000
  N   N9        1.0  0.26652  0.48157  0.12960  1.0000
  N   N10       1.0  0.73348  0.51843  0.62960  1.0000
  N   N11       1.0  0.13710  0.31785  0.43867  1.0000
  N   N12       1.0  0.86291  0.68215  0.93867  1.0000
  N   N13       1.0  0.11684  0.44072  0.48932  1.0000
  N   N14       1.0  0.88316  0.55928  0.98932  1.0000
  N   N15       1.0  0.28384  0.31061  0.58069  1.0000
  N   N16       1.0  0.71616  0.68939  0.08069  1.0000
  N   N17       1.0  0.86683  0.18526  0.90286  1.0000
  N   N18       1.0  0.13317  0.81474  0.40286  1.0000
  N   N19       1.0  0.86585  0.06099  0.84896  1.0000
  N   N20       1.0  0.13415  0.93902  0.34896  1.0000
  N   N21       1.0  0.65668  0.18296  0.78917  1.0000
  N   N22       1.0  0.34332  0.81704  0.28917  1.0000
  N   N23       1.0  0.89197  0.16213  0.08359  1.0000
  N   N24       1.0  0.10802  0.83787  0.58359  1.0000
  N   N25       1.0  0.76415  0.22821  0.12804  1.0000
  N   N26       1.0  0.23585  0.77179  0.62804  1.0000
  N   N27       1.0  0.77619  0.01386  0.20499  1.0000
  N   N28       1.0  0.22380  0.98614  0.70499  1.0000
  O   O1        1.0  0.47812  0.49587  0.90061  1.0000
  O   O2        1.0  0.52188  0.50411  0.40061  1.0000
  O   O3        1.0  0.21659  0.49017  0.83483  1.0000
  O   O4        1.0  0.78342  0.50985  0.33483  1.0000
  O   O5        1.0  0.18580  0.87076  0.02342  1.0000
  O   O6        1.0  0.81420  0.12924  0.52342  1.0000
  O   O7        1.0  0.45563  0.93102  0.97046  1.0000
  O   O8        1.0  0.54437  0.06899  0.47047  1.0000
