data_image0
_chemical_formula_structural       Zn2H12C24N4O8F4
_chemical_formula_sum              "Zn2 H12 C24 N4 O8 F4"
_cell_length_a       7.85736
_cell_length_b       7.85731
_cell_length_c       11.1839
_cell_angle_alpha    105.287
_cell_angle_beta     105.288
_cell_angle_gamma    104.542

_space_group_name_H-M_alt    "P 1"
_space_group_IT_number       1

loop_
  _space_group_symop_operation_xyz
  'x, y, z'

loop_
  _atom_site_type_symbol
  _atom_site_label
  _atom_site_symmetry_multiplicity
  _atom_site_fract_x
  _atom_site_fract_y
  _atom_site_fract_z
  _atom_site_occupancy
  Zn  Zn1       1.0  0.37249  0.87272  0.50004  1.0000
  Zn  Zn2       1.0  0.12273  0.12249  0.00004  1.0000
  H   H1        1.0  0.56364  0.62866  0.16344  1.0000
  H   H2        1.0  0.46537  0.40091  0.83629  1.0000
  H   H3        1.0  0.65092  0.21538  0.33629  1.0000
  H   H4        1.0  0.87866  0.31364  0.66344  1.0000
  H   H5        1.0  0.13168  0.63539  0.20750  1.0000
  H   H6        1.0  0.42829  0.92497  0.79263  1.0000
  H   H7        1.0  0.17497  0.17830  0.29264  1.0000
  H   H8        1.0  0.88538  0.88168  0.70750  1.0000
  H   H9        1.0  0.02526  0.91718  0.53732  1.0000
  H   H10       1.0  0.38029  0.48861  0.46273  1.0000
  H   H11       1.0  0.73862  0.13030  0.96273  1.0000
  H   H12       1.0  0.16719  0.77526  0.03732  1.0000
  C   C1        1.0  0.77929  0.77947  0.35894  1.0000
  C   C2        1.0  0.42083  0.42097  0.64096  1.0000
  C   C3        1.0  0.67098  0.17085  0.14096  1.0000
  C   C4        1.0  0.02948  0.52929  0.85894  1.0000
  C   C5        1.0  0.71198  0.67288  0.22384  1.0000
  C   C6        1.0  0.44920  0.48887  0.77600  1.0000
  C   C7        1.0  0.73887  0.19921  0.27600  1.0000
  C   C8        1.0  0.92288  0.46198  0.72384  1.0000
  C   C9        1.0  0.84287  0.62681  0.17125  1.0000
  C   C10       1.0  0.45581  0.67236  0.82873  1.0000
  C   C11       1.0  0.92237  0.20582  0.32873  1.0000
  C   C12       1.0  0.87680  0.59287  0.67125  1.0000
  C   C13       1.0  0.03041  0.67619  0.24909  1.0000
  C   C14       1.0  0.42745  0.78204  0.75101  1.0000
  C   C15       1.0  0.03205  0.17746  0.25102  1.0000
  C   C16       1.0  0.92619  0.78041  0.74909  1.0000
  C   C17       1.0  0.96950  0.83022  0.43266  1.0000
  C   C18       1.0  0.39798  0.53748  0.56735  1.0000
  C   C19       1.0  0.78749  0.14799  0.06735  1.0000
  C   C20       1.0  0.08023  0.71950  0.93266  1.0000
  C   C21       1.0  0.65295  0.83917  0.42798  1.0000
  C   C22       1.0  0.41116  0.22528  0.57203  1.0000
  C   C23       1.0  0.47529  0.16117  0.07202  1.0000
  C   C24       1.0  0.08917  0.40295  0.92798  1.0000
  N   N1        1.0  0.09087  0.77742  0.37956  1.0000
  N   N2        1.0  0.39829  0.71199  0.62057  1.0000
  N   N3        1.0  0.96200  0.14830  0.12058  1.0000
  N   N4        1.0  0.02742  0.84087  0.87956  1.0000
  O   O1        1.0  0.47453  0.76147  0.36298  1.0000
  O   O2        1.0  0.39898  0.11224  0.63721  1.0000
  O   O3        1.0  0.36225  0.14898  0.13721  1.0000
  O   O4        1.0  0.01148  0.22453  0.86298  1.0000
  O   O5        1.0  0.72338  0.95672  0.54415  1.0000
  O   O6        1.0  0.41185  0.17895  0.45575  1.0000
  O   O7        1.0  0.42896  0.16187  0.95575  1.0000
  O   O8        1.0  0.20672  0.47338  0.04416  1.0000
  F   F1        1.0  0.78764  0.52934  0.03944  1.0000
  F   F2        1.0  0.49015  0.74880  0.96054  1.0000
  F   F3        1.0  0.99879  0.24015  0.46054  1.0000
  F   F4        1.0  0.77933  0.53764  0.53944  1.0000
