data_image0
_chemical_formula_structural       Zn4H24C48N8Cl8O16
_chemical_formula_sum              "Zn4 H24 C48 N8 Cl8 O16"
_cell_length_a       7.7692
_cell_length_b       7.77706
_cell_length_c       24.6894
_cell_angle_alpha    89.9999
_cell_angle_beta     91.2163
_cell_angle_gamma    89.9982

_space_group_name_H-M_alt    "P 1"
_space_group_IT_number       1

loop_
  _space_group_symop_operation_xyz
  'x, y, z'

loop_
  _atom_site_type_symbol
  _atom_site_label
  _atom_site_symmetry_multiplicity
  _atom_site_fract_x
  _atom_site_fract_y
  _atom_site_fract_z
  _atom_site_occupancy
  Zn  Zn1       1.0  0.41381  0.88084  0.39681  1.0000
  Zn  Zn2       1.0  0.58619  0.88082  0.10319  1.0000
  Zn  Zn3       1.0  0.58619  0.11917  0.60318  1.0000
  Zn  Zn4       1.0  0.41384  0.11915  0.89682  1.0000
  H   H1        1.0  0.44274  0.49815  0.40841  1.0000
  H   H2        1.0  0.55729  0.49813  0.09158  1.0000
  H   H3        1.0  0.55724  0.50185  0.59158  1.0000
  H   H4        1.0  0.44277  0.50184  0.90843  1.0000
  H   H5        1.0  0.29620  0.81768  0.28065  1.0000
  H   H6        1.0  0.70378  0.81767  0.21935  1.0000
  H   H7        1.0  0.70380  0.18233  0.71935  1.0000
  H   H8        1.0  0.29625  0.18231  0.78066  1.0000
  H   H9        1.0  0.24551  0.26523  0.26135  1.0000
  H   H10       1.0  0.75440  0.26521  0.23866  1.0000
  H   H11       1.0  0.75441  0.73478  0.73865  1.0000
  H   H12       1.0  0.24561  0.73476  0.76136  1.0000
  H   H13       1.0  0.03384  0.90693  0.38367  1.0000
  H   H14       1.0  0.96617  0.90690  0.11632  1.0000
  H   H15       1.0  0.96617  0.09310  0.61632  1.0000
  H   H16       1.0  0.03385  0.09309  0.88368  1.0000
  H   H17       1.0  0.35580  0.76381  0.51327  1.0000
  H   H18       1.0  0.64419  0.76381  0.98673  1.0000
  H   H19       1.0  0.64418  0.23619  0.48673  1.0000
  H   H20       1.0  0.35582  0.23618  0.01328  1.0000
  H   H21       1.0  0.80097  0.72064  0.52895  1.0000
  H   H22       1.0  0.19902  0.72061  0.97104  1.0000
  H   H23       1.0  0.19901  0.27940  0.47104  1.0000
  H   H24       1.0  0.80099  0.27941  0.02896  1.0000
  C   C1        1.0  0.34606  0.36083  0.33792  1.0000
  C   C2        1.0  0.65391  0.36080  0.16208  1.0000
  C   C3        1.0  0.65390  0.63918  0.66207  1.0000
  C   C4        1.0  0.34612  0.63917  0.83793  1.0000
  C   C5        1.0  0.39051  0.50837  0.36721  1.0000
  C   C6        1.0  0.60948  0.50834  0.13279  1.0000
  C   C7        1.0  0.60946  0.49164  0.63279  1.0000
  C   C8        1.0  0.39055  0.49163  0.86722  1.0000
  C   C9        1.0  0.30959  0.68635  0.29556  1.0000
  C   C10       1.0  0.69038  0.68633  0.20444  1.0000
  C   C11       1.0  0.69038  0.31366  0.70444  1.0000
  C   C12       1.0  0.30964  0.31364  0.79557  1.0000
  C   C13       1.0  0.26328  0.54425  0.26390  1.0000
  C   C14       1.0  0.73667  0.54423  0.23610  1.0000
  C   C15       1.0  0.73667  0.45576  0.73610  1.0000
  C   C16       1.0  0.26335  0.45574  0.76391  1.0000
  C   C17       1.0  0.28112  0.37864  0.28497  1.0000
  C   C18       1.0  0.71883  0.37862  0.21504  1.0000
  C   C19       1.0  0.71882  0.62137  0.71503  1.0000
  C   C20       1.0  0.28119  0.62135  0.78498  1.0000
  C   C21       1.0  0.36774  0.18862  0.36448  1.0000
  C   C22       1.0  0.63224  0.18859  0.13553  1.0000
  C   C23       1.0  0.63223  0.81139  0.63552  1.0000
  C   C24       1.0  0.36779  0.81138  0.86448  1.0000
  C   C25       1.0  0.89767  0.81349  0.45308  1.0000
  C   C26       1.0  0.10233  0.81345  0.04691  1.0000
  C   C27       1.0  0.10232  0.18655  0.54691  1.0000
  C   C28       1.0  0.89769  0.18655  0.95309  1.0000
  C   C29       1.0  0.04510  0.85531  0.42467  1.0000
  C   C30       1.0  0.95491  0.85528  0.07532  1.0000
  C   C31       1.0  0.95491  0.14472  0.57532  1.0000
  C   C32       1.0  0.04511  0.14471  0.92468  1.0000
  C   C33       1.0  0.22440  0.77532  0.49711  1.0000
  C   C34       1.0  0.77559  0.77532  0.00288  1.0000
  C   C35       1.0  0.77559  0.22468  0.50288  1.0000
  C   C36       1.0  0.22442  0.22467  0.99712  1.0000
  C   C37       1.0  0.08149  0.73216  0.52778  1.0000
  C   C38       1.0  0.91850  0.73215  0.97222  1.0000
  C   C39       1.0  0.91849  0.26786  0.47222  1.0000
  C   C40       1.0  0.08151  0.26786  0.02779  1.0000
  C   C41       1.0  0.91545  0.75027  0.50584  1.0000
  C   C42       1.0  0.08454  0.75024  0.99415  1.0000
  C   C43       1.0  0.08453  0.24977  0.49415  1.0000
  C   C44       1.0  0.91547  0.24977  0.00585  1.0000
  C   C45       1.0  0.72433  0.84019  0.42683  1.0000
  C   C46       1.0  0.27568  0.84014  0.07316  1.0000
  C   C47       1.0  0.27567  0.15985  0.57316  1.0000
  C   C48       1.0  0.72434  0.15984  0.92684  1.0000
  N   N1        1.0  0.37169  0.66679  0.34637  1.0000
  N   N2        1.0  0.62829  0.66677  0.15362  1.0000
  N   N3        1.0  0.62828  0.33322  0.65362  1.0000
  N   N4        1.0  0.37174  0.33320  0.84639  1.0000
  N   N5        1.0  0.20396  0.83537  0.44619  1.0000
  N   N6        1.0  0.79604  0.83535  0.05380  1.0000
  N   N7        1.0  0.79604  0.16464  0.55380  1.0000
  N   N8        1.0  0.20398  0.16463  0.94620  1.0000
  Cl  Cl1       1.0  0.18331  0.57938  0.19931  1.0000
  Cl  Cl2       1.0  0.81663  0.57937  0.30069  1.0000
  Cl  Cl3       1.0  0.81665  0.42063  0.80068  1.0000
  Cl  Cl4       1.0  0.18339  0.42062  0.69932  1.0000
  Cl  Cl5       1.0  0.11245  0.65813  0.59299  1.0000
  Cl  Cl6       1.0  0.88754  0.65813  0.90700  1.0000
  Cl  Cl7       1.0  0.88752  0.34188  0.40700  1.0000
  Cl  Cl8       1.0  0.11248  0.34189  0.09300  1.0000
  O   O1        1.0  0.42064  0.18128  0.41315  1.0000
  O   O2        1.0  0.57938  0.18124  0.08685  1.0000
  O   O3        1.0  0.57937  0.81873  0.58684  1.0000
  O   O4        1.0  0.42067  0.81872  0.91316  1.0000
  O   O5        1.0  0.33086  0.05397  0.33643  1.0000
  O   O6        1.0  0.66910  0.05394  0.16358  1.0000
  O   O7        1.0  0.66910  0.94604  0.66357  1.0000
  O   O8        1.0  0.33092  0.94603  0.83643  1.0000
  O   O9        1.0  0.71253  0.91562  0.38171  1.0000
  O   O10       1.0  0.28748  0.91560  0.11827  1.0000
  O   O11       1.0  0.28749  0.08439  0.61827  1.0000
  O   O12       1.0  0.71253  0.08440  0.88173  1.0000
  O   O13       1.0  0.59253  0.78498  0.45233  1.0000
  O   O14       1.0  0.40749  0.78492  0.04766  1.0000
  O   O15       1.0  0.40748  0.21508  0.54766  1.0000
  O   O16       1.0  0.59254  0.21506  0.95234  1.0000
