data_image0
_chemical_formula_structural       Gd2H42C54O12
_chemical_formula_sum              "Gd2 H42 C54 O12"
_cell_length_a       7.57583
_cell_length_b       13.2888
_cell_length_c       13.2888
_cell_angle_alpha    116.469
_cell_angle_beta     100.956
_cell_angle_gamma    100.956

_space_group_name_H-M_alt    "P 1"
_space_group_IT_number       1

loop_
  _space_group_symop_operation_xyz
  'x, y, z'

loop_
  _atom_site_type_symbol
  _atom_site_label
  _atom_site_symmetry_multiplicity
  _atom_site_fract_x
  _atom_site_fract_y
  _atom_site_fract_z
  _atom_site_occupancy
  Gd  Gd1       1.0  0.66507  0.00008  0.00008  1.0000
  Gd  Gd2       1.0  0.16507  0.00008  0.00008  1.0000
  H   H1        1.0  0.26783  0.82692  0.17470  1.0000
  H   H2        1.0  0.44106  0.34781  0.17310  1.0000
  H   H3        1.0  0.09339  0.82536  0.65233  1.0000
  H   H4        1.0  0.59339  0.65233  0.82536  1.0000
  H   H5        1.0  0.76784  0.17470  0.82692  1.0000
  H   H6        1.0  0.94106  0.17309  0.34781  1.0000
  H   H7        1.0  0.46389  0.65475  0.03327  1.0000
  H   H8        1.0  0.80929  0.37851  0.34529  1.0000
  H   H9        1.0  0.43084  0.96669  0.62140  1.0000
  H   H10       1.0  0.93084  0.62140  0.96669  1.0000
  H   H11       1.0  0.96389  0.03327  0.65476  1.0000
  H   H12       1.0  0.30928  0.34529  0.37851  1.0000
  H   H13       1.0  0.34200  0.45527  0.98161  1.0000
  H   H14       1.0  0.88686  0.52637  0.54485  1.0000
  H   H15       1.0  0.36051  0.01840  0.47368  1.0000
  H   H16       1.0  0.86051  0.47368  0.01840  1.0000
  H   H17       1.0  0.84200  0.98161  0.45528  1.0000
  H   H18       1.0  0.38686  0.54485  0.52637  1.0000
  H   H19       1.0  0.17409  0.30036  0.01576  1.0000
  H   H20       1.0  0.87386  0.71546  0.69965  1.0000
  H   H21       1.0  0.15847  0.98435  0.28468  1.0000
  H   H22       1.0  0.65847  0.28468  0.98435  1.0000
  H   H23       1.0  0.67409  0.01576  0.30036  1.0000
  H   H24       1.0  0.37386  0.69965  0.71546  1.0000
  H   H25       1.0  0.01689  0.35242  0.17252  1.0000
  H   H26       1.0  0.66445  0.82004  0.64741  1.0000
  H   H27       1.0  0.84451  0.82753  0.17994  1.0000
  H   H28       1.0  0.34451  0.17994  0.82753  1.0000
  H   H29       1.0  0.51689  0.17252  0.35242  1.0000
  H   H30       1.0  0.16445  0.64742  0.82004  1.0000
  H   H31       1.0  0.03114  0.56300  0.29537  1.0000
  H   H32       1.0  0.46821  0.73223  0.43680  1.0000
  H   H33       1.0  0.73600  0.70456  0.26761  1.0000
  H   H34       1.0  0.23600  0.26761  0.70456  1.0000
  H   H35       1.0  0.53114  0.29537  0.56300  1.0000
  H   H36       1.0  0.96821  0.43680  0.73223  1.0000
  H   H37       1.0  0.19614  0.71754  0.26037  1.0000
  H   H38       1.0  0.47885  0.54276  0.28237  1.0000
  H   H39       1.0  0.93601  0.73946  0.45708  1.0000
  H   H40       1.0  0.43601  0.45708  0.73946  1.0000
  H   H41       1.0  0.69614  0.26037  0.71754  1.0000
  H   H42       1.0  0.97884  0.28237  0.54276  1.0000
  C   C1        1.0  0.45932  0.86782  0.08486  1.0000
  C   C2        1.0  0.59168  0.21708  0.13221  1.0000
  C   C3        1.0  0.37474  0.91523  0.78301  1.0000
  C   C4        1.0  0.87474  0.78301  0.91523  1.0000
  C   C5        1.0  0.95933  0.08486  0.86782  1.0000
  C   C6        1.0  0.09168  0.13221  0.21709  1.0000
  C   C7        1.0  0.36000  0.79261  0.12346  1.0000
  C   C8        1.0  0.56759  0.33088  0.20740  1.0000
  C   C9        1.0  0.23676  0.87654  0.66917  1.0000
  C   C10       1.0  0.73676  0.66917  0.87654  1.0000
  C   C11       1.0  0.86000  0.12346  0.79261  1.0000
  C   C12       1.0  0.06759  0.20740  0.33088  1.0000
  C   C13       1.0  0.37551  0.68355  0.09017  1.0000
  C   C14       1.0  0.69211  0.40662  0.31648  1.0000
  C   C15       1.0  0.28556  0.90977  0.59335  1.0000
  C   C16       1.0  0.78557  0.59335  0.90977  1.0000
  C   C17       1.0  0.87551  0.09017  0.68355  1.0000
  C   C18       1.0  0.19212  0.31648  0.40662  1.0000
  C   C19       1.0  0.27962  0.59727  0.11722  1.0000
  C   C20       1.0  0.68241  0.51993  0.40274  1.0000
  C   C21       1.0  0.16250  0.88269  0.48001  1.0000
  C   C22       1.0  0.66250  0.48001  0.88269  1.0000
  C   C23       1.0  0.77962  0.11722  0.59727  1.0000
  C   C24       1.0  0.18241  0.40274  0.51993  1.0000
  C   C25       1.0  0.27326  0.47864  0.05015  1.0000
  C   C26       1.0  0.79483  0.57158  0.52139  1.0000
  C   C27       1.0  0.22326  0.94979  0.42845  1.0000
  C   C28       1.0  0.72326  0.42845  0.94979  1.0000
  C   C29       1.0  0.77326  0.05015  0.47864  1.0000
  C   C30       1.0  0.29483  0.52139  0.57158  1.0000
  C   C31       1.0  0.17845  0.39152  0.06943  1.0000
  C   C32       1.0  0.78705  0.67794  0.60849  1.0000
  C   C33       1.0  0.10912  0.93063  0.32213  1.0000
  C   C34       1.0  0.60912  0.32213  0.93063  1.0000
  C   C35       1.0  0.67845  0.06943  0.39152  1.0000
  C   C36       1.0  0.28705  0.60849  0.67794  1.0000
  C   C37       1.0  0.09063  0.42088  0.15757  1.0000
  C   C38       1.0  0.66984  0.73665  0.57904  1.0000
  C   C39       1.0  0.93321  0.84246  0.26334  1.0000
  C   C40       1.0  0.43321  0.26334  0.84246  1.0000
  C   C41       1.0  0.59063  0.15757  0.42088  1.0000
  C   C42       1.0  0.16984  0.57904  0.73666  1.0000
  C   C43       1.0  0.09832  0.53887  0.22599  1.0000
  C   C44       1.0  0.55950  0.68705  0.46105  1.0000
  C   C45       1.0  0.87250  0.77397  0.31286  1.0000
  C   C46       1.0  0.37250  0.31286  0.77397  1.0000
  C   C47       1.0  0.59833  0.22599  0.53887  1.0000
  C   C48       1.0  0.05950  0.46105  0.68705  1.0000
  C   C49       1.0  0.19085  0.62616  0.20608  1.0000
  C   C50       1.0  0.56478  0.57989  0.37381  1.0000
  C   C51       1.0  0.98489  0.79381  0.42002  1.0000
  C   C52       1.0  0.48489  0.42002  0.79381  1.0000
  C   C53       1.0  0.69085  0.20608  0.62615  1.0000
  C   C54       1.0  0.06478  0.37381  0.57989  1.0000
  O   O1        1.0  0.42475  0.96607  0.10451  1.0000
  O   O2        1.0  0.45880  0.13845  0.03399  1.0000
  O   O3        1.0  0.32050  0.89568  0.86168  1.0000
  O   O4        1.0  0.82050  0.86168  0.89568  1.0000
  O   O5        1.0  0.92476  0.10451  0.96607  1.0000
  O   O6        1.0  0.95880  0.03399  0.13845  1.0000
  O   O7        1.0  0.58215  0.83940  0.03316  1.0000
  O   O8        1.0  0.74306  0.19390  0.16057  1.0000
  O   O9        1.0  0.54929  0.96685  0.80625  1.0000
  O   O10       1.0  0.04929  0.80625  0.96685  1.0000
  O   O11       1.0  0.08215  0.03316  0.83940  1.0000
  O   O12       1.0  0.24306  0.16057  0.19390  1.0000
