data_image0
_chemical_formula_structural       Yb2H42C54O12
_chemical_formula_sum              "Yb2 H42 C54 O12"
_cell_length_a       7.80495
_cell_length_b       11.3617
_cell_length_c       12.9131
_cell_angle_alpha    93.4125
_cell_angle_beta     90.0002
_cell_angle_gamma    90.0002

_space_group_name_H-M_alt    "P 1"
_space_group_IT_number       1

loop_
  _space_group_symop_operation_xyz
  'x, y, z'

loop_
  _atom_site_type_symbol
  _atom_site_label
  _atom_site_symmetry_multiplicity
  _atom_site_fract_x
  _atom_site_fract_y
  _atom_site_fract_z
  _atom_site_occupancy
  Yb  Yb1       1.0  0.57502  0.53987  0.47408  1.0000
  Yb  Yb2       1.0  0.07502  0.46013  0.52592  1.0000
  H   H1        1.0  0.75214  0.12860  0.60930  1.0000
  H   H2        1.0  0.25215  0.87140  0.39070  1.0000
  H   H3        1.0  0.41110  0.26607  0.60399  1.0000
  H   H4        1.0  0.91111  0.73393  0.39601  1.0000
  H   H5        1.0  0.61866  0.96127  0.59572  1.0000
  H   H6        1.0  0.11866  0.03873  0.40428  1.0000
  H   H7        1.0  0.45629  0.78023  0.62442  1.0000
  H   H8        1.0  0.95630  0.21977  0.37558  1.0000
  H   H9        1.0  0.14463  0.79016  0.66400  1.0000
  H   H10       1.0  0.64464  0.20984  0.33600  1.0000
  H   H11       1.0  0.99294  0.98356  0.66993  1.0000
  H   H12       1.0  0.49294  0.01644  0.33007  1.0000
  H   H13       1.0  0.15586  0.16696  0.63896  1.0000
  H   H14       1.0  0.65587  0.83304  0.36104  1.0000
  H   H15       1.0  0.48639  0.62518  0.75541  1.0000
  H   H16       1.0  0.98639  0.37482  0.24459  1.0000
  H   H17       1.0  0.25156  0.45243  0.86440  1.0000
  H   H18       1.0  0.75155  0.54757  0.13559  1.0000
  H   H19       1.0  0.52444  0.73174  0.90159  1.0000
  H   H20       1.0  0.02443  0.26825  0.09841  1.0000
  H   H21       1.0  0.58614  0.82715  0.07423  1.0000
  H   H22       1.0  0.08614  0.17285  0.92577  1.0000
  H   H23       1.0  0.48385  0.73565  0.23420  1.0000
  H   H24       1.0  0.98385  0.26435  0.76580  1.0000
  H   H25       1.0  0.31711  0.54992  0.21992  1.0000
  H   H26       1.0  0.81711  0.45007  0.78008  1.0000
  H   H27       1.0  0.25458  0.45313  0.04589  1.0000
  H   H28       1.0  0.75458  0.54686  0.95411  1.0000
  H   H29       1.0  0.21573  0.18440  0.26585  1.0000
  H   H30       1.0  0.71573  0.81560  0.73415  1.0000
  H   H31       1.0  0.51486  0.33138  0.18615  1.0000
  H   H32       1.0  0.01486  0.66862  0.81385  1.0000
  H   H33       1.0  0.26929  0.04276  0.14295  1.0000
  H   H34       1.0  0.76929  0.95724  0.85705  1.0000
  H   H35       1.0  0.26010  0.92845  0.97481  1.0000
  H   H36       1.0  0.76010  0.07156  0.02519  1.0000
  H   H37       1.0  0.39979  0.00535  0.81928  1.0000
  H   H38       1.0  0.89979  0.99465  0.18072  1.0000
  H   H39       1.0  0.55154  0.19910  0.83364  1.0000
  H   H40       1.0  0.05155  0.80090  0.16636  1.0000
  H   H41       1.0  0.56257  0.31390  0.00287  1.0000
  H   H42       1.0  0.06256  0.68610  0.99714  1.0000
  C   C1        1.0  0.73988  0.31747  0.59148  1.0000
  C   C2        1.0  0.23989  0.68253  0.40852  1.0000
  C   C3        1.0  0.66247  0.20168  0.60477  1.0000
  C   C4        1.0  0.16248  0.79832  0.39523  1.0000
  C   C5        1.0  0.49079  0.18746  0.60815  1.0000
  C   C6        1.0  0.99080  0.81254  0.39185  1.0000
  C   C7        1.0  0.39945  0.07762  0.61913  1.0000
  C   C8        1.0  0.89946  0.92238  0.38087  1.0000
  C   C9        1.0  0.48243  0.96717  0.61428  1.0000
  C   C10       1.0  0.98244  0.03283  0.38572  1.0000
  C   C11       1.0  0.39095  0.86501  0.63052  1.0000
  C   C12       1.0  0.89095  0.13499  0.36948  1.0000
  C   C13       1.0  0.21508  0.87077  0.65164  1.0000
  C   C14       1.0  0.71509  0.12922  0.34837  1.0000
  C   C15       1.0  0.13043  0.97925  0.65460  1.0000
  C   C16       1.0  0.63044  0.02074  0.34540  1.0000
  C   C17       1.0  0.22135  0.08194  0.63749  1.0000
  C   C18       1.0  0.72135  0.91806  0.36251  1.0000
  C   C19       1.0  0.31840  0.49794  0.67406  1.0000
  C   C20       1.0  0.81840  0.50206  0.32593  1.0000
  C   C21       1.0  0.39512  0.55464  0.76717  1.0000
  C   C22       1.0  0.89511  0.44537  0.23283  1.0000
  C   C23       1.0  0.34211  0.52582  0.86214  1.0000
  C   C24       1.0  0.84211  0.47418  0.13786  1.0000
  C   C25       1.0  0.38664  0.58427  0.96156  1.0000
  C   C26       1.0  0.88664  0.41573  0.03844  1.0000
  C   C27       1.0  0.48008  0.69060  0.97094  1.0000
  C   C28       1.0  0.98008  0.30939  0.02906  1.0000
  C   C29       1.0  0.51406  0.74490  0.06817  1.0000
  C   C30       1.0  0.01406  0.25510  0.93183  1.0000
  C   C31       1.0  0.45555  0.69447  0.15791  1.0000
  C   C32       1.0  0.95556  0.30553  0.84209  1.0000
  C   C33       1.0  0.36226  0.58932  0.15002  1.0000
  C   C34       1.0  0.86226  0.41068  0.84998  1.0000
  C   C35       1.0  0.32797  0.53492  0.05274  1.0000
  C   C36       1.0  0.82797  0.46508  0.94726  1.0000
  C   C37       1.0  0.33301  0.32906  0.35896  1.0000
  C   C38       1.0  0.83301  0.67094  0.64104  1.0000
  C   C39       1.0  0.31822  0.24961  0.26514  1.0000
  C   C40       1.0  0.81822  0.75039  0.73486  1.0000
  C   C41       1.0  0.42038  0.26009  0.18164  1.0000
  C   C42       1.0  0.92038  0.73991  0.81836  1.0000
  C   C43       1.0  0.41467  0.18799  0.08475  1.0000
  C   C44       1.0  0.91467  0.81201  0.91525  1.0000
  C   C45       1.0  0.33033  0.07811  0.07543  1.0000
  C   C46       1.0  0.83033  0.92189  0.92457  1.0000
  C   C47       1.0  0.32598  0.01312  0.98073  1.0000
  C   C48       1.0  0.82597  0.98688  0.01927  1.0000
  C   C49       1.0  0.40498  0.05632  0.89337  1.0000
  C   C50       1.0  0.90498  0.94368  0.10663  1.0000
  C   C51       1.0  0.48992  0.16479  0.90138  1.0000
  C   C52       1.0  0.98992  0.83521  0.09862  1.0000
  C   C53       1.0  0.49576  0.22950  0.99645  1.0000
  C   C54       1.0  0.99577  0.77050  0.00355  1.0000
  O   O1        1.0  0.64282  0.40794  0.58613  1.0000
  O   O2        1.0  0.14283  0.59206  0.41387  1.0000
  O   O3        1.0  0.90336  0.32295  0.58604  1.0000
  O   O4        1.0  0.40337  0.67705  0.41396  1.0000
  O   O5        1.0  0.34617  0.54287  0.58452  1.0000
  O   O6        1.0  0.84617  0.45714  0.41548  1.0000
  O   O7        1.0  0.21264  0.41314  0.67674  1.0000
  O   O8        1.0  0.71264  0.58686  0.32326  1.0000
  O   O9        1.0  0.21072  0.32688  0.42530  1.0000
  O   O10       1.0  0.71072  0.67312  0.57470  1.0000
  O   O11       1.0  0.46289  0.39666  0.37078  1.0000
  O   O12       1.0  0.96289  0.60334  0.62922  1.0000
