data_image0
_chemical_formula_structural       Tb2H42C54O12
_chemical_formula_sum              "Tb2 H42 C54 O12"
_cell_length_a       7.56517
_cell_length_b       13.2822
_cell_length_c       13.2823
_cell_angle_alpha    116.48
_cell_angle_beta     100.941
_cell_angle_gamma    100.941

_space_group_name_H-M_alt    "P 1"
_space_group_IT_number       1

loop_
  _space_group_symop_operation_xyz
  'x, y, z'

loop_
  _atom_site_type_symbol
  _atom_site_label
  _atom_site_symmetry_multiplicity
  _atom_site_fract_x
  _atom_site_fract_y
  _atom_site_fract_z
  _atom_site_occupancy
  Tb  Tb1       1.0  0.83256  0.00005  0.00005  1.0000
  Tb  Tb2       1.0  0.33255  0.00005  0.00005  1.0000
  H   H1        1.0  0.26141  0.65234  0.82495  1.0000
  H   H2        1.0  0.60872  0.17261  0.34760  1.0000
  H   H3        1.0  0.43628  0.17514  0.82746  1.0000
  H   H4        1.0  0.93628  0.82746  0.17514  1.0000
  H   H5        1.0  0.76141  0.82496  0.65234  1.0000
  H   H6        1.0  0.10872  0.34760  0.17261  1.0000
  H   H7        1.0  0.59927  0.62201  0.96703  1.0000
  H   H8        1.0  0.97685  0.34497  0.37784  1.0000
  H   H9        1.0  0.63193  0.03295  0.65504  1.0000
  H   H10       1.0  0.13193  0.65504  0.03295  1.0000
  H   H11       1.0  0.09927  0.96703  0.62201  1.0000
  H   H12       1.0  0.47685  0.37784  0.34497  1.0000
  H   H13       1.0  0.52880  0.47467  0.01923  1.0000
  H   H14       1.0  0.05394  0.54449  0.52525  1.0000
  H   H15       1.0  0.50961  0.98084  0.45552  1.0000
  H   H16       1.0  0.00961  0.45552  0.98084  1.0000
  H   H17       1.0  0.02880  0.01923  0.47467  1.0000
  H   H18       1.0  0.55394  0.52525  0.54449  1.0000
  H   H19       1.0  0.32676  0.28540  0.98498  1.0000
  H   H20       1.0  0.04148  0.69946  0.71462  1.0000
  H   H21       1.0  0.34179  0.01511  0.30051  1.0000
  H   H22       1.0  0.84179  0.30051  0.01511  1.0000
  H   H23       1.0  0.82676  0.98498  0.28540  1.0000
  H   H24       1.0  0.54148  0.71462  0.69946  1.0000
  H   H25       1.0  0.01304  0.18009  0.82752  1.0000
  H   H26       1.0  0.83304  0.64732  0.82000  1.0000
  H   H27       1.0  0.18535  0.17246  0.35255  1.0000
  H   H28       1.0  0.68534  0.35255  0.17246  1.0000
  H   H29       1.0  0.51304  0.82752  0.18009  1.0000
  H   H30       1.0  0.33304  0.82000  0.64733  1.0000
  H   H31       1.0  0.90465  0.26745  0.70398  1.0000
  H   H32       1.0  0.63716  0.43650  0.73257  1.0000
  H   H33       1.0  0.20032  0.29598  0.56339  1.0000
  H   H34       1.0  0.70032  0.56339  0.29598  1.0000
  H   H35       1.0  0.40465  0.70398  0.26745  1.0000
  H   H36       1.0  0.13716  0.73257  0.43650  1.0000
  H   H37       1.0  0.10469  0.45717  0.73904  1.0000
  H   H38       1.0  0.64714  0.28187  0.54276  1.0000
  H   H39       1.0  0.36510  0.26085  0.71807  1.0000
  H   H40       1.0  0.86510  0.71807  0.26086  1.0000
  H   H41       1.0  0.60469  0.73904  0.45717  1.0000
  H   H42       1.0  0.14714  0.54276  0.28187  1.0000
  C   C1        1.0  0.54214  0.78378  0.91539  1.0000
  C   C2        1.0  0.75821  0.13163  0.21620  1.0000
  C   C3        1.0  0.62666  0.08466  0.86845  1.0000
  C   C4        1.0  0.12666  0.86844  0.08466  1.0000
  C   C5        1.0  0.04214  0.91540  0.78378  1.0000
  C   C6        1.0  0.25821  0.21619  0.13163  1.0000
  C   C7        1.0  0.40486  0.66961  0.87655  1.0000
  C   C8        1.0  0.73484  0.20696  0.33029  1.0000
  C   C9        1.0  0.52810  0.12351  0.79313  1.0000
  C   C10       1.0  0.02810  0.79313  0.12351  1.0000
  C   C11       1.0  0.90486  0.87655  0.66961  1.0000
  C   C12       1.0  0.23484  0.33029  0.20695  1.0000
  C   C13       1.0  0.45396  0.59393  0.90997  1.0000
  C   C14       1.0  0.85963  0.31603  0.40595  1.0000
  C   C15       1.0  0.54374  0.09006  0.68402  1.0000
  C   C16       1.0  0.04374  0.68402  0.09006  1.0000
  C   C17       1.0  0.95396  0.90997  0.59393  1.0000
  C   C18       1.0  0.35963  0.40595  0.31603  1.0000
  C   C19       1.0  0.33098  0.48054  0.88288  1.0000
  C   C20       1.0  0.85017  0.40231  0.51939  1.0000
  C   C21       1.0  0.44792  0.11717  0.59771  1.0000
  C   C22       1.0  0.94792  0.59771  0.11717  1.0000
  C   C23       1.0  0.83098  0.88288  0.48054  1.0000
  C   C24       1.0  0.35017  0.51939  0.40231  1.0000
  C   C25       1.0  0.39165  0.42923  0.95028  1.0000
  C   C26       1.0  0.96225  0.52099  0.57073  1.0000
  C   C27       1.0  0.44138  0.04980  0.47903  1.0000
  C   C28       1.0  0.94138  0.47903  0.04980  1.0000
  C   C29       1.0  0.89165  0.95028  0.42923  1.0000
  C   C30       1.0  0.46224  0.57073  0.52099  1.0000
  C   C31       1.0  0.27753  0.32278  0.93105  1.0000
  C   C32       1.0  0.95475  0.60820  0.67724  1.0000
  C   C33       1.0  0.34640  0.06900  0.39180  1.0000
  C   C34       1.0  0.84640  0.39180  0.06900  1.0000
  C   C35       1.0  0.77754  0.93105  0.32278  1.0000
  C   C36       1.0  0.45475  0.67724  0.60820  1.0000
  C   C37       1.0  0.10175  0.26362  0.84246  1.0000
  C   C38       1.0  0.83816  0.57877  0.73643  1.0000
  C   C39       1.0  0.25909  0.15755  0.42117  1.0000
  C   C40       1.0  0.75909  0.42117  0.15755  1.0000
  C   C41       1.0  0.60175  0.84246  0.26362  1.0000
  C   C42       1.0  0.33816  0.73643  0.57877  1.0000
  C   C43       1.0  0.04104  0.31298  0.77369  1.0000
  C   C44       1.0  0.72803  0.46065  0.68703  1.0000
  C   C45       1.0  0.26707  0.22632  0.53926  1.0000
  C   C46       1.0  0.76707  0.53926  0.22632  1.0000
  C   C47       1.0  0.54104  0.77369  0.31298  1.0000
  C   C48       1.0  0.22803  0.68703  0.46065  1.0000
  C   C49       1.0  0.15351  0.42027  0.79366  1.0000
  C   C50       1.0  0.73304  0.37334  0.57969  1.0000
  C   C51       1.0  0.35949  0.20631  0.62658  1.0000
  C   C52       1.0  0.85949  0.62658  0.20632  1.0000
  C   C53       1.0  0.65351  0.79366  0.42027  1.0000
  C   C54       1.0  0.23304  0.57969  0.37334  1.0000
  O   O1        1.0  0.48738  0.86232  0.89589  1.0000
  O   O2        1.0  0.62504  0.03355  0.13766  1.0000
  O   O3        1.0  0.59144  0.10415  0.96650  1.0000
  O   O4        1.0  0.09144  0.96650  0.10415  1.0000
  O   O5        1.0  0.98738  0.89590  0.86231  1.0000
  O   O6        1.0  0.12504  0.13766  0.03354  1.0000
  O   O7        1.0  0.71709  0.80748  0.96702  1.0000
  O   O8        1.0  0.90956  0.15958  0.19259  1.0000
  O   O9        1.0  0.74998  0.03304  0.84049  1.0000
  O   O10       1.0  0.24998  0.84049  0.03304  1.0000
  O   O11       1.0  0.21709  0.96702  0.80748  1.0000
  O   O12       1.0  0.40956  0.19259  0.15958  1.0000
