data_image0
_chemical_formula_structural       Tm2H42C54O12
_chemical_formula_sum              "Tm2 H42 C54 O12"
_cell_length_a       7.84312
_cell_length_b       11.3436
_cell_length_c       12.925
_cell_angle_alpha    93.2554
_cell_angle_beta     90
_cell_angle_gamma    89.9999

_space_group_name_H-M_alt    "P 1"
_space_group_IT_number       1

loop_
  _space_group_symop_operation_xyz
  'x, y, z'

loop_
  _atom_site_type_symbol
  _atom_site_label
  _atom_site_symmetry_multiplicity
  _atom_site_fract_x
  _atom_site_fract_y
  _atom_site_fract_z
  _atom_site_occupancy
  Tm  Tm1       1.0  0.53433  0.54024  0.47411  1.0000
  Tm  Tm2       1.0  0.03433  0.45976  0.52589  1.0000
  H   H1        1.0  0.71076  0.12714  0.61010  1.0000
  H   H2        1.0  0.21075  0.87285  0.38989  1.0000
  H   H3        1.0  0.37230  0.26549  0.60433  1.0000
  H   H4        1.0  0.87230  0.73451  0.39566  1.0000
  H   H5        1.0  0.57673  0.95963  0.59692  1.0000
  H   H6        1.0  0.07671  0.04037  0.40307  1.0000
  H   H7        1.0  0.41376  0.77869  0.62557  1.0000
  H   H8        1.0  0.91374  0.22131  0.37443  1.0000
  H   H9        1.0  0.10430  0.78922  0.66450  1.0000
  H   H10       1.0  0.60428  0.21077  0.33550  1.0000
  H   H11       1.0  0.95459  0.98363  0.67076  1.0000
  H   H12       1.0  0.45458  0.01636  0.32924  1.0000
  H   H13       1.0  0.11765  0.16692  0.63895  1.0000
  H   H14       1.0  0.61764  0.83307  0.36104  1.0000
  H   H15       1.0  0.44405  0.62489  0.75625  1.0000
  H   H16       1.0  0.94405  0.37512  0.24375  1.0000
  H   H17       1.0  0.20985  0.45175  0.86511  1.0000
  H   H18       1.0  0.70984  0.54825  0.13490  1.0000
  H   H19       1.0  0.48195  0.73133  0.90168  1.0000
  H   H20       1.0  0.98195  0.26868  0.09832  1.0000
  H   H21       1.0  0.54411  0.82648  0.07393  1.0000
  H   H22       1.0  0.04411  0.17353  0.92607  1.0000
  H   H23       1.0  0.44164  0.73517  0.23393  1.0000
  H   H24       1.0  0.94164  0.26483  0.76607  1.0000
  H   H25       1.0  0.27383  0.54980  0.22003  1.0000
  H   H26       1.0  0.77383  0.45020  0.77997  1.0000
  H   H27       1.0  0.21082  0.45328  0.04638  1.0000
  H   H28       1.0  0.71081  0.54673  0.95363  1.0000
  H   H29       1.0  0.67492  0.81543  0.73451  1.0000
  H   H30       1.0  0.17492  0.18457  0.26549  1.0000
  H   H31       1.0  0.97351  0.66915  0.81455  1.0000
  H   H32       1.0  0.47351  0.33085  0.18545  1.0000
  H   H33       1.0  0.72545  0.95696  0.85729  1.0000
  H   H34       1.0  0.22545  0.04304  0.14271  1.0000
  H   H35       1.0  0.71699  0.07171  0.02489  1.0000
  H   H36       1.0  0.21698  0.92829  0.97511  1.0000
  H   H37       1.0  0.85791  0.99540  0.18011  1.0000
  H   H38       1.0  0.35789  0.00460  0.81988  1.0000
  H   H39       1.0  0.01035  0.80181  0.16596  1.0000
  H   H40       1.0  0.51034  0.19818  0.83404  1.0000
  H   H41       1.0  0.02171  0.68695  0.99709  1.0000
  H   H42       1.0  0.52171  0.31304  0.00291  1.0000
  C   C1        1.0  0.69958  0.31637  0.59197  1.0000
  C   C2        1.0  0.19958  0.68363  0.40802  1.0000
  C   C3        1.0  0.62192  0.20054  0.60553  1.0000
  C   C4        1.0  0.12191  0.79946  0.39446  1.0000
  C   C5        1.0  0.45099  0.18649  0.60857  1.0000
  C   C6        1.0  0.95098  0.81351  0.39142  1.0000
  C   C7        1.0  0.35927  0.07671  0.61949  1.0000
  C   C8        1.0  0.85926  0.92328  0.38051  1.0000
  C   C9        1.0  0.44108  0.96587  0.61506  1.0000
  C   C10       1.0  0.94106  0.03413  0.38494  1.0000
  C   C11       1.0  0.34945  0.86379  0.63138  1.0000
  C   C12       1.0  0.84943  0.13621  0.36862  1.0000
  C   C13       1.0  0.17458  0.86999  0.65234  1.0000
  C   C14       1.0  0.67456  0.13000  0.34766  1.0000
  C   C15       1.0  0.09115  0.97891  0.65508  1.0000
  C   C16       1.0  0.59114  0.02108  0.34492  1.0000
  C   C17       1.0  0.18211  0.08154  0.63785  1.0000
  C   C18       1.0  0.68210  0.91845  0.36214  1.0000
  C   C19       1.0  0.27745  0.49746  0.67476  1.0000
  C   C20       1.0  0.77745  0.50255  0.32525  1.0000
  C   C21       1.0  0.35335  0.55405  0.76787  1.0000
  C   C22       1.0  0.85335  0.44595  0.23214  1.0000
  C   C23       1.0  0.29993  0.52528  0.86272  1.0000
  C   C24       1.0  0.79992  0.47473  0.13728  1.0000
  C   C25       1.0  0.34398  0.58391  0.96194  1.0000
  C   C26       1.0  0.84398  0.41610  0.03806  1.0000
  C   C27       1.0  0.43755  0.69022  0.97108  1.0000
  C   C28       1.0  0.93755  0.30978  0.02893  1.0000
  C   C29       1.0  0.47186  0.74435  0.06809  1.0000
  C   C30       1.0  0.97186  0.25566  0.93191  1.0000
  C   C31       1.0  0.41310  0.69405  0.15783  1.0000
  C   C32       1.0  0.91310  0.30596  0.84217  1.0000
  C   C33       1.0  0.31934  0.58915  0.15021  1.0000
  C   C34       1.0  0.81934  0.41085  0.84979  1.0000
  C   C35       1.0  0.28487  0.53478  0.05314  1.0000
  C   C36       1.0  0.78486  0.46522  0.94686  1.0000
  C   C37       1.0  0.79212  0.67112  0.64150  1.0000
  C   C38       1.0  0.29212  0.32888  0.35850  1.0000
  C   C39       1.0  0.77734  0.75046  0.73517  1.0000
  C   C40       1.0  0.27734  0.24954  0.26483  1.0000
  C   C41       1.0  0.87902  0.74026  0.81867  1.0000
  C   C42       1.0  0.37902  0.25974  0.18133  1.0000
  C   C43       1.0  0.87285  0.81249  0.91532  1.0000
  C   C44       1.0  0.37286  0.18751  0.08468  1.0000
  C   C45       1.0  0.78760  0.92204  0.92460  1.0000
  C   C46       1.0  0.28759  0.07796  0.07540  1.0000
  C   C47       1.0  0.78319  0.98714  0.01905  1.0000
  C   C48       1.0  0.28318  0.01286  0.98095  1.0000
  C   C49       1.0  0.86299  0.94429  0.10622  1.0000
  C   C50       1.0  0.36298  0.05570  0.89378  1.0000
  C   C51       1.0  0.94831  0.83598  0.09835  1.0000
  C   C52       1.0  0.44831  0.16402  0.90166  1.0000
  C   C53       1.0  0.95450  0.77125  0.00349  1.0000
  C   C54       1.0  0.45450  0.22874  0.99651  1.0000
  O   O1        1.0  0.60364  0.40732  0.58639  1.0000
  O   O2        1.0  0.10364  0.59268  0.41360  1.0000
  O   O3        1.0  0.86233  0.32143  0.58656  1.0000
  O   O4        1.0  0.36232  0.67857  0.41344  1.0000
  O   O5        1.0  0.30583  0.54262  0.58532  1.0000
  O   O6        1.0  0.80583  0.45739  0.41468  1.0000
  O   O7        1.0  0.17222  0.41249  0.67741  1.0000
  O   O8        1.0  0.67222  0.58752  0.32259  1.0000
  O   O9        1.0  0.67057  0.67350  0.57511  1.0000
  O   O10       1.0  0.17057  0.32650  0.42489  1.0000
  O   O11       1.0  0.92146  0.60352  0.62976  1.0000
  O   O12       1.0  0.42146  0.39648  0.37024  1.0000
