data_image0
_chemical_formula_structural       Sm2H42C54O12
_chemical_formula_sum              "Sm2 H42 C54 O12"
_cell_length_a       7.64212
_cell_length_b       13.3058
_cell_length_c       13.3058
_cell_angle_alpha    116.416
_cell_angle_beta     101.046
_cell_angle_gamma    101.046

_space_group_name_H-M_alt    "P 1"
_space_group_IT_number       1

loop_
  _space_group_symop_operation_xyz
  'x, y, z'

loop_
  _atom_site_type_symbol
  _atom_site_label
  _atom_site_symmetry_multiplicity
  _atom_site_fract_x
  _atom_site_fract_y
  _atom_site_fract_z
  _atom_site_occupancy
  Sm  Sm1       1.0  0.00087  0.00004  0.00004  1.0000
  Sm  Sm2       1.0  0.50087  0.00004  0.00004  1.0000
  H   H1        1.0  0.43097  0.65096  0.82524  1.0000
  H   H2        1.0  0.77986  0.17434  0.34907  1.0000
  H   H3        1.0  0.60548  0.17466  0.82563  1.0000
  H   H4        1.0  0.10548  0.82563  0.17466  1.0000
  H   H5        1.0  0.93097  0.82524  0.65096  1.0000
  H   H6        1.0  0.27986  0.34907  0.17434  1.0000
  H   H7        1.0  0.76474  0.61962  0.96694  1.0000
  H   H8        1.0  0.14502  0.34734  0.38040  1.0000
  H   H9        1.0  0.79763  0.03314  0.65268  1.0000
  H   H10       1.0  0.29763  0.65268  0.03314  1.0000
  H   H11       1.0  0.26474  0.96694  0.61962  1.0000
  H   H12       1.0  0.64502  0.38040  0.34734  1.0000
  H   H13       1.0  0.69483  0.47077  0.01730  1.0000
  H   H14       1.0  0.22400  0.54656  0.52919  1.0000
  H   H15       1.0  0.67757  0.98282  0.45356  1.0000
  H   H16       1.0  0.17757  0.45356  0.98282  1.0000
  H   H17       1.0  0.19483  0.01730  0.47077  1.0000
  H   H18       1.0  0.72400  0.52919  0.54656  1.0000
  H   H19       1.0  0.49254  0.28194  0.98254  1.0000
  H   H20       1.0  0.21058  0.70061  0.71802  1.0000
  H   H21       1.0  0.50998  0.01754  0.29945  1.0000
  H   H22       1.0  0.00998  0.29945  0.01754  1.0000
  H   H23       1.0  0.99253  0.98254  0.28194  1.0000
  H   H24       1.0  0.71058  0.71802  0.70061  1.0000
  H   H25       1.0  0.18022  0.17862  0.82649  1.0000
  H   H26       1.0  0.00159  0.64781  0.82128  1.0000
  H   H27       1.0  0.35372  0.17353  0.35218  1.0000
  H   H28       1.0  0.85372  0.35218  0.17353  1.0000
  H   H29       1.0  0.68022  0.82649  0.17862  1.0000
  H   H30       1.0  0.50159  0.82128  0.64781  1.0000
  H   H31       1.0  0.07215  0.26763  0.70513  1.0000
  H   H32       1.0  0.80465  0.43745  0.73234  1.0000
  H   H33       1.0  0.36697  0.29486  0.56249  1.0000
  H   H34       1.0  0.86697  0.56249  0.29486  1.0000
  H   H35       1.0  0.57215  0.70513  0.26763  1.0000
  H   H36       1.0  0.30465  0.73234  0.43745  1.0000
  H   H37       1.0  0.27243  0.45700  0.74075  1.0000
  H   H38       1.0  0.81555  0.28371  0.54299  1.0000
  H   H39       1.0  0.53145  0.25915  0.71622  1.0000
  H   H40       1.0  0.03145  0.71622  0.25915  1.0000
  H   H41       1.0  0.77243  0.74074  0.45700  1.0000
  H   H42       1.0  0.31555  0.54299  0.28371  1.0000
  C   C1        1.0  0.71055  0.78097  0.91521  1.0000
  C   C2        1.0  0.92939  0.13430  0.21909  1.0000
  C   C3        1.0  0.79519  0.08474  0.86570  1.0000
  C   C4        1.0  0.29519  0.86570  0.08474  1.0000
  C   C5        1.0  0.21055  0.91521  0.78097  1.0000
  C   C6        1.0  0.42939  0.21909  0.13430  1.0000
  C   C7        1.0  0.57294  0.66748  0.87668  1.0000
  C   C8        1.0  0.90527  0.20927  0.33255  1.0000
  C   C9        1.0  0.69599  0.12323  0.79074  1.0000
  C   C10       1.0  0.19599  0.79074  0.12323  1.0000
  C   C11       1.0  0.07294  0.87668  0.66748  1.0000
  C   C12       1.0  0.40527  0.33255  0.20927  1.0000
  C   C13       1.0  0.62056  0.59167  0.91002  1.0000
  C   C14       1.0  0.02878  0.31842  0.40834  1.0000
  C   C15       1.0  0.71027  0.08995  0.68160  1.0000
  C   C16       1.0  0.21027  0.68160  0.08995  1.0000
  C   C17       1.0  0.12056  0.91002  0.59167  1.0000
  C   C18       1.0  0.52877  0.40834  0.31842  1.0000
  C   C19       1.0  0.49787  0.47845  0.88276  1.0000
  C   C20       1.0  0.01939  0.40435  0.52154  1.0000
  C   C21       1.0  0.61489  0.11722  0.59568  1.0000
  C   C22       1.0  0.11489  0.59568  0.11722  1.0000
  C   C23       1.0  0.99787  0.88276  0.47845  1.0000
  C   C24       1.0  0.51939  0.52154  0.40435  1.0000
  C   C25       1.0  0.55809  0.42621  0.94898  1.0000
  C   C26       1.0  0.13180  0.52280  0.57374  1.0000
  C   C27       1.0  0.60896  0.05103  0.47726  1.0000
  C   C28       1.0  0.10896  0.47726  0.05103  1.0000
  C   C29       1.0  0.05809  0.94898  0.42621  1.0000
  C   C30       1.0  0.63180  0.57374  0.52280  1.0000
  C   C31       1.0  0.44401  0.31994  0.92936  1.0000
  C   C32       1.0  0.12410  0.60943  0.68003  1.0000
  C   C33       1.0  0.51459  0.07066  0.39060  1.0000
  C   C34       1.0  0.01459  0.39060  0.07066  1.0000
  C   C35       1.0  0.94401  0.92936  0.31993  1.0000
  C   C36       1.0  0.62410  0.68003  0.60943  1.0000
  C   C37       1.0  0.26879  0.26197  0.84166  1.0000
  C   C38       1.0  0.00689  0.57964  0.73799  1.0000
  C   C39       1.0  0.42707  0.15835  0.42034  1.0000
  C   C40       1.0  0.92707  0.42034  0.15835  1.0000
  C   C41       1.0  0.76878  0.84166  0.26197  1.0000
  C   C42       1.0  0.50689  0.73799  0.57964  1.0000
  C   C43       1.0  0.20837  0.31217  0.77400  1.0000
  C   C44       1.0  0.89628  0.46178  0.68780  1.0000
  C   C45       1.0  0.43431  0.22601  0.53818  1.0000
  C   C46       1.0  0.93431  0.53818  0.22601  1.0000
  C   C47       1.0  0.70837  0.77400  0.31216  1.0000
  C   C48       1.0  0.39629  0.68780  0.46178  1.0000
  C   C49       1.0  0.32088  0.41928  0.79438  1.0000
  C   C50       1.0  0.90164  0.37508  0.58070  1.0000
  C   C51       1.0  0.52630  0.20558  0.62488  1.0000
  C   C52       1.0  0.02630  0.62488  0.20558  1.0000
  C   C53       1.0  0.82088  0.79438  0.41928  1.0000
  C   C54       1.0  0.40164  0.58070  0.37508  1.0000
  O   O1        1.0  0.88370  0.80354  0.96641  1.0000
  O   O2        1.0  0.07992  0.16298  0.19651  1.0000
  O   O3        1.0  0.91711  0.03355  0.83705  1.0000
  O   O4        1.0  0.41711  0.83705  0.03355  1.0000
  O   O5        1.0  0.38370  0.96641  0.80354  1.0000
  O   O6        1.0  0.57992  0.19651  0.16298  1.0000
  O   O7        1.0  0.65698  0.85966  0.89578  1.0000
  O   O8        1.0  0.79715  0.03613  0.14044  1.0000
  O   O9        1.0  0.76124  0.10425  0.96388  1.0000
  O   O10       1.0  0.26124  0.96388  0.10425  1.0000
  O   O11       1.0  0.15698  0.89578  0.85966  1.0000
  O   O12       1.0  0.29715  0.14044  0.03613  1.0000
