data_image0
_chemical_formula_structural       Ag8H24C36N12O16
_chemical_formula_sum              "Ag8 H24 C36 N12 O16"
_cell_length_a       6.74567
_cell_length_b       10.3625
_cell_length_c       16.068
_cell_angle_alpha    86.9065
_cell_angle_beta     78.0376
_cell_angle_gamma    79.3169

_space_group_name_H-M_alt    "P 1"
_space_group_IT_number       1

loop_
  _space_group_symop_operation_xyz
  'x, y, z'

loop_
  _atom_site_type_symbol
  _atom_site_label
  _atom_site_symmetry_multiplicity
  _atom_site_fract_x
  _atom_site_fract_y
  _atom_site_fract_z
  _atom_site_occupancy
  Ag  Ag1       1.0  0.83358  0.05811  0.30876  1.0000
  Ag  Ag2       1.0  0.16642  0.94189  0.69124  1.0000
  Ag  Ag3       1.0  0.78687  0.29370  0.21721  1.0000
  Ag  Ag4       1.0  0.21313  0.70630  0.78279  1.0000
  Ag  Ag5       1.0  0.58838  0.79721  0.67262  1.0000
  Ag  Ag6       1.0  0.41162  0.20279  0.32738  1.0000
  Ag  Ag7       1.0  0.24540  0.41523  0.14386  1.0000
  Ag  Ag8       1.0  0.75460  0.58477  0.85614  1.0000
  H   H1        1.0  0.50091  0.76084  0.99317  1.0000
  H   H2        1.0  0.49909  0.23916  0.00683  1.0000
  H   H3        1.0  0.41445  0.77227  0.15434  1.0000
  H   H4        1.0  0.58556  0.22773  0.84566  1.0000
  H   H5        1.0  0.58046  0.57865  0.23413  1.0000
  H   H6        1.0  0.41954  0.42136  0.76587  1.0000
  H   H7        1.0  0.52869  0.62432  0.54250  1.0000
  H   H8        1.0  0.47131  0.37568  0.45750  1.0000
  H   H9        1.0  0.58737  0.60550  0.38264  1.0000
  H   H10       1.0  0.41263  0.39450  0.61736  1.0000
  H   H11       1.0  0.72874  0.79227  0.29439  1.0000
  H   H12       1.0  0.27125  0.20773  0.70561  1.0000
  H   H13       1.0  0.19522  0.67264  0.43388  1.0000
  H   H14       1.0  0.80478  0.32736  0.56612  1.0000
  H   H15       1.0  0.84731  0.97404  0.03471  1.0000
  H   H16       1.0  0.15269  0.02597  0.96529  1.0000
  H   H17       1.0  0.93258  0.28606  0.03369  1.0000
  H   H18       1.0  0.06742  0.71394  0.96631  1.0000
  H   H19       1.0  0.89487  0.36249  0.93498  1.0000
  H   H20       1.0  0.10513  0.63751  0.06502  1.0000
  H   H21       1.0  0.81815  0.06910  0.48370  1.0000
  H   H22       1.0  0.18185  0.93090  0.51630  1.0000
  H   H23       1.0  0.75770  0.99380  0.58413  1.0000
  H   H24       1.0  0.24230  0.00620  0.41587  1.0000
  C   C1        1.0  0.75932  0.47346  0.03910  1.0000
  C   C2        1.0  0.24068  0.52653  0.96090  1.0000
  C   C3        1.0  0.56216  0.68177  0.03312  1.0000
  C   C4        1.0  0.43784  0.31823  0.96688  1.0000
  C   C5        1.0  0.51549  0.68850  0.12121  1.0000
  C   C6        1.0  0.48452  0.31150  0.87879  1.0000
  C   C7        1.0  0.60492  0.58138  0.16489  1.0000
  C   C8        1.0  0.39509  0.41863  0.83511  1.0000
  C   C9        1.0  0.71375  0.89447  0.48558  1.0000
  C   C10       1.0  0.28624  0.10553  0.51442  1.0000
  C   C11       1.0  0.58950  0.69878  0.49938  1.0000
  C   C12       1.0  0.41050  0.30121  0.50062  1.0000
  C   C13       1.0  0.61742  0.69015  0.41188  1.0000
  C   C14       1.0  0.38258  0.30985  0.58811  1.0000
  C   C15       1.0  0.69983  0.79026  0.36363  1.0000
  C   C16       1.0  0.30017  0.20974  0.63637  1.0000
  C   C17       1.0  0.12574  0.52265  0.31573  1.0000
  C   C18       1.0  0.87426  0.47735  0.68427  1.0000
  C   C19       1.0  0.05677  0.51099  0.41079  1.0000
  C   C20       1.0  0.94323  0.48901  0.58921  1.0000
  C   C21       1.0  0.94371  0.41372  0.44812  1.0000
  C   C22       1.0  0.05629  0.58627  0.55189  1.0000
  C   C23       1.0  0.10951  0.59691  0.46332  1.0000
  C   C24       1.0  0.89048  0.40309  0.53668  1.0000
  C   C25       1.0  0.87010  0.32625  0.39369  1.0000
  C   C26       1.0  0.12990  0.67375  0.60631  1.0000
  C   C27       1.0  0.69540  0.98468  0.01902  1.0000
  C   C28       1.0  0.30461  0.01532  0.98098  1.0000
  C   C29       1.0  0.52148  0.02309  0.08247  1.0000
  C   C30       1.0  0.47852  0.97691  0.91753  1.0000
  C   C31       1.0  0.67615  0.96244  0.93635  1.0000
  C   C32       1.0  0.32385  0.03756  0.06365  1.0000
  C   C33       1.0  0.55182  0.05575  0.16817  1.0000
  C   C34       1.0  0.44819  0.94425  0.83183  1.0000
  C   C35       1.0  0.86384  0.92389  0.86795  1.0000
  C   C36       1.0  0.13616  0.07611  0.13205  1.0000
  N   N1        1.0  0.87081  0.36523  0.99942  1.0000
  N   N2        1.0  0.12919  0.63477  0.00058  1.0000
  N   N3        1.0  0.72406  0.47488  0.12549  1.0000
  N   N4        1.0  0.27594  0.52512  0.87451  1.0000
  N   N5        1.0  0.68450  0.57741  0.99144  1.0000
  N   N6        1.0  0.31550  0.42259  0.00856  1.0000
  N   N7        1.0  0.75467  0.99824  0.52123  1.0000
  N   N8        1.0  0.24533  0.00176  0.47877  1.0000
  N   N9        1.0  0.74700  0.89116  0.39952  1.0000
  N   N10       1.0  0.25300  0.10884  0.60048  1.0000
  N   N11       1.0  0.63618  0.79900  0.53686  1.0000
  N   N12       1.0  0.36382  0.20100  0.46314  1.0000
  O   O1        1.0  0.76029  0.38539  0.34247  1.0000
  O   O2        1.0  0.23971  0.61461  0.65753  1.0000
  O   O3        1.0  0.91715  0.20297  0.40461  1.0000
  O   O4        1.0  0.08285  0.79703  0.59539  1.0000
  O   O5        1.0  0.19067  0.40959  0.27785  1.0000
  O   O6        1.0  0.80933  0.59041  0.72215  1.0000
  O   O7        1.0  0.12116  0.63221  0.27986  1.0000
  O   O8        1.0  0.87884  0.36779  0.72014  1.0000
  O   O9        1.0  0.65936  0.97202  0.20694  1.0000
  O   O10       1.0  0.34063  0.02798  0.79307  1.0000
  O   O11       1.0  0.46727  0.17416  0.19256  1.0000
  O   O12       1.0  0.53273  0.82584  0.80744  1.0000
  O   O13       1.0  0.86595  0.98047  0.79664  1.0000
  O   O14       1.0  0.13405  0.01953  0.20336  1.0000
  O   O15       1.0  0.00653  0.83518  0.88880  1.0000
  O   O16       1.0  0.99348  0.16482  0.11120  1.0000
