data_image0
_chemical_formula_structural       Ag4H42C34N12O10
_chemical_formula_sum              "Ag4 H42 C34 N12 O10"
_cell_length_a       10.2466
_cell_length_b       9.94974
_cell_length_c       11.6774
_cell_angle_alpha    83.4738
_cell_angle_beta     86.8966
_cell_angle_gamma    59.2785

_space_group_name_H-M_alt    "P 1"
_space_group_IT_number       1

loop_
  _space_group_symop_operation_xyz
  'x, y, z'

loop_
  _atom_site_type_symbol
  _atom_site_label
  _atom_site_symmetry_multiplicity
  _atom_site_fract_x
  _atom_site_fract_y
  _atom_site_fract_z
  _atom_site_occupancy
  Ag  Ag1       1.0  0.54069  0.39338  0.24982  1.0000
  Ag  Ag2       1.0  0.45932  0.60660  0.75019  1.0000
  Ag  Ag3       1.0  0.33963  0.87438  0.88528  1.0000
  Ag  Ag4       1.0  0.66037  0.12563  0.11472  1.0000
  H   H1        1.0  0.46159  0.27895  0.68984  1.0000
  H   H2        1.0  0.53840  0.72109  0.31018  1.0000
  H   H3        1.0  0.87246  0.97104  0.77131  1.0000
  H   H4        1.0  0.12753  0.02896  0.22869  1.0000
  H   H5        1.0  0.69877  0.97013  0.77973  1.0000
  H   H6        1.0  0.30122  0.02987  0.22028  1.0000
  H   H7        1.0  0.70579  0.12569  0.83147  1.0000
  H   H8        1.0  0.29421  0.87430  0.16856  1.0000
  H   H9        1.0  0.34014  0.54179  0.42995  1.0000
  H   H10       1.0  0.65983  0.45825  0.57007  1.0000
  H   H11       1.0  0.27169  0.46367  0.54797  1.0000
  H   H12       1.0  0.72830  0.53639  0.45206  1.0000
  H   H13       1.0  0.31375  0.38310  0.41233  1.0000
  H   H14       1.0  0.68622  0.61694  0.58770  1.0000
  H   H15       1.0  0.92673  0.33569  0.62275  1.0000
  H   H16       1.0  0.07327  0.66434  0.37725  1.0000
  H   H17       1.0  0.17469  0.28069  0.35413  1.0000
  H   H18       1.0  0.82531  0.71934  0.64586  1.0000
  H   H19       1.0  0.00165  0.28351  0.38826  1.0000
  H   H20       1.0  0.99836  0.71649  0.61173  1.0000
  H   H21       1.0  0.02195  0.44170  0.41907  1.0000
  H   H22       1.0  0.97804  0.55832  0.58093  1.0000
  H   H23       1.0  0.06382  0.19238  0.91111  1.0000
  H   H24       1.0  0.93615  0.80762  0.08888  1.0000
  H   H25       1.0  0.89880  0.26623  0.82406  1.0000
  H   H26       1.0  0.10118  0.73376  0.17592  1.0000
  H   H27       1.0  0.01946  0.05933  0.86027  1.0000
  H   H28       1.0  0.98053  0.94065  0.13971  1.0000
  H   H29       1.0  0.07934  0.31505  0.17679  1.0000
  H   H30       1.0  0.92071  0.68488  0.82318  1.0000
  H   H31       1.0  0.84627  0.18827  0.29447  1.0000
  H   H32       1.0  0.15371  0.81173  0.70554  1.0000
  H   H33       1.0  0.98207  0.05418  0.40062  1.0000
  H   H34       1.0  0.01790  0.94581  0.59939  1.0000
  H   H35       1.0  0.54452  0.86902  0.72834  1.0000
  H   H36       1.0  0.45547  0.13099  0.27165  1.0000
  H   H37       1.0  0.56602  0.92568  0.58192  1.0000
  H   H38       1.0  0.43397  0.07435  0.41808  1.0000
  H   H39       1.0  0.35268  0.64303  0.05487  1.0000
  H   H40       1.0  0.64734  0.35696  0.94511  1.0000
  H   H41       1.0  0.50585  0.64297  0.06280  1.0000
  H   H42       1.0  0.49418  0.35701  0.93718  1.0000
  C   C1        1.0  0.76300  0.17711  0.45831  1.0000
  C   C2        1.0  0.23697  0.82290  0.54170  1.0000
  C   C3        1.0  0.70103  0.13564  0.64750  1.0000
  C   C4        1.0  0.29896  0.86438  0.35251  1.0000
  C   C5        1.0  0.54790  0.24964  0.62325  1.0000
  C   C6        1.0  0.45209  0.75040  0.37677  1.0000
  C   C7        1.0  0.50917  0.31904  0.51082  1.0000
  C   C8        1.0  0.49081  0.68099  0.48920  1.0000
  C   C9        1.0  0.74893  0.04546  0.76353  1.0000
  C   C10       1.0  0.25106  0.95455  0.23649  1.0000
  C   C11       1.0  0.34894  0.43393  0.47430  1.0000
  C   C12       1.0  0.65104  0.56611  0.52572  1.0000
  C   C13       1.0  0.34916  0.04174  0.64607  1.0000
  C   C14       1.0  0.65083  0.95828  0.35393  1.0000
  C   C15       1.0  0.14387  0.22879  0.53389  1.0000
  C   C16       1.0  0.85613  0.77123  0.46610  1.0000
  C   C17       1.0  0.04807  0.25263  0.62945  1.0000
  C   C18       1.0  0.95192  0.74738  0.37054  1.0000
  C   C19       1.0  0.11065  0.15996  0.73259  1.0000
  C   C20       1.0  0.88934  0.84004  0.26741  1.0000
  C   C21       1.0  0.08311  0.31346  0.41736  1.0000
  C   C22       1.0  0.91689  0.68655  0.58263  1.0000
  C   C23       1.0  0.01685  0.17112  0.83725  1.0000
  C   C24       1.0  0.98314  0.82887  0.16274  1.0000
  C   C25       1.0  0.90299  0.44796  0.04988  1.0000
  C   C26       1.0  0.09704  0.55203  0.95013  1.0000
  C   C27       1.0  0.85880  0.55142  0.94835  1.0000
  C   C28       1.0  0.14124  0.44853  0.05164  1.0000
  C   C29       1.0  0.04419  0.39690  0.09910  1.0000
  C   C30       1.0  0.95586  0.60305  0.90089  1.0000
  C   C31       1.0  0.71242  0.60787  0.88583  1.0000
  C   C32       1.0  0.28761  0.39206  0.11415  1.0000
  C   C33       1.0  0.80118  0.39589  0.11171  1.0000
  C   C34       1.0  0.19883  0.60411  0.88829  1.0000
  N   N1        1.0  0.87217  0.14239  0.37918  1.0000
  N   N2        1.0  0.12781  0.85762  0.62083  1.0000
  N   N3        1.0  0.80728  0.10235  0.56620  1.0000
  N   N4        1.0  0.19271  0.89766  0.43381  1.0000
  N   N5        1.0  0.61593  0.28321  0.42756  1.0000
  N   N6        1.0  0.38404  0.71682  0.57246  1.0000
  N   N7        1.0  0.49831  0.94268  0.65406  1.0000
  N   N8        1.0  0.50168  0.05736  0.34594  1.0000
  N   N9        1.0  0.29299  0.12670  0.54291  1.0000
  N   N10       1.0  0.70701  0.87333  0.45708  1.0000
  N   N11       1.0  0.26068  0.05220  0.74068  1.0000
  N   N12       1.0  0.73932  0.94781  0.25932  1.0000
  O   O1        1.0  0.85707  0.25131  0.14377  1.0000
  O   O2        1.0  0.14298  0.74868  0.85622  1.0000
  O   O3        1.0  0.39682  0.71170  0.04016  1.0000
  O   O4        1.0  0.60319  0.28830  0.95984  1.0000
  O   O5        1.0  0.66501  0.50390  0.13246  1.0000
  O   O6        1.0  0.33498  0.49608  0.86752  1.0000
  O   O7        1.0  0.67383  0.50741  0.86886  1.0000
  O   O8        1.0  0.32624  0.49249  0.13113  1.0000
  O   O9        1.0  0.63889  0.75234  0.85059  1.0000
  O   O10       1.0  0.36115  0.24757  0.14936  1.0000
