data_image0
_chemical_formula_structural       Ag4H16C18N6O10
_chemical_formula_sum              "Ag4 H16 C18 N6 O10"
_cell_length_a       7.45582
_cell_length_b       8.58454
_cell_length_c       10.7574
_cell_angle_alpha    105.183
_cell_angle_beta     100.946
_cell_angle_gamma    99.7083

_space_group_name_H-M_alt    "P 1"
_space_group_IT_number       1

loop_
  _space_group_symop_operation_xyz
  'x, y, z'

loop_
  _atom_site_type_symbol
  _atom_site_label
  _atom_site_symmetry_multiplicity
  _atom_site_fract_x
  _atom_site_fract_y
  _atom_site_fract_z
  _atom_site_occupancy
  Ag  Ag1       1.0  0.89326  0.93351  0.27393  1.0000
  Ag  Ag2       1.0  0.10671  0.06649  0.72607  1.0000
  Ag  Ag3       1.0  0.31946  0.81810  0.62724  1.0000
  Ag  Ag4       1.0  0.68054  0.18192  0.37276  1.0000
  H   H1        1.0  0.39249  0.60158  0.82313  1.0000
  H   H2        1.0  0.60752  0.39841  0.17687  1.0000
  H   H3        1.0  0.64804  0.06998  0.81835  1.0000
  H   H4        1.0  0.35196  0.93001  0.18165  1.0000
  H   H5        1.0  0.73151  0.50067  0.69841  1.0000
  H   H6        1.0  0.26849  0.49932  0.30159  1.0000
  H   H7        1.0  0.60190  0.65886  0.05478  1.0000
  H   H8        1.0  0.39812  0.34114  0.94522  1.0000
  H   H9        1.0  0.93082  0.19639  0.16222  1.0000
  H   H10       1.0  0.06918  0.80361  0.83777  1.0000
  H   H11       1.0  0.88389  0.24246  0.01319  1.0000
  H   H12       1.0  0.11610  0.75754  0.98680  1.0000
  H   H13       1.0  0.22728  0.96693  0.44446  1.0000
  H   H14       1.0  0.77272  0.03308  0.55553  1.0000
  H   H15       1.0  0.34289  0.83399  0.38731  1.0000
  H   H16       1.0  0.65711  0.16602  0.61268  1.0000
  C   C1        1.0  0.49806  0.71697  0.87354  1.0000
  C   C2        1.0  0.50195  0.28304  0.12646  1.0000
  C   C3        1.0  0.39869  0.29362  0.66382  1.0000
  C   C4        1.0  0.60133  0.70640  0.33616  1.0000
  C   C5        1.0  0.64214  0.97588  0.86976  1.0000
  C   C6        1.0  0.35786  0.02411  0.13023  1.0000
  C   C7        1.0  0.62896  0.49886  0.61081  1.0000
  C   C8        1.0  0.37102  0.50110  0.38920  1.0000
  C   C9        1.0  0.75863  0.00810  0.99881  1.0000
  C   C10       1.0  0.24138  0.99191  0.00119  1.0000
  C   C11       1.0  0.31968  0.39410  0.46128  1.0000
  C   C12       1.0  0.68033  0.60588  0.53874  1.0000
  C   C13       1.0  0.61253  0.74808  0.99895  1.0000
  C   C14       1.0  0.38748  0.25191  0.00104  1.0000
  C   C15       1.0  0.13397  0.27145  0.40458  1.0000
  C   C16       1.0  0.86606  0.72857  0.59543  1.0000
  C   C17       1.0  0.45004  0.39430  0.57485  1.0000
  C   C18       1.0  0.54995  0.60568  0.42516  1.0000
  N   N1        1.0  0.88531  0.15384  0.05949  1.0000
  N   N2        1.0  0.11469  0.84617  0.94051  1.0000
  N   N3        1.0  0.51413  0.83422  0.81011  1.0000
  N   N4        1.0  0.48588  0.16579  0.18989  1.0000
  N   N5        1.0  0.74133  0.89127  0.06197  1.0000
  N   N6        1.0  0.25870  0.10875  0.93803  1.0000
  O   O1        1.0  0.12525  0.12827  0.42234  1.0000
  O   O2        1.0  0.87471  0.87176  0.57767  1.0000
  O   O3        1.0  0.00106  0.31032  0.33583  1.0000
  O   O4        1.0  0.99894  0.68968  0.66417  1.0000
  O   O5        1.0  0.23495  0.85004  0.43158  1.0000
  O   O6        1.0  0.76504  0.14998  0.56842  1.0000
  O   O7        1.0  0.26367  0.32294  0.71538  1.0000
  O   O8        1.0  0.73637  0.67703  0.28462  1.0000
  O   O9        1.0  0.49663  0.19051  0.68528  1.0000
  O   O10       1.0  0.50331  0.80949  0.31473  1.0000
