data_image0
_chemical_formula_structural       Ag2H14C18N6O8
_chemical_formula_sum              "Ag2 H14 C18 N6 O8"
_cell_length_a       6.05028
_cell_length_b       7.04134
_cell_length_c       12.7306
_cell_angle_alpha    91.5629
_cell_angle_beta     96.5729
_cell_angle_gamma    101.452

_space_group_name_H-M_alt    "P 1"
_space_group_IT_number       1

loop_
  _space_group_symop_operation_xyz
  'x, y, z'

loop_
  _atom_site_type_symbol
  _atom_site_label
  _atom_site_symmetry_multiplicity
  _atom_site_fract_x
  _atom_site_fract_y
  _atom_site_fract_z
  _atom_site_occupancy
  Ag  Ag1       1.0  0.23450  0.06958  0.54942  1.0000
  Ag  Ag2       1.0  0.76548  0.93042  0.45058  1.0000
  H   H1        1.0  0.19336  0.36934  0.37547  1.0000
  H   H2        1.0  0.80663  0.63066  0.62453  1.0000
  H   H3        1.0  0.32191  0.41582  0.70462  1.0000
  H   H4        1.0  0.67807  0.58419  0.29537  1.0000
  H   H5        1.0  0.34519  0.77939  0.70126  1.0000
  H   H6        1.0  0.65480  0.22062  0.29873  1.0000
  H   H7        1.0  0.26766  0.25758  0.92266  1.0000
  H   H8        1.0  0.73237  0.74243  0.07734  1.0000
  H   H9        1.0  0.22934  0.89680  0.34759  1.0000
  H   H10       1.0  0.77065  0.10321  0.65240  1.0000
  H   H11       1.0  0.21782  0.67058  0.28387  1.0000
  H   H12       1.0  0.78218  0.32943  0.71612  1.0000
  H   H13       1.0  0.04444  0.60200  0.85278  1.0000
  H   H14       1.0  0.95560  0.39801  0.14723  1.0000
  C   C1        1.0  0.25238  0.66792  0.44478  1.0000
  C   C2        1.0  0.74761  0.33209  0.55521  1.0000
  C   C3        1.0  0.23098  0.46279  0.44791  1.0000
  C   C4        1.0  0.76898  0.53721  0.55209  1.0000
  C   C5        1.0  0.29838  0.48919  0.63137  1.0000
  C   C6        1.0  0.70163  0.51082  0.36862  1.0000
  C   C7        1.0  0.31111  0.68673  0.62893  1.0000
  C   C8        1.0  0.68884  0.31328  0.37106  1.0000
  C   C9        1.0  0.15104  0.14478  0.95731  1.0000
  C   C10       1.0  0.84898  0.85520  0.04268  1.0000
  C   C11       1.0  0.02961  0.98679  0.89190  1.0000
  C   C12       1.0  0.97039  0.01319  0.10811  1.0000
  C   C13       1.0  0.87868  0.84031  0.93571  1.0000
  C   C14       1.0  0.12134  0.15967  0.06429  1.0000
  C   C15       1.0  0.04884  0.98727  0.77431  1.0000
  C   C16       1.0  0.95114  0.01272  0.22570  1.0000
  C   C17       1.0  0.75085  0.66048  0.87358  1.0000
  C   C18       1.0  0.24916  0.33952  0.12644  1.0000
  N   N1        1.0  0.24536  0.75425  0.35246  1.0000
  N   N2        1.0  0.75462  0.24575  0.64753  1.0000
  N   N3        1.0  0.28315  0.77615  0.53721  1.0000
  N   N4        1.0  0.71684  0.22386  0.46278  1.0000
  N   N5        1.0  0.25209  0.37822  0.53920  1.0000
  N   N6        1.0  0.74789  0.62178  0.46079  1.0000
  O   O1        1.0  0.22774  0.08736  0.74586  1.0000
  O   O2        1.0  0.77223  0.91260  0.25414  1.0000
  O   O3        1.0  0.87788  0.89167  0.71371  1.0000
  O   O4        1.0  0.12218  0.10836  0.28631  1.0000
  O   O5        1.0  0.88324  0.54106  0.83708  1.0000
  O   O6        1.0  0.11680  0.45895  0.16293  1.0000
  O   O7        1.0  0.54527  0.60586  0.86300  1.0000
  O   O8        1.0  0.45479  0.39412  0.13699  1.0000
