data_image0
_chemical_formula_structural       Gd2H40C52O22F18
_chemical_formula_sum              "Gd2 H40 C52 O22 F18"
_cell_length_a       9.51278
_cell_length_b       10.5281
_cell_length_c       15.1921
_cell_angle_alpha    89.0207
_cell_angle_beta     87.4275
_cell_angle_gamma    77.5579

_space_group_name_H-M_alt    "P 1"
_space_group_IT_number       1

loop_
  _space_group_symop_operation_xyz
  'x, y, z'

loop_
  _atom_site_type_symbol
  _atom_site_label
  _atom_site_symmetry_multiplicity
  _atom_site_fract_x
  _atom_site_fract_y
  _atom_site_fract_z
  _atom_site_occupancy
  Gd  Gd1       1.0  0.25833  0.46233  0.97475  1.0000
  Gd  Gd2       1.0  0.74167  0.53768  0.02525  1.0000
  H   H1        1.0  0.10077  0.94931  0.02439  1.0000
  H   H2        1.0  0.89922  0.05069  0.97561  1.0000
  H   H3        1.0  0.03110  0.14670  0.12020  1.0000
  H   H4        1.0  0.96889  0.85330  0.87981  1.0000
  H   H5        1.0  0.15203  0.90362  0.34855  1.0000
  H   H6        1.0  0.84797  0.09637  0.65146  1.0000
  H   H7        1.0  0.22519  0.71170  0.25251  1.0000
  H   H8        1.0  0.77480  0.28829  0.74749  1.0000
  H   H9        1.0  0.29051  0.38008  0.20558  1.0000
  H   H10       1.0  0.70950  0.61991  0.79442  1.0000
  H   H11       1.0  0.39464  0.40508  0.35182  1.0000
  H   H12       1.0  0.60536  0.59491  0.64818  1.0000
  H   H13       1.0  0.98419  0.63007  0.44533  1.0000
  H   H14       1.0  0.01581  0.36993  0.55467  1.0000
  H   H15       1.0  0.88005  0.60117  0.30014  1.0000
  H   H16       1.0  0.11995  0.39883  0.69986  1.0000
  H   H17       1.0  0.26028  0.74569  0.77880  1.0000
  H   H18       1.0  0.73971  0.25432  0.22121  1.0000
  H   H19       1.0  0.23661  0.92394  0.66812  1.0000
  H   H20       1.0  0.76340  0.07606  0.33188  1.0000
  H   H21       1.0  0.59715  0.04721  0.77597  1.0000
  H   H22       1.0  0.40286  0.95279  0.22402  1.0000
  H   H23       1.0  0.62107  0.86472  0.88683  1.0000
  H   H24       1.0  0.37893  0.13528  0.11317  1.0000
  H   H25       1.0  0.44218  0.48083  0.75697  1.0000
  H   H26       1.0  0.55782  0.51916  0.24303  1.0000
  H   H27       1.0  0.51331  0.31266  0.73058  1.0000
  H   H28       1.0  0.48668  0.68734  0.26942  1.0000
  H   H29       1.0  0.32354  0.37282  0.74645  1.0000
  H   H30       1.0  0.67646  0.62718  0.25355  1.0000
  H   H31       1.0  0.17996  0.07394  0.90862  1.0000
  H   H32       1.0  0.82004  0.92607  0.09138  1.0000
  H   H33       1.0  0.20883  0.19786  0.83210  1.0000
  H   H34       1.0  0.79117  0.80213  0.16790  1.0000
  H   H35       1.0  0.34675  0.12674  0.90500  1.0000
  H   H36       1.0  0.65324  0.87325  0.09501  1.0000
  H   H37       1.0  0.53050  0.35568  0.88019  1.0000
  H   H38       1.0  0.46950  0.64432  0.11981  1.0000
  H   H39       1.0  0.07112  0.26950  0.97194  1.0000
  H   H40       1.0  0.92887  0.73050  0.02806  1.0000
  C   C1        1.0  0.01858  0.47818  0.15583  1.0000
  C   C2        1.0  0.98143  0.52181  0.84416  1.0000
  C   C3        1.0  0.07955  0.49022  0.24381  1.0000
  C   C4        1.0  0.92045  0.50978  0.75619  1.0000
  C   C5        1.0  0.22440  0.43473  0.25834  1.0000
  C   C6        1.0  0.77560  0.56527  0.74166  1.0000
  C   C7        1.0  0.28284  0.44892  0.33916  1.0000
  C   C8        1.0  0.71716  0.55109  0.66084  1.0000
  C   C9        1.0  0.19431  0.52108  0.40433  1.0000
  C   C10       1.0  0.80569  0.47893  0.59566  1.0000
  C   C11       1.0  0.04979  0.57602  0.39220  1.0000
  C   C12       1.0  0.95021  0.42399  0.60780  1.0000
  C   C13       1.0  0.99276  0.55961  0.31147  1.0000
  C   C14       1.0  0.00724  0.44039  0.68852  1.0000
  C   C15       1.0  0.31429  0.63436  0.49840  1.0000
  C   C16       1.0  0.68572  0.36564  0.50160  1.0000
  C   C17       1.0  0.19902  0.70034  0.07639  1.0000
  C   C18       1.0  0.80098  0.29966  0.92361  1.0000
  C   C19       1.0  0.16547  0.81834  0.13258  1.0000
  C   C20       1.0  0.83452  0.18165  0.86742  1.0000
  C   C21       1.0  0.11078  0.94082  0.09548  1.0000
  C   C22       1.0  0.88921  0.05918  0.90452  1.0000
  C   C23       1.0  0.07196  0.05051  0.14821  1.0000
  C   C24       1.0  0.92803  0.94949  0.85180  1.0000
  C   C25       1.0  0.08559  0.03565  0.23911  1.0000
  C   C26       1.0  0.91440  0.96435  0.76090  1.0000
  C   C27       1.0  0.14104  0.91508  0.27783  1.0000
  C   C28       1.0  0.85896  0.08492  0.72218  1.0000
  C   C29       1.0  0.18265  0.80687  0.22355  1.0000
  C   C30       1.0  0.81735  0.19313  0.77645  1.0000
  C   C31       1.0  0.07605  0.15987  0.37068  1.0000
  C   C32       1.0  0.92395  0.84013  0.62932  1.0000
  C   C33       1.0  0.45571  0.68478  0.90400  1.0000
  C   C34       1.0  0.54429  0.31523  0.09600  1.0000
  C   C35       1.0  0.44179  0.79451  0.83932  1.0000
  C   C36       1.0  0.55821  0.20549  0.16068  1.0000
  C   C37       1.0  0.33388  0.81200  0.77780  1.0000
  C   C38       1.0  0.66612  0.18801  0.22220  1.0000
  C   C39       1.0  0.32047  0.91211  0.71568  1.0000
  C   C40       1.0  0.67954  0.08789  0.28432  1.0000
  C   C41       1.0  0.41713  0.99474  0.71623  1.0000
  C   C42       1.0  0.58288  0.00525  0.28377  1.0000
  C   C43       1.0  0.52479  0.97995  0.77738  1.0000
  C   C44       1.0  0.47521  0.02005  0.22262  1.0000
  C   C45       1.0  0.53719  0.87925  0.83876  1.0000
  C   C46       1.0  0.46281  0.12076  0.16124  1.0000
  C   C47       1.0  0.32618  0.11706  0.58873  1.0000
  C   C48       1.0  0.67382  0.88294  0.41127  1.0000
  C   C49       1.0  0.42928  0.38051  0.76835  1.0000
  C   C50       1.0  0.57071  0.61949  0.23165  1.0000
  C   C51       1.0  0.23027  0.15800  0.89884  1.0000
  C   C52       1.0  0.76972  0.84200  0.10116  1.0000
  O   O1        1.0  0.10481  0.43458  0.09157  1.0000
  O   O2        1.0  0.89520  0.56540  0.90843  1.0000
  O   O3        1.0  0.88285  0.51388  0.14933  1.0000
  O   O4        1.0  0.11716  0.48612  0.85066  1.0000
  O   O5        1.0  0.24952  0.53345  0.48812  1.0000
  O   O6        1.0  0.75048  0.46655  0.51188  1.0000
  O   O7        1.0  0.11417  0.68818  0.01547  1.0000
  O   O8        1.0  0.88583  0.31182  0.98453  1.0000
  O   O9        1.0  0.30994  0.61078  0.09071  1.0000
  O   O10       1.0  0.69005  0.38923  0.90929  1.0000
  O   O11       1.0  0.03610  0.15078  0.28665  1.0000
  O   O12       1.0  0.96390  0.84922  0.71335  1.0000
  O   O13       1.0  0.36661  0.61137  0.90124  1.0000
  O   O14       1.0  0.63340  0.38863  0.09876  1.0000
  O   O15       1.0  0.55684  0.67067  0.95794  1.0000
  O   O16       1.0  0.44316  0.32933  0.04207  1.0000
  O   O17       1.0  0.41476  0.09935  0.65753  1.0000
  O   O18       1.0  0.58524  0.90065  0.34247  1.0000
  O   O19       1.0  0.43392  0.34749  0.86056  1.0000
  O   O20       1.0  0.56608  0.65251  0.13945  1.0000
  O   O21       1.0  0.17829  0.25436  0.96500  1.0000
  O   O22       1.0  0.82171  0.74564  0.03500  1.0000
  F   F1        1.0  0.34926  0.63573  0.58361  1.0000
  F   F2        1.0  0.65075  0.36426  0.41639  1.0000
  F   F3        1.0  0.22806  0.75258  0.47914  1.0000
  F   F4        1.0  0.77195  0.24742  0.52086  1.0000
  F   F5        1.0  0.43700  0.62554  0.44653  1.0000
  F   F6        1.0  0.56301  0.37446  0.55346  1.0000
  F   F7        1.0  0.22156  0.13389  0.37746  1.0000
  F   F8        1.0  0.77844  0.86612  0.62255  1.0000
  F   F9        1.0  0.02186  0.28287  0.39721  1.0000
  F   F10       1.0  0.97814  0.71713  0.60279  1.0000
  F   F11       1.0  0.02314  0.07866  0.42812  1.0000
  F   F12       1.0  0.97686  0.92134  0.57188  1.0000
  F   F13       1.0  0.18307  0.14609  0.61509  1.0000
  F   F14       1.0  0.81694  0.85391  0.38491  1.0000
  F   F15       1.0  0.34638  0.01150  0.53547  1.0000
  F   F16       1.0  0.65363  0.98851  0.46453  1.0000
  F   F17       1.0  0.35317  0.21882  0.54105  1.0000
  F   F18       1.0  0.64683  0.78118  0.45895  1.0000
