data_image0
_chemical_formula_structural       Mn2H18C26N2O10
_chemical_formula_sum              "Mn2 H18 C26 N2 O10"
_cell_length_a       7.24945
_cell_length_b       9.30089
_cell_length_c       11.4338
_cell_angle_alpha    114.003
_cell_angle_beta     108.514
_cell_angle_gamma    89.977

_space_group_name_H-M_alt    "P 1"
_space_group_IT_number       1

loop_
  _space_group_symop_operation_xyz
  'x, y, z'

loop_
  _atom_site_type_symbol
  _atom_site_label
  _atom_site_symmetry_multiplicity
  _atom_site_fract_x
  _atom_site_fract_y
  _atom_site_fract_z
  _atom_site_occupancy
  Mn  Mn1       1.0  0.50000  0.00000  1.00000  1.0000
  Mn  Mn2       1.0  0.00000  0.00000  0.00000  1.0000
  H   H1        1.0  0.23485  0.39439  0.37878  1.0000
  H   H2        1.0  0.26550  0.01549  0.62131  1.0000
  H   H3        1.0  0.14384  0.98458  0.37872  1.0000
  H   H4        1.0  0.35590  0.60596  0.62139  1.0000
  H   H5        1.0  0.76515  0.60561  0.62123  1.0000
  H   H6        1.0  0.73450  0.98452  0.37869  1.0000
  H   H7        1.0  0.85616  0.01543  0.62128  1.0000
  H   H8        1.0  0.64409  0.39404  0.37862  1.0000
  H   H9        1.0  0.35536  0.37184  0.21011  1.0000
  H   H10       1.0  0.14518  0.16180  0.78998  1.0000
  H   H11       1.0  0.85483  0.83820  0.21002  1.0000
  H   H12       1.0  0.64464  0.62816  0.78989  1.0000
  H   H13       1.0  0.36078  0.64995  0.22081  1.0000
  H   H14       1.0  0.14004  0.42914  0.77921  1.0000
  H   H15       1.0  0.85996  0.57086  0.22079  1.0000
  H   H16       1.0  0.63922  0.35005  0.77919  1.0000
  H   H17       1.0  0.25016  0.67812  0.99998  1.0000
  H   H18       1.0  0.74984  0.32189  0.00002  1.0000
  C   C1        1.0  0.13333  0.44222  0.43288  1.0000
  C   C2        1.0  0.36684  0.00937  0.56717  1.0000
  C   C3        1.0  0.29945  0.99074  0.43282  1.0000
  C   C4        1.0  0.20041  0.55792  0.56718  1.0000
  C   C5        1.0  0.86667  0.55777  0.56713  1.0000
  C   C6        1.0  0.63316  0.99063  0.43283  1.0000
  C   C7        1.0  0.70055  0.00926  0.56718  1.0000
  C   C8        1.0  0.79958  0.44207  0.43283  1.0000
  C   C9        1.0  0.93209  0.38344  0.36399  1.0000
  C   C10       1.0  0.56818  0.01950  0.63605  1.0000
  C   C11       1.0  0.43181  0.98050  0.36395  1.0000
  C   C12       1.0  0.06791  0.61655  0.63601  1.0000
  C   C13       1.0  0.85868  0.26241  0.21738  1.0000
  C   C14       1.0  0.64137  0.04490  0.78264  1.0000
  C   C15       1.0  0.35863  0.95510  0.21736  1.0000
  C   C16       1.0  0.14132  0.73759  0.78262  1.0000
  C   C17       1.0  0.31064  0.39649  0.12112  1.0000
  C   C18       1.0  0.18946  0.27544  0.87896  1.0000
  C   C19       1.0  0.81054  0.72456  0.12104  1.0000
  C   C20       1.0  0.68936  0.60351  0.87888  1.0000
  C   C21       1.0  0.31147  0.54590  0.12263  1.0000
  C   C22       1.0  0.18888  0.42327  0.87740  1.0000
  C   C23       1.0  0.81112  0.57673  0.12260  1.0000
  C   C24       1.0  0.68853  0.45410  0.87737  1.0000
  C   C25       1.0  0.25013  0.56125  1.00000  1.0000
  C   C26       1.0  0.74986  0.43875  0.00000  1.0000
  N   N1        1.0  0.24989  0.26482  0.00005  1.0000
  N   N2        1.0  0.75011  0.73519  0.99995  1.0000
  O   O1        1.0  0.67364  0.21761  0.15973  1.0000
  O   O2        1.0  0.82629  0.05693  0.84008  1.0000
  O   O3        1.0  0.48608  0.94260  0.15988  1.0000
  O   O4        1.0  0.01381  0.78306  0.83994  1.0000
  O   O5        1.0  0.32635  0.78239  0.84027  1.0000
  O   O6        1.0  0.17371  0.94307  0.15992  1.0000
  O   O7        1.0  0.51392  0.05740  0.84012  1.0000
  O   O8        1.0  0.98619  0.21694  0.16006  1.0000
  O   O9        1.0  0.24985  0.12122  0.00003  1.0000
  O   O10       1.0  0.75016  0.87878  0.99997  1.0000
