data_image0
_chemical_formula_structural       Mn2H26C30N2O10
_chemical_formula_sum              "Mn2 H26 C30 N2 O10"
_cell_length_a       7.4177
_cell_length_b       10.2737
_cell_length_c       10.718
_cell_angle_alpha    113.833
_cell_angle_beta     103.252
_cell_angle_gamma    97.8853

_space_group_name_H-M_alt    "P 1"
_space_group_IT_number       1

loop_
  _space_group_symop_operation_xyz
  'x, y, z'

loop_
  _atom_site_type_symbol
  _atom_site_label
  _atom_site_symmetry_multiplicity
  _atom_site_fract_x
  _atom_site_fract_y
  _atom_site_fract_z
  _atom_site_occupancy
  Mn  Mn1       1.0  0.50001  0.50000  0.50000  1.0000
  Mn  Mn2       1.0  0.00000  0.50000  0.50000  1.0000
  H   H1        1.0  0.64241  0.72374  0.36750  1.0000
  H   H2        1.0  0.35759  0.27626  0.63251  1.0000
  H   H3        1.0  0.90493  0.18178  0.67475  1.0000
  H   H4        1.0  0.09507  0.81822  0.32525  1.0000
  H   H5        1.0  0.98949  0.81713  0.76907  1.0000
  H   H6        1.0  0.01051  0.18287  0.23094  1.0000
  H   H7        1.0  0.70618  0.13004  0.44303  1.0000
  H   H8        1.0  0.29382  0.86995  0.55697  1.0000
  H   H9        1.0  0.50753  0.97536  0.37434  1.0000
  H   H10       1.0  0.49247  0.02463  0.62566  1.0000
  H   H11       1.0  0.69537  0.95971  0.29889  1.0000
  H   H12       1.0  0.30463  0.04027  0.70111  1.0000
  H   H13       1.0  0.08925  0.23940  0.91356  1.0000
  H   H14       1.0  0.91075  0.76060  0.08644  1.0000
  H   H15       1.0  0.23524  0.11633  0.91597  1.0000
  H   H16       1.0  0.76476  0.88368  0.08403  1.0000
  H   H17       1.0  0.03397  0.10723  0.97553  1.0000
  H   H18       1.0  0.96603  0.89277  0.02447  1.0000
  H   H19       1.0  0.81508  0.48788  0.16321  1.0000
  H   H20       1.0  0.18491  0.51212  0.83679  1.0000
  H   H21       1.0  0.35631  0.56644  0.09048  1.0000
  H   H22       1.0  0.64368  0.43356  0.90952  1.0000
  H   H23       1.0  0.65303  0.96832  0.81022  1.0000
  H   H24       1.0  0.34697  0.03168  0.18977  1.0000
  H   H25       1.0  0.23611  0.79571  0.96029  1.0000
  H   H26       1.0  0.76390  0.20429  0.03970  1.0000
  C   C1        1.0  0.73432  0.81312  0.46980  1.0000
  C   C2        1.0  0.26567  0.18688  0.53021  1.0000
  C   C3        1.0  0.76250  0.96212  0.50660  1.0000
  C   C4        1.0  0.23750  0.03788  0.49341  1.0000
  C   C5        1.0  0.87951  0.06452  0.64521  1.0000
  C   C6        1.0  0.12049  0.93548  0.35479  1.0000
  C   C7        1.0  0.96387  0.01774  0.74516  1.0000
  C   C8        1.0  0.03613  0.98226  0.25483  1.0000
  C   C9        1.0  0.93001  0.86714  0.70263  1.0000
  C   C10       1.0  0.06999  0.13286  0.29737  1.0000
  C   C11       1.0  0.66377  0.00994  0.40039  1.0000
  C   C12       1.0  0.33623  0.99005  0.59961  1.0000
  C   C13       1.0  0.08685  0.12612  0.89499  1.0000
  C   C14       1.0  0.91314  0.87389  0.10501  1.0000
  C   C15       1.0  0.19586  0.56315  0.29489  1.0000
  C   C16       1.0  0.80414  0.43684  0.70511  1.0000
  C   C17       1.0  0.09580  0.53142  0.14263  1.0000
  C   C18       1.0  0.90419  0.46858  0.85737  1.0000
  C   C19       1.0  0.89446  0.49372  0.09090  1.0000
  C   C20       1.0  0.10553  0.50627  0.90910  1.0000
  C   C21       1.0  0.20013  0.53748  0.05021  1.0000
  C   C22       1.0  0.79986  0.46252  0.94979  1.0000
  C   C23       1.0  0.36792  0.73065  0.73225  1.0000
  C   C24       1.0  0.63209  0.26935  0.26775  1.0000
  C   C25       1.0  0.43764  0.86906  0.87143  1.0000
  C   C26       1.0  0.56236  0.13095  0.12857  1.0000
  C   C27       1.0  0.58713  0.98364  0.89418  1.0000
  C   C28       1.0  0.41287  0.01636  0.10582  1.0000
  C   C29       1.0  0.35103  0.88609  0.97846  1.0000
  C   C30       1.0  0.64897  0.11391  0.02154  1.0000
  N   N1        1.0  0.81801  0.76929  0.56740  1.0000
  N   N2        1.0  0.18199  0.23071  0.43261  1.0000
  O   O1        1.0  0.78416  0.62535  0.52981  1.0000
  O   O2        1.0  0.21584  0.37465  0.47020  1.0000
  O   O3        1.0  0.10280  0.60385  0.38472  1.0000
  O   O4        1.0  0.89720  0.39615  0.61528  1.0000
  O   O5        1.0  0.36587  0.54810  0.32415  1.0000
  O   O6        1.0  0.63413  0.45190  0.67585  1.0000
  O   O7        1.0  0.19659  0.65624  0.69814  1.0000
  O   O8        1.0  0.80341  0.34375  0.30185  1.0000
  O   O9        1.0  0.48214  0.69943  0.65921  1.0000
  O   O10       1.0  0.51786  0.30058  0.34079  1.0000
