data_image0
_chemical_formula_structural       H56Rh4C68N4O16
_chemical_formula_sum              "H56 Rh4 C68 N4 O16"
_cell_length_a       10.2051
_cell_length_b       10.4401
_cell_length_c       15.7041
_cell_angle_alpha    79.4617
_cell_angle_beta     81.0177
_cell_angle_gamma    87.2087

_space_group_name_H-M_alt    "P 1"
_space_group_IT_number       1

loop_
  _space_group_symop_operation_xyz
  'x, y, z'

loop_
  _atom_site_type_symbol
  _atom_site_label
  _atom_site_symmetry_multiplicity
  _atom_site_fract_x
  _atom_site_fract_y
  _atom_site_fract_z
  _atom_site_occupancy
  H   H1        1.0  0.37951  0.95202  0.47218  1.0000
  H   H2        1.0  0.62049  0.04797  0.52782  1.0000
  H   H3        1.0  0.27829  0.14750  0.53322  1.0000
  H   H4        1.0  0.72171  0.85249  0.46678  1.0000
  H   H5        1.0  0.19665  0.12585  0.69146  1.0000
  H   H6        1.0  0.80336  0.87415  0.30854  1.0000
  H   H7        1.0  0.22651  0.91737  0.79248  1.0000
  H   H8        1.0  0.77349  0.08264  0.20751  1.0000
  H   H9        1.0  0.32930  0.72455  0.73186  1.0000
  H   H10       1.0  0.67070  0.27545  0.26814  1.0000
  H   H11       1.0  0.23456  0.51630  0.27935  1.0000
  H   H12       1.0  0.76543  0.48370  0.72066  1.0000
  H   H13       1.0  0.04335  0.44930  0.21663  1.0000
  H   H14       1.0  0.95664  0.55069  0.78338  1.0000
  H   H15       1.0  0.86160  0.32201  0.31512  1.0000
  H   H16       1.0  0.13839  0.67798  0.68489  1.0000
  H   H17       1.0  0.86860  0.26288  0.47474  1.0000
  H   H18       1.0  0.13139  0.73712  0.52528  1.0000
  H   H19       1.0  0.06124  0.32910  0.53655  1.0000
  H   H20       1.0  0.93875  0.67091  0.46346  1.0000
  H   H21       1.0  0.03206  0.97353  0.30550  1.0000
  H   H22       1.0  0.96795  0.02647  0.69449  1.0000
  H   H23       1.0  0.13553  0.03228  0.42670  1.0000
  H   H24       1.0  0.86448  0.96772  0.57329  1.0000
  H   H25       1.0  0.33787  0.16801  0.39164  1.0000
  H   H26       1.0  0.66213  0.83199  0.60836  1.0000
  H   H27       1.0  0.43574  0.24448  0.23762  1.0000
  H   H28       1.0  0.56425  0.75553  0.76238  1.0000
  H   H29       1.0  0.33164  0.18574  0.11629  1.0000
  H   H30       1.0  0.66836  0.81428  0.88371  1.0000
  H   H31       1.0  0.06490  0.53750  0.05247  1.0000
  H   H32       1.0  0.93511  0.46251  0.94752  1.0000
  H   H33       1.0  0.18774  0.33165  0.02615  1.0000
  H   H34       1.0  0.81226  0.66837  0.97384  1.0000
  H   H35       1.0  0.41027  0.34325  0.93488  1.0000
  H   H36       1.0  0.58973  0.65676  0.06511  1.0000
  H   H37       1.0  0.50875  0.55807  0.86752  1.0000
  H   H38       1.0  0.49126  0.44194  0.13248  1.0000
  H   H39       1.0  0.38283  0.76315  0.89156  1.0000
  H   H40       1.0  0.61717  0.23686  0.10843  1.0000
  H   H41       1.0  0.20395  0.43048  0.68143  1.0000
  H   H42       1.0  0.79605  0.56951  0.31857  1.0000
  H   H43       1.0  0.06969  0.30284  0.81599  1.0000
  H   H44       1.0  0.93031  0.69715  0.18402  1.0000
  H   H45       1.0  0.36480  0.03839  0.95621  1.0000
  H   H46       1.0  0.63521  0.96160  0.04380  1.0000
  H   H47       1.0  0.52202  0.10559  0.90545  1.0000
  H   H48       1.0  0.47799  0.89440  0.09455  1.0000
  H   H49       1.0  0.45880  0.97748  0.86608  1.0000
  H   H50       1.0  0.54120  0.02251  0.13392  1.0000
  H   H51       1.0  0.61472  0.23911  0.66124  1.0000
  H   H52       1.0  0.38527  0.76089  0.33876  1.0000
  H   H53       1.0  0.59081  0.08631  0.73381  1.0000
  H   H54       1.0  0.40919  0.91368  0.26618  1.0000
  H   H55       1.0  0.64028  0.22261  0.77214  1.0000
  H   H56       1.0  0.35973  0.77739  0.22785  1.0000
  Rh  Rh1       1.0  0.46184  0.43392  0.57075  1.0000
  Rh  Rh2       1.0  0.53816  0.56607  0.42924  1.0000
  Rh  Rh3       1.0  0.08434  0.06390  0.94893  1.0000
  Rh  Rh4       1.0  0.91566  0.93611  0.05107  1.0000
  C   C1        1.0  0.40942  0.70946  0.56211  1.0000
  C   C2        1.0  0.59058  0.29053  0.43789  1.0000
  C   C3        1.0  0.35822  0.82705  0.59831  1.0000
  C   C4        1.0  0.64178  0.17295  0.40169  1.0000
  C   C5        1.0  0.34536  0.94622  0.54198  1.0000
  C   C6        1.0  0.65463  0.05377  0.45801  1.0000
  C   C7        1.0  0.28835  0.05383  0.57587  1.0000
  C   C8        1.0  0.71165  0.94617  0.42413  1.0000
  C   C9        1.0  0.24427  0.04253  0.66561  1.0000
  C   C10       1.0  0.75573  0.95747  0.33438  1.0000
  C   C11       1.0  0.26025  0.92508  0.72244  1.0000
  C   C12       1.0  0.73975  0.07492  0.27755  1.0000
  C   C13       1.0  0.31745  0.81755  0.68884  1.0000
  C   C14       1.0  0.68255  0.18244  0.31116  1.0000
  C   C15       1.0  0.27685  0.46029  0.44629  1.0000
  C   C16       1.0  0.72315  0.53971  0.55372  1.0000
  C   C17       1.0  0.15870  0.42633  0.41132  1.0000
  C   C18       1.0  0.84129  0.57367  0.58869  1.0000
  C   C19       1.0  0.15330  0.46155  0.32130  1.0000
  C   C20       1.0  0.84670  0.53844  0.67871  1.0000
  C   C21       1.0  0.04668  0.42381  0.28681  1.0000
  C   C22       1.0  0.95331  0.57619  0.71320  1.0000
  C   C23       1.0  0.94478  0.35197  0.34200  1.0000
  C   C24       1.0  0.05521  0.64802  0.65801  1.0000
  C   C25       1.0  0.94890  0.31829  0.43191  1.0000
  C   C26       1.0  0.05109  0.68172  0.56811  1.0000
  C   C27       1.0  0.05587  0.35483  0.46671  1.0000
  C   C28       1.0  0.94412  0.64518  0.53330  1.0000
  C   C29       1.0  0.11462  0.04212  0.13103  1.0000
  C   C30       1.0  0.88538  0.95788  0.86897  1.0000
  C   C31       1.0  0.17643  0.07504  0.20375  1.0000
  C   C32       1.0  0.82357  0.92496  0.79625  1.0000
  C   C33       1.0  0.12105  0.03185  0.29126  1.0000
  C   C34       1.0  0.87895  0.96815  0.70874  1.0000
  C   C35       1.0  0.17894  0.06532  0.35869  1.0000
  C   C36       1.0  0.82106  0.93468  0.64131  1.0000
  C   C37       1.0  0.29216  0.14157  0.33922  1.0000
  C   C38       1.0  0.70784  0.85844  0.66078  1.0000
  C   C39       1.0  0.34752  0.18495  0.25213  1.0000
  C   C40       1.0  0.65248  0.81505  0.74787  1.0000
  C   C41       1.0  0.28999  0.15215  0.18450  1.0000
  C   C42       1.0  0.71001  0.84786  0.81550  1.0000
  C   C43       1.0  0.14022  0.78421  0.98608  1.0000
  C   C44       1.0  0.85978  0.21579  0.01391  1.0000
  C   C45       1.0  0.21673  0.66228  0.97373  1.0000
  C   C46       1.0  0.78327  0.33772  0.02626  1.0000
  C   C47       1.0  0.16242  0.54064  0.01247  1.0000
  C   C48       1.0  0.83758  0.45936  0.98753  1.0000
  C   C49       1.0  0.23136  0.42612  0.99797  1.0000
  C   C50       1.0  0.76864  0.57389  0.00202  1.0000
  C   C51       1.0  0.35591  0.43276  0.94578  1.0000
  C   C52       1.0  0.64409  0.56725  0.05421  1.0000
  C   C53       1.0  0.41119  0.55356  0.90771  1.0000
  C   C54       1.0  0.58882  0.44645  0.09228  1.0000
  C   C55       1.0  0.34177  0.66812  0.92127  1.0000
  C   C56       1.0  0.65823  0.33188  0.07873  1.0000
  C   C57       1.0  0.24865  0.35246  0.72433  1.0000
  C   C58       1.0  0.75135  0.64753  0.27568  1.0000
  C   C59       1.0  0.17532  0.28336  0.79836  1.0000
  C   C60       1.0  0.82469  0.71663  0.20165  1.0000
  C   C61       1.0  0.36217  0.16304  0.83189  1.0000
  C   C62       1.0  0.63783  0.83695  0.16811  1.0000
  C   C63       1.0  0.43573  0.22867  0.75343  1.0000
  C   C64       1.0  0.56427  0.77132  0.24657  1.0000
  C   C65       1.0  0.42984  0.06580  0.89389  1.0000
  C   C66       1.0  0.57017  0.93418  0.10612  1.0000
  C   C67       1.0  0.57811  0.19244  0.72823  1.0000
  C   C68       1.0  0.42190  0.80756  0.27177  1.0000
  N   N1        1.0  0.37764  0.32268  0.69987  1.0000
  N   N2        1.0  0.62236  0.67731  0.30014  1.0000
  N   N3        1.0  0.23073  0.18652  0.85153  1.0000
  N   N4        1.0  0.76927  0.81347  0.14848  1.0000
  O   O1        1.0  0.46337  0.72555  0.48160  1.0000
  O   O2        1.0  0.53663  0.27445  0.51840  1.0000
  O   O3        1.0  0.39332  0.59976  0.61461  1.0000
  O   O4        1.0  0.60667  0.40024  0.38539  1.0000
  O   O5        1.0  0.36102  0.53476  0.39304  1.0000
  O   O6        1.0  0.63898  0.46524  0.60697  1.0000
  O   O7        1.0  0.28799  0.41049  0.52592  1.0000
  O   O8        1.0  0.71201  0.58951  0.47408  1.0000
  O   O9        1.0  0.01250  0.96979  0.15024  1.0000
  O   O10       1.0  0.98751  0.03021  0.84976  1.0000
  O   O11       1.0  0.16891  0.09100  0.05300  1.0000
  O   O12       1.0  0.83109  0.90901  0.94700  1.0000
  O   O13       1.0  0.03019  0.77294  0.03877  1.0000
  O   O14       1.0  0.96981  0.22707  0.96123  1.0000
  O   O15       1.0  0.18876  0.89179  0.94229  1.0000
  O   O16       1.0  0.81125  0.10821  0.05771  1.0000
