data_image0
_chemical_formula_structural       H24Pb2C32N20O8
_chemical_formula_sum              "H24 Pb2 C32 N20 O8"
_cell_length_a       4.958
_cell_length_b       13.0126
_cell_length_c       15.4103
_cell_angle_alpha    109.864
_cell_angle_beta     89.9762
_cell_angle_gamma    90.0633

_space_group_name_H-M_alt    "P 1"
_space_group_IT_number       1

loop_
  _space_group_symop_operation_xyz
  'x, y, z'

loop_
  _atom_site_type_symbol
  _atom_site_label
  _atom_site_symmetry_multiplicity
  _atom_site_fract_x
  _atom_site_fract_y
  _atom_site_fract_z
  _atom_site_occupancy
  H   H1        1.0  0.57669  0.09641  0.51541  1.0000
  H   H2        1.0  0.07672  0.40351  0.98458  1.0000
  H   H3        1.0  0.42334  0.90365  0.48458  1.0000
  H   H4        1.0  0.92313  0.59645  0.01540  1.0000
  H   H5        1.0  0.24592  0.22117  0.70264  1.0000
  H   H6        1.0  0.74584  0.27892  0.79737  1.0000
  H   H7        1.0  0.75394  0.77890  0.29743  1.0000
  H   H8        1.0  0.25404  0.72105  0.20265  1.0000
  H   H9        1.0  0.59000  0.26837  0.47974  1.0000
  H   H10       1.0  0.08967  0.23152  0.02029  1.0000
  H   H11       1.0  0.41002  0.73169  0.52028  1.0000
  H   H12       1.0  0.91016  0.76844  0.97969  1.0000
  H   H13       1.0  0.34532  0.89297  0.76171  1.0000
  H   H14       1.0  0.84533  0.60712  0.73824  1.0000
  H   H15       1.0  0.65474  0.10701  0.23825  1.0000
  H   H16       1.0  0.15470  0.39290  0.26179  1.0000
  H   H17       1.0  0.11653  0.78135  0.71336  1.0000
  H   H18       1.0  0.61670  0.71867  0.78658  1.0000
  H   H19       1.0  0.88354  0.21861  0.28659  1.0000
  H   H20       1.0  0.38329  0.28134  0.21340  1.0000
  H   H21       1.0  0.22657  0.39008  0.65971  1.0000
  H   H22       1.0  0.72623  0.11000  0.84033  1.0000
  H   H23       1.0  0.77360  0.60990  0.34028  1.0000
  H   H24       1.0  0.27383  0.89005  0.15974  1.0000
  Pb  Pb1       1.0  0.50078  0.99978  0.99998  1.0000
  Pb  Pb2       1.0  0.00039  0.50008  0.50000  1.0000
  C   C1        1.0  0.91731  0.04392  0.63456  1.0000
  C   C2        1.0  0.41737  0.45607  0.86548  1.0000
  C   C3        1.0  0.08261  0.95610  0.36546  1.0000
  C   C4        1.0  0.58249  0.54395  0.13453  1.0000
  C   C5        1.0  0.72525  0.15871  0.54960  1.0000
  C   C6        1.0  0.22513  0.34122  0.95043  1.0000
  C   C7        1.0  0.27479  0.84134  0.45041  1.0000
  C   C8        1.0  0.77475  0.65874  0.04956  1.0000
  C   C9        1.0  0.09679  0.22897  0.65342  1.0000
  C   C10       1.0  0.59666  0.27108  0.84661  1.0000
  C   C11       1.0  0.90316  0.77107  0.34661  1.0000
  C   C12       1.0  0.40322  0.72891  0.15341  1.0000
  C   C13       1.0  0.73198  0.25485  0.52903  1.0000
  C   C14       1.0  0.23174  0.24508  0.97100  1.0000
  C   C15       1.0  0.26811  0.74520  0.47098  1.0000
  C   C16       1.0  0.76816  0.75488  0.02900  1.0000
  C   C17       1.0  0.13233  0.86995  0.74933  1.0000
  C   C18       1.0  0.63241  0.63009  0.75061  1.0000
  C   C19       1.0  0.86774  0.13001  0.25063  1.0000
  C   C20       1.0  0.36762  0.36993  0.24940  1.0000
  C   C21       1.0  0.97440  0.89809  0.84078  1.0000
  C   C22       1.0  0.47442  0.60189  0.65918  1.0000
  C   C23       1.0  0.02561  0.10180  0.15915  1.0000
  C   C24       1.0  0.52559  0.39816  0.34084  1.0000
  C   C25       1.0  0.91279  0.14447  0.61258  1.0000
  C   C26       1.0  0.41281  0.35552  0.88745  1.0000
  C   C27       1.0  0.08718  0.85557  0.38744  1.0000
  C   C28       1.0  0.58707  0.64448  0.11255  1.0000
  C   C29       1.0  0.08725  0.32251  0.62923  1.0000
  C   C30       1.0  0.58696  0.17752  0.87079  1.0000
  C   C31       1.0  0.91285  0.67751  0.37076  1.0000
  C   C32       1.0  0.41297  0.82248  0.12926  1.0000
  N   N1        1.0  0.08766  0.02469  0.69513  1.0000
  N   N2        1.0  0.58774  0.47539  0.80489  1.0000
  N   N3        1.0  0.91230  0.97530  0.30487  1.0000
  N   N4        1.0  0.41213  0.52462  0.19511  1.0000
  N   N5        1.0  0.90993  0.33565  0.56781  1.0000
  N   N6        1.0  0.40954  0.16434  0.93224  1.0000
  N   N7        1.0  0.09025  0.66438  0.43217  1.0000
  N   N8        1.0  0.59046  0.83563  0.06781  1.0000
  N   N9        1.0  0.01896  0.92387  0.68949  1.0000
  N   N10       1.0  0.51901  0.57613  0.81047  1.0000
  N   N11       1.0  0.98103  0.07612  0.31048  1.0000
  N   N12       1.0  0.48095  0.42389  0.18954  1.0000
  N   N13       1.0  0.75107  0.95700  0.59524  1.0000
  N   N14       1.0  0.25109  0.54286  0.90475  1.0000
  N   N15       1.0  0.24886  0.04301  0.40476  1.0000
  N   N16       1.0  0.74885  0.45718  0.09527  1.0000
  N   N17       1.0  0.81612  0.88165  0.63069  1.0000
  N   N18       1.0  0.31616  0.61821  0.86924  1.0000
  N   N19       1.0  0.18386  0.11834  0.36928  1.0000
  N   N20       1.0  0.68386  0.38183  0.13078  1.0000
  O   O1        1.0  0.09703  0.88990  0.91009  1.0000
  O   O2        1.0  0.59722  0.61003  0.58983  1.0000
  O   O3        1.0  0.90276  0.11002  0.08988  1.0000
  O   O4        1.0  0.40266  0.39003  0.41018  1.0000
  O   O5        1.0  0.72817  0.92349  0.83844  1.0000
  O   O6        1.0  0.22804  0.57651  0.66155  1.0000
  O   O7        1.0  0.27178  0.07633  0.16141  1.0000
  O   O8        1.0  0.77195  0.42355  0.33850  1.0000
