data_image0
_chemical_formula_structural       Ni2H36C40N8O8F8
_chemical_formula_sum              "Ni2 H36 C40 N8 O8 F8"
_cell_length_a       9.39597
_cell_length_b       9.35507
_cell_length_c       12.0073
_cell_angle_alpha    98.0143
_cell_angle_beta     90.0002
_cell_angle_gamma    89.9994

_space_group_name_H-M_alt    "P 1"
_space_group_IT_number       1

loop_
  _space_group_symop_operation_xyz
  'x, y, z'

loop_
  _atom_site_type_symbol
  _atom_site_label
  _atom_site_symmetry_multiplicity
  _atom_site_fract_x
  _atom_site_fract_y
  _atom_site_fract_z
  _atom_site_occupancy
  Ni  Ni1       1.0  0.60615  0.75000  0.75000  1.0000
  Ni  Ni2       1.0  0.39385  0.25000  0.25000  1.0000
  H   H1        1.0  0.28277  0.00340  0.76987  1.0000
  H   H2        1.0  0.28275  0.49659  0.73013  1.0000
  H   H3        1.0  0.71724  0.99659  0.23014  1.0000
  H   H4        1.0  0.71723  0.50340  0.26987  1.0000
  H   H5        1.0  0.47264  0.00971  0.77181  1.0000
  H   H6        1.0  0.47262  0.49027  0.72819  1.0000
  H   H7        1.0  0.52736  0.99029  0.22818  1.0000
  H   H8        1.0  0.52735  0.50971  0.27181  1.0000
  H   H9        1.0  0.37292  0.10892  0.88204  1.0000
  H   H10       1.0  0.37291  0.39108  0.61796  1.0000
  H   H11       1.0  0.62709  0.89109  0.11796  1.0000
  H   H12       1.0  0.62708  0.60891  0.38205  1.0000
  H   H13       1.0  0.50294  0.57686  0.94478  1.0000
  H   H14       1.0  0.50295  0.92313  0.55524  1.0000
  H   H15       1.0  0.49705  0.42314  0.05523  1.0000
  H   H16       1.0  0.49707  0.07685  0.44476  1.0000
  H   H17       1.0  0.30155  0.70809  0.09543  1.0000
  H   H18       1.0  0.30156  0.79192  0.40458  1.0000
  H   H19       1.0  0.69845  0.29192  0.90457  1.0000
  H   H20       1.0  0.69846  0.20805  0.59542  1.0000
  H   H21       1.0  0.23530  0.07919  0.02240  1.0000
  H   H22       1.0  0.23528  0.42081  0.47760  1.0000
  H   H23       1.0  0.76472  0.92082  0.97760  1.0000
  H   H24       1.0  0.76471  0.57918  0.52240  1.0000
  H   H25       1.0  0.19672  0.96195  0.12096  1.0000
  H   H26       1.0  0.19671  0.53807  0.37904  1.0000
  H   H27       1.0  0.80329  0.03807  0.87904  1.0000
  H   H28       1.0  0.80328  0.46193  0.62096  1.0000
  H   H29       1.0  0.01435  0.83485  0.99187  1.0000
  H   H30       1.0  0.01433  0.66516  0.50813  1.0000
  H   H31       1.0  0.98565  0.16517  0.00813  1.0000
  H   H32       1.0  0.98566  0.33484  0.49187  1.0000
  H   H33       1.0  0.06209  0.93762  0.88503  1.0000
  H   H34       1.0  0.06208  0.56239  0.61498  1.0000
  H   H35       1.0  0.93792  0.06240  0.11498  1.0000
  H   H36       1.0  0.93792  0.43761  0.38503  1.0000
  C   C1        1.0  0.37733  0.00735  0.82409  1.0000
  C   C2        1.0  0.37732  0.49265  0.67591  1.0000
  C   C3        1.0  0.62268  0.99265  0.17591  1.0000
  C   C4        1.0  0.62266  0.50734  0.32409  1.0000
  C   C5        1.0  0.38439  0.88163  0.88671  1.0000
  C   C6        1.0  0.38438  0.61837  0.61329  1.0000
  C   C7        1.0  0.61561  0.11837  0.11329  1.0000
  C   C8        1.0  0.61561  0.38162  0.38671  1.0000
  C   C9        1.0  0.44569  0.67717  0.94557  1.0000
  C   C10       1.0  0.44571  0.82283  0.55444  1.0000
  C   C11       1.0  0.55429  0.32284  0.05443  1.0000
  C   C12       1.0  0.55432  0.17715  0.44556  1.0000
  C   C13       1.0  0.34526  0.74076  0.01917  1.0000
  C   C14       1.0  0.34526  0.75924  0.48083  1.0000
  C   C15       1.0  0.65475  0.25925  0.98082  1.0000
  C   C16       1.0  0.65475  0.24074  0.51916  1.0000
  C   C17       1.0  0.19965  0.96977  0.03076  1.0000
  C   C18       1.0  0.19964  0.53023  0.46924  1.0000
  C   C19       1.0  0.80036  0.03023  0.96923  1.0000
  C   C20       1.0  0.80036  0.46976  0.53076  1.0000
  C   C21       1.0  0.05326  0.94145  0.97677  1.0000
  C   C22       1.0  0.05325  0.55856  0.52323  1.0000
  C   C23       1.0  0.94675  0.05857  0.02323  1.0000
  C   C24       1.0  0.94674  0.44144  0.47677  1.0000
  C   C25       1.0  0.77099  0.58058  0.85465  1.0000
  C   C26       1.0  0.77100  0.91940  0.64534  1.0000
  C   C27       1.0  0.22900  0.41942  0.14535  1.0000
  C   C28       1.0  0.22899  0.08061  0.35467  1.0000
  C   C29       1.0  0.89072  0.54380  0.92997  1.0000
  C   C30       1.0  0.89072  0.95620  0.57002  1.0000
  C   C31       1.0  0.10928  0.45621  0.07002  1.0000
  C   C32       1.0  0.10927  0.04380  0.42998  1.0000
  C   C33       1.0  0.00464  0.45868  0.88531  1.0000
  C   C34       1.0  0.00463  0.04133  0.61469  1.0000
  C   C35       1.0  0.99537  0.54134  0.11468  1.0000
  C   C36       1.0  0.99536  0.95867  0.38532  1.0000
  C   C37       1.0  0.11161  0.41574  0.95369  1.0000
  C   C38       1.0  0.11159  0.08429  0.54632  1.0000
  C   C39       1.0  0.88841  0.58429  0.04630  1.0000
  C   C40       1.0  0.88841  0.91571  0.45369  1.0000
  N   N1        1.0  0.46897  0.76500  0.86384  1.0000
  N   N2        1.0  0.46897  0.73499  0.63616  1.0000
  N   N3        1.0  0.53103  0.23499  0.13616  1.0000
  N   N4        1.0  0.53103  0.26499  0.36384  1.0000
  N   N5        1.0  0.30786  0.86828  0.98107  1.0000
  N   N6        1.0  0.30785  0.63173  0.51893  1.0000
  N   N7        1.0  0.69215  0.13173  0.01893  1.0000
  N   N8        1.0  0.69215  0.36826  0.48107  1.0000
  O   O1        1.0  0.75185  0.71719  0.85372  1.0000
  O   O2        1.0  0.75187  0.78280  0.64628  1.0000
  O   O3        1.0  0.24813  0.28282  0.14628  1.0000
  O   O4        1.0  0.24813  0.21720  0.35373  1.0000
  O   O5        1.0  0.70253  0.47923  0.80142  1.0000
  O   O6        1.0  0.70253  0.02075  0.69858  1.0000
  O   O7        1.0  0.29749  0.52076  0.19857  1.0000
  O   O8        1.0  0.29747  0.97924  0.30143  1.0000
  F   F1        1.0  0.01359  0.41781  0.77254  1.0000
  F   F2        1.0  0.01359  0.08218  0.72746  1.0000
  F   F3        1.0  0.98641  0.58220  0.22745  1.0000
  F   F4        1.0  0.98641  0.91782  0.27254  1.0000
  F   F5        1.0  0.22093  0.33543  0.90483  1.0000
  F   F6        1.0  0.22090  0.16459  0.59517  1.0000
  F   F7        1.0  0.77907  0.66458  0.09516  1.0000
  F   F8        1.0  0.77908  0.83542  0.40483  1.0000
