data_image0
_chemical_formula_structural       CoH22C28N4O10F8
_chemical_formula_sum              "Co1 H22 C28 N4 O10 F8"
_cell_length_a       9.54668
_cell_length_b       10.8418
_cell_length_c       10.9664
_cell_angle_alpha    114.615
_cell_angle_beta     116.239
_cell_angle_gamma    93.8335

_space_group_name_H-M_alt    "P 1"
_space_group_IT_number       1

loop_
  _space_group_symop_operation_xyz
  'x, y, z'

loop_
  _atom_site_type_symbol
  _atom_site_label
  _atom_site_symmetry_multiplicity
  _atom_site_fract_x
  _atom_site_fract_y
  _atom_site_fract_z
  _atom_site_occupancy
  Co  Co1       1.0  0.50001  0.50000  0.50001  1.0000
  H   H1        1.0  0.40610  0.69562  0.58619  1.0000
  H   H2        1.0  0.59390  0.30436  0.41380  1.0000
  H   H3        1.0  0.30806  0.60833  0.39295  1.0000
  H   H4        1.0  0.69194  0.39164  0.60704  1.0000
  H   H5        1.0  0.06003  0.36797  0.15316  1.0000
  H   H6        1.0  0.93993  0.63202  0.84681  1.0000
  H   H7        1.0  0.96157  0.47900  0.08816  1.0000
  H   H8        1.0  0.03842  0.52099  0.91182  1.0000
  H   H9        1.0  0.95740  0.31461  0.94947  1.0000
  H   H10       1.0  0.04255  0.68538  0.05052  1.0000
  H   H11       1.0  0.46468  0.03861  0.83991  1.0000
  H   H12       1.0  0.53526  0.96143  0.16008  1.0000
  H   H13       1.0  0.54301  0.24516  0.13828  1.0000
  H   H14       1.0  0.45697  0.75484  0.86173  1.0000
  H   H15       1.0  0.74820  0.49780  0.32382  1.0000
  H   H16       1.0  0.25179  0.50221  0.67618  1.0000
  H   H17       1.0  0.90264  0.54570  0.28855  1.0000
  H   H18       1.0  0.09737  0.45430  0.71145  1.0000
  H   H19       1.0  0.89633  0.34397  0.41716  1.0000
  H   H20       1.0  0.10367  0.65605  0.58285  1.0000
  H   H21       1.0  0.05741  0.40226  0.39513  1.0000
  H   H22       1.0  0.94257  0.59775  0.60489  1.0000
  C   C1        1.0  0.32119  0.21156  0.25224  1.0000
  C   C2        1.0  0.67881  0.78843  0.74775  1.0000
  C   C3        1.0  0.15561  0.10337  0.12347  1.0000
  C   C4        1.0  0.84438  0.89664  0.87653  1.0000
  C   C5        1.0  0.11837  0.03071  0.96827  1.0000
  C   C6        1.0  0.88162  0.96931  0.03173  1.0000
  C   C7        1.0  0.96616  0.92990  0.84736  1.0000
  C   C8        1.0  0.03383  0.07011  0.15264  1.0000
  C   C9        1.0  0.57933  0.44842  0.75676  1.0000
  C   C10       1.0  0.42071  0.55158  0.24324  1.0000
  C   C11       1.0  0.54054  0.47057  0.88295  1.0000
  C   C12       1.0  0.45951  0.52945  0.11707  1.0000
  C   C13       1.0  0.40252  0.38150  0.85152  1.0000
  C   C14       1.0  0.59754  0.61850  0.14850  1.0000
  C   C15       1.0  0.63754  0.58870  0.03327  1.0000
  C   C16       1.0  0.36253  0.41130  0.96675  1.0000
  C   C17       1.0  0.95229  0.36704  0.05611  1.0000
  C   C18       1.0  0.04770  0.63297  0.94387  1.0000
  C   C19       1.0  0.79810  0.29019  0.02771  1.0000
  C   C20       1.0  0.20189  0.70983  0.97230  1.0000
  C   C21       1.0  0.56915  0.13436  0.92506  1.0000
  C   C22       1.0  0.43080  0.86564  0.07491  1.0000
  C   C23       1.0  0.60549  0.23758  0.07463  1.0000
  C   C24       1.0  0.39448  0.76243  0.92538  1.0000
  C   C25       1.0  0.83926  0.46164  0.29430  1.0000
  C   C26       1.0  0.16075  0.53835  0.70573  1.0000
  C   C27       1.0  0.96135  0.43340  0.41944  1.0000
  C   C28       1.0  0.03864  0.56658  0.58057  1.0000
  N   N1        1.0  0.74986  0.33563  0.13764  1.0000
  N   N2        1.0  0.25015  0.66437  0.86238  1.0000
  N   N3        1.0  0.68838  0.16804  0.89831  1.0000
  N   N4        1.0  0.31152  0.83196  0.10166  1.0000
  O   O1        1.0  0.31431  0.33160  0.34162  1.0000
  O   O2        1.0  0.68570  0.66841  0.65839  1.0000
  O   O3        1.0  0.44768  0.17945  0.26080  1.0000
  O   O4        1.0  0.55229  0.82054  0.73917  1.0000
  O   O5        1.0  0.48214  0.48606  0.66152  1.0000
  O   O6        1.0  0.51788  0.51392  0.33848  1.0000
  O   O7        1.0  0.69537  0.40207  0.75725  1.0000
  O   O8        1.0  0.30466  0.59792  0.24275  1.0000
  O   O9        1.0  0.33610  0.59766  0.48827  1.0000
  O   O10       1.0  0.66391  0.40231  0.51172  1.0000
  F   F1        1.0  0.22987  0.05824  0.93116  1.0000
  F   F2        1.0  0.77012  0.94176  0.06883  1.0000
  F   F3        1.0  0.93725  0.86761  0.69961  1.0000
  F   F4        1.0  0.06274  0.13240  0.30038  1.0000
  F   F5        1.0  0.30331  0.26672  0.70755  1.0000
  F   F6        1.0  0.69674  0.73330  0.29246  1.0000
  F   F7        1.0  0.77370  0.67702  0.06894  1.0000
  F   F8        1.0  0.22639  0.32296  0.93110  1.0000
