data_image0
_chemical_formula_structural       CdH22C28N4O10F8
_chemical_formula_sum              "Cd1 H22 C28 N4 O10 F8"
_cell_length_a       9.11382
_cell_length_b       11.0197
_cell_length_c       11.1009
_cell_angle_alpha    115.304
_cell_angle_beta     93.907
_cell_angle_gamma    109.663

_space_group_name_H-M_alt    "P 1"
_space_group_IT_number       1

loop_
  _space_group_symop_operation_xyz
  'x, y, z'

loop_
  _atom_site_type_symbol
  _atom_site_label
  _atom_site_symmetry_multiplicity
  _atom_site_fract_x
  _atom_site_fract_y
  _atom_site_fract_z
  _atom_site_occupancy
  Cd  Cd1       1.0  0.99999  1.00000  0.50000  1.0000
  H   H1        1.0  0.19579  0.07289  0.72978  1.0000
  H   H2        1.0  0.80420  0.92711  0.27022  1.0000
  H   H3        1.0  0.10837  0.89574  0.64867  1.0000
  H   H4        1.0  0.89163  0.10425  0.35133  1.0000
  H   H5        1.0  0.99594  0.46404  0.32630  1.0000
  H   H6        1.0  0.00407  0.53594  0.67368  1.0000
  H   H7        1.0  0.07053  0.65439  0.36638  1.0000
  H   H8        1.0  0.92947  0.34559  0.63363  1.0000
  H   H9        1.0  0.13620  0.60638  0.48549  1.0000
  H   H10       1.0  0.86380  0.39358  0.51450  1.0000
  H   H11       1.0  0.38212  0.38436  0.07125  1.0000
  H   H12       1.0  0.61792  0.61566  0.92874  1.0000
  H   H13       1.0  0.59547  0.66829  0.27280  1.0000
  H   H14       1.0  0.40454  0.33173  0.72720  1.0000
  H   H15       1.0  0.56907  0.82756  0.52133  1.0000
  H   H16       1.0  0.43092  0.17245  0.47867  1.0000
  H   H17       1.0  0.37005  0.80152  0.54303  1.0000
  H   H18       1.0  0.62994  0.19847  0.45696  1.0000
  H   H19       1.0  0.33389  0.91106  0.39601  1.0000
  H   H20       1.0  0.66610  0.08894  0.60399  1.0000
  H   H21       1.0  0.52144  0.91870  0.35527  1.0000
  H   H22       1.0  0.47855  0.08130  0.64472  1.0000
  C   C1        1.0  0.07273  0.26176  0.80086  1.0000
  C   C2        1.0  0.92727  0.73824  0.19913  1.0000
  C   C3        1.0  0.03612  0.38462  0.90432  1.0000
  C   C4        1.0  0.96388  0.61538  0.09567  1.0000
  C   C5        1.0  0.14657  0.53045  0.96686  1.0000
  C   C6        1.0  0.85342  0.46955  0.03314  1.0000
  C   C7        1.0  0.88799  0.35639  0.93909  1.0000
  C   C8        1.0  0.11200  0.64361  0.06091  1.0000
  C   C9        1.0  0.18107  0.26722  0.44084  1.0000
  C   C10       1.0  0.81893  0.73278  0.55917  1.0000
  C   C11       1.0  0.34219  0.38916  0.46589  1.0000
  C   C12       1.0  0.65781  0.61085  0.53413  1.0000
  C   C13       1.0  0.44779  0.36305  0.38373  1.0000
  C   C14       1.0  0.55220  0.63695  0.61629  1.0000
  C   C15       1.0  0.39783  0.52827  0.58312  1.0000
  C   C16       1.0  0.60216  0.47173  0.41690  1.0000
  C   C17       1.0  0.10118  0.56858  0.37468  1.0000
  C   C18       1.0  0.89883  0.43140  0.62531  1.0000
  C   C19       1.0  0.23004  0.54971  0.30677  1.0000
  C   C20       1.0  0.76997  0.45029  0.69322  1.0000
  C   C21       1.0  0.36073  0.46066  0.16256  1.0000
  C   C22       1.0  0.63930  0.53935  0.83744  1.0000
  C   C23       1.0  0.47085  0.60432  0.26361  1.0000
  C   C24       1.0  0.52917  0.39569  0.73639  1.0000
  C   C25       1.0  0.44770  0.80519  0.47227  1.0000
  C   C26       1.0  0.55230  0.19481  0.52773  1.0000
  C   C27       1.0  0.45570  0.92534  0.43583  1.0000
  C   C28       1.0  0.54429  0.07466  0.56416  1.0000
  N   N1        1.0  0.21545  0.42984  0.19070  1.0000
  N   N2        1.0  0.78457  0.57016  0.80929  1.0000
  N   N3        1.0  0.38600  0.65860  0.35206  1.0000
  N   N4        1.0  0.61401  0.34141  0.64793  1.0000
  O   O1        1.0  0.97334  0.18898  0.68279  1.0000
  O   O2        1.0  0.02666  0.81102  0.31721  1.0000
  O   O3        1.0  0.19329  0.24287  0.83692  1.0000
  O   O4        1.0  0.80671  0.75713  0.16308  1.0000
  O   O5        1.0  0.20073  0.18040  0.48137  1.0000
  O   O6        1.0  0.79927  0.81961  0.51866  1.0000
  O   O7        1.0  0.05446  0.26534  0.38825  1.0000
  O   O8        1.0  0.94554  0.73465  0.61175  1.0000
  O   O9        1.0  0.18367  0.98326  0.64467  1.0000
  O   O10       1.0  0.81632  0.01674  0.35533  1.0000
  F   F1        1.0  0.29221  0.56482  0.93698  1.0000
  F   F2        1.0  0.70779  0.43518  0.06302  1.0000
  F   F3        1.0  0.77608  0.21721  0.88329  1.0000
  F   F4        1.0  0.22391  0.78279  0.11670  1.0000
  F   F5        1.0  0.29726  0.56113  0.66283  1.0000
  F   F6        1.0  0.70273  0.43887  0.33720  1.0000
  F   F7        1.0  0.40491  0.23098  0.27193  1.0000
  F   F8        1.0  0.59509  0.76902  0.72808  1.0000
