data_image0
_chemical_formula_structural       Hg4P4H48C52I8O4
_chemical_formula_sum              "Hg4 P4 H48 C52 I8 O4"
_cell_length_a       8.99583
_cell_length_b       13.6547
_cell_length_c       13.6548
_cell_angle_alpha    99.7945
_cell_angle_beta     100.52
_cell_angle_gamma    100.518

_space_group_name_H-M_alt    "P 1"
_space_group_IT_number       1

loop_
  _space_group_symop_operation_xyz
  'x, y, z'

loop_
  _atom_site_type_symbol
  _atom_site_label
  _atom_site_symmetry_multiplicity
  _atom_site_fract_x
  _atom_site_fract_y
  _atom_site_fract_z
  _atom_site_occupancy
  Hg  Hg1       1.0  0.75001  0.83356  0.16645  1.0000
  Hg  Hg2       1.0  0.24999  0.16645  0.83356  1.0000
  Hg  Hg3       1.0  0.49998  0.00000  0.00000  1.0000
  Hg  Hg4       1.0  0.00000  0.00001  0.99999  1.0000
  P   P1        1.0  0.70470  0.53366  0.12658  1.0000
  P   P2        1.0  0.79531  0.87342  0.46634  1.0000
  P   P3        1.0  0.29529  0.46634  0.87341  1.0000
  P   P4        1.0  0.20470  0.12659  0.53366  1.0000
  H   H1        1.0  0.63653  0.49667  0.94530  1.0000
  H   H2        1.0  0.86346  0.05471  0.50334  1.0000
  H   H3        1.0  0.36346  0.50334  0.05470  1.0000
  H   H4        1.0  0.13655  0.94530  0.49667  1.0000
  H   H5        1.0  0.54400  0.39471  0.99272  1.0000
  H   H6        1.0  0.95600  0.00728  0.60529  1.0000
  H   H7        1.0  0.45599  0.60529  0.00729  1.0000
  H   H8        1.0  0.04401  0.99272  0.39472  1.0000
  H   H9        1.0  0.63841  0.32239  0.16546  1.0000
  H   H10       1.0  0.86159  0.83453  0.67760  1.0000
  H   H11       1.0  0.36160  0.67761  0.83453  1.0000
  H   H12       1.0  0.13841  0.16547  0.32240  1.0000
  H   H13       1.0  0.51609  0.25394  0.29510  1.0000
  H   H14       1.0  0.98390  0.70489  0.74606  1.0000
  H   H15       1.0  0.48393  0.74606  0.70490  1.0000
  H   H16       1.0  0.01606  0.29510  0.25394  1.0000
  H   H17       1.0  0.41809  0.36683  0.41868  1.0000
  H   H18       1.0  0.08191  0.58131  0.63317  1.0000
  H   H19       1.0  0.58192  0.63316  0.58131  1.0000
  H   H20       1.0  0.91807  0.41869  0.36683  1.0000
  H   H21       1.0  0.45666  0.55250  0.41950  1.0000
  H   H22       1.0  0.04336  0.58050  0.44751  1.0000
  H   H23       1.0  0.54334  0.44750  0.58049  1.0000
  H   H24       1.0  0.95665  0.41951  0.55250  1.0000
  H   H25       1.0  0.58821  0.62363  0.29208  1.0000
  H   H26       1.0  0.91180  0.70792  0.37638  1.0000
  H   H27       1.0  0.41178  0.37637  0.70791  1.0000
  H   H28       1.0  0.08821  0.29209  0.62363  1.0000
  H   H29       1.0  0.78592  0.34684  0.01903  1.0000
  H   H30       1.0  0.71406  0.98096  0.65316  1.0000
  H   H31       1.0  0.21406  0.65316  0.98097  1.0000
  H   H32       1.0  0.28595  0.01904  0.34684  1.0000
  H   H33       1.0  0.03476  0.29198  0.03607  1.0000
  H   H34       1.0  0.46521  0.96392  0.70800  1.0000
  H   H35       1.0  0.96521  0.70801  0.96394  1.0000
  H   H36       1.0  0.53480  0.03608  0.29201  1.0000
  H   H37       1.0  0.27141  0.40190  0.15593  1.0000
  H   H38       1.0  0.22858  0.84404  0.59808  1.0000
  H   H39       1.0  0.72858  0.59810  0.84406  1.0000
  H   H40       1.0  0.77143  0.15595  0.40193  1.0000
  H   H41       1.0  0.26320  0.57393  0.24838  1.0000
  H   H42       1.0  0.23682  0.75160  0.42604  1.0000
  H   H43       1.0  0.73680  0.42607  0.75161  1.0000
  H   H44       1.0  0.76319  0.24839  0.57396  1.0000
  H   H45       1.0  0.01332  0.63114  0.22933  1.0000
  H   H46       1.0  0.48671  0.77068  0.36886  1.0000
  H   H47       1.0  0.98668  0.36887  0.77066  1.0000
  H   H48       1.0  0.51330  0.22933  0.63114  1.0000
  C   C1        1.0  0.57303  0.47828  0.00373  1.0000
  C   C2        1.0  0.92698  0.99628  0.52173  1.0000
  C   C3        1.0  0.42696  0.52173  0.99628  1.0000
  C   C4        1.0  0.07303  0.00372  0.47827  1.0000
  C   C5        1.0  0.61776  0.47768  0.21972  1.0000
  C   C6        1.0  0.88225  0.78028  0.52231  1.0000
  C   C7        1.0  0.38224  0.52231  0.78027  1.0000
  C   C8        1.0  0.11776  0.21973  0.47769  1.0000
  C   C9        1.0  0.59848  0.37347  0.22058  1.0000
  C   C10       1.0  0.90152  0.77942  0.62653  1.0000
  C   C11       1.0  0.40152  0.62652  0.77941  1.0000
  C   C12       1.0  0.09848  0.22059  0.37348  1.0000
  C   C13       1.0  0.52896  0.33445  0.29328  1.0000
  C   C14       1.0  0.97104  0.70672  0.66555  1.0000
  C   C15       1.0  0.47105  0.66555  0.70672  1.0000
  C   C16       1.0  0.02894  0.29328  0.33445  1.0000
  C   C17       1.0  0.47629  0.39856  0.36407  1.0000
  C   C18       1.0  0.02372  0.63593  0.60144  1.0000
  C   C19       1.0  0.52372  0.60143  0.63593  1.0000
  C   C20       1.0  0.97627  0.36407  0.39856  1.0000
  C   C21       1.0  0.49728  0.50245  0.36413  1.0000
  C   C22       1.0  0.00273  0.63587  0.49756  1.0000
  C   C23       1.0  0.50272  0.49755  0.63586  1.0000
  C   C24       1.0  0.99727  0.36414  0.50245  1.0000
  C   C25       1.0  0.56904  0.54246  0.29263  1.0000
  C   C26       1.0  0.93097  0.70737  0.45755  1.0000
  C   C27       1.0  0.43095  0.45754  0.70736  1.0000
  C   C28       1.0  0.06904  0.29264  0.54246  1.0000
  C   C29       1.0  0.88306  0.49120  0.12627  1.0000
  C   C30       1.0  0.61694  0.87372  0.50880  1.0000
  C   C31       1.0  0.11693  0.50880  0.87372  1.0000
  C   C32       1.0  0.38307  0.12627  0.49120  1.0000
  C   C33       1.0  0.88959  0.39672  0.07019  1.0000
  C   C34       1.0  0.61040  0.92980  0.60328  1.0000
  C   C35       1.0  0.11039  0.60328  0.92981  1.0000
  C   C36       1.0  0.38961  0.07020  0.39672  1.0000
  C   C37       1.0  0.02999  0.36559  0.07976  1.0000
  C   C38       1.0  0.47000  0.92023  0.63440  1.0000
  C   C39       1.0  0.96999  0.63441  0.92024  1.0000
  C   C40       1.0  0.53001  0.07976  0.36560  1.0000
  C   C41       1.0  0.16327  0.42824  0.14576  1.0000
  C   C42       1.0  0.33672  0.85423  0.57175  1.0000
  C   C43       1.0  0.83671  0.57176  0.85424  1.0000
  C   C44       1.0  0.66328  0.14576  0.42826  1.0000
  C   C45       1.0  0.15802  0.52404  0.19925  1.0000
  C   C46       1.0  0.34199  0.80074  0.47594  1.0000
  C   C47       1.0  0.84197  0.47596  0.80075  1.0000
  C   C48       1.0  0.65802  0.19925  0.52406  1.0000
  C   C49       1.0  0.01847  0.55586  0.18954  1.0000
  C   C50       1.0  0.48155  0.81045  0.44413  1.0000
  C   C51       1.0  0.98152  0.44414  0.81045  1.0000
  C   C52       1.0  0.51847  0.18954  0.55587  1.0000
  I   I1        1.0  0.44296  0.81415  0.13268  1.0000
  I   I2        1.0  0.05705  0.86734  0.18585  1.0000
  I   I3        1.0  0.55703  0.18585  0.86734  1.0000
  I   I4        1.0  0.94295  0.13266  0.81415  1.0000
  I   I5        1.0  0.75323  0.10552  0.14075  1.0000
  I   I6        1.0  0.74676  0.85925  0.89448  1.0000
  I   I7        1.0  0.24676  0.89448  0.85925  1.0000
  I   I8        1.0  0.25325  0.14075  0.10551  1.0000
  O   O1        1.0  0.73182  0.64779  0.15358  1.0000
  O   O2        1.0  0.76818  0.84643  0.35221  1.0000
  O   O3        1.0  0.26818  0.35222  0.84643  1.0000
  O   O4        1.0  0.23182  0.15358  0.64779  1.0000
