data_image0
_chemical_formula_structural       Zn4H16C24N8O20
_chemical_formula_sum              "Zn4 H16 C24 N8 O20"
_cell_length_a       9.39439
_cell_length_b       9.40291
_cell_length_c       11.5054
_cell_angle_alpha    107.319
_cell_angle_beta     107.26
_cell_angle_gamma    105.807

_space_group_name_H-M_alt    "P 1"
_space_group_IT_number       1

loop_
  _space_group_symop_operation_xyz
  'x, y, z'

loop_
  _atom_site_type_symbol
  _atom_site_label
  _atom_site_symmetry_multiplicity
  _atom_site_fract_x
  _atom_site_fract_y
  _atom_site_fract_z
  _atom_site_occupancy
  Zn  Zn1       1.0  0.23090  0.85519  0.09400  1.0000
  Zn  Zn2       1.0  0.76109  0.13717  0.90584  1.0000
  Zn  Zn3       1.0  0.88772  0.01220  0.40596  1.0000
  Zn  Zn4       1.0  0.60642  0.48187  0.59406  1.0000
  H   H1        1.0  0.20537  0.08474  0.74786  1.0000
  H   H2        1.0  0.33731  0.45765  0.25166  1.0000
  H   H3        1.0  0.20878  0.58762  0.75254  1.0000
  H   H4        1.0  0.83634  0.45701  0.24810  1.0000
  H   H5        1.0  0.74604  0.15733  0.27438  1.0000
  H   H6        1.0  0.88266  0.47089  0.72594  1.0000
  H   H7        1.0  0.22063  0.13205  0.22532  1.0000
  H   H8        1.0  0.90591  0.99464  0.77422  1.0000
  H   H9        1.0  0.60362  0.81284  0.11170  1.0000
  H   H10       1.0  0.70042  0.49149  0.88837  1.0000
  H   H11       1.0  0.24387  0.95180  0.38913  1.0000
  H   H12       1.0  0.56171  0.85374  0.61072  1.0000
  H   H13       1.0  0.76388  0.93838  0.08734  1.0000
  H   H14       1.0  0.85009  0.67611  0.91264  1.0000
  H   H15       1.0  0.42743  0.10180  0.41204  1.0000
  H   H16       1.0  0.68806  0.01435  0.58738  1.0000
  C   C1        1.0  0.14876  0.96621  0.88723  1.0000
  C   C2        1.0  0.07934  0.26174  0.11236  1.0000
  C   C3        1.0  0.01274  0.32996  0.61306  1.0000
  C   C4        1.0  0.71815  0.40042  0.38741  1.0000
  C   C5        1.0  0.32252  0.99776  0.93062  1.0000
  C   C6        1.0  0.06722  0.39214  0.06928  1.0000
  C   C7        1.0  0.14329  0.31787  0.56990  1.0000
  C   C8        1.0  0.74871  0.57384  0.43051  1.0000
  C   C9        1.0  0.43734  0.05958  0.88590  1.0000
  C   C10       1.0  0.17370  0.55161  0.11403  1.0000
  C   C11       1.0  0.30296  0.42421  0.61478  1.0000
  C   C12       1.0  0.81001  0.68860  0.38564  1.0000
  C   C13       1.0  0.43143  0.12059  0.78256  1.0000
  C   C14       1.0  0.33830  0.64895  0.21714  1.0000
  C   C15       1.0  0.40024  0.58876  0.71787  1.0000
  C   C16       1.0  0.87143  0.68281  0.28248  1.0000
  C   C17       1.0  0.54726  0.98037  0.03658  1.0000
  C   C18       1.0  0.94344  0.51076  0.96361  1.0000
  C   C19       1.0  0.26184  0.19426  0.46378  1.0000
  C   C20       1.0  0.73008  0.79787  0.53618  1.0000
  C   C21       1.0  0.66583  0.93555  0.12113  1.0000
  C   C22       1.0  0.81379  0.54445  0.87901  1.0000
  C   C23       1.0  0.29567  0.06481  0.37902  1.0000
  C   C24       1.0  0.68477  0.91604  0.62070  1.0000
  N   N1        1.0  0.39315  0.94944  0.02552  1.0000
  N   N2        1.0  0.92378  0.36785  0.97458  1.0000
  N   N3        1.0  0.11882  0.17460  0.47484  1.0000
  N   N4        1.0  0.69992  0.64406  0.52532  1.0000
  N   N5        1.0  0.57800  0.04865  0.95389  1.0000
  N   N6        1.0  0.09451  0.62418  0.04621  1.0000
  N   N7        1.0  0.37545  0.34516  0.54663  1.0000
  N   N8        1.0  0.79837  0.82883  0.45349  1.0000
  O   O1        1.0  0.07157  0.89181  0.93886  1.0000
  O   O2        1.0  0.95328  0.13294  0.06068  1.0000
  O   O3        1.0  0.88367  0.20410  0.56107  1.0000
  O   O4        1.0  0.64398  0.32314  0.43914  1.0000
  O   O5        1.0  0.08568  0.01488  0.79869  1.0000
  O   O6        1.0  0.21676  0.28714  0.20068  1.0000
  O   O7        1.0  0.03830  0.46717  0.70177  1.0000
  O   O8        1.0  0.76723  0.33754  0.29899  1.0000
  O   O9        1.0  0.55400  0.16311  0.75878  1.0000
  O   O10       1.0  0.40466  0.79515  0.24083  1.0000
  O   O11       1.0  0.54646  0.65524  0.74143  1.0000
  O   O12       1.0  0.91397  0.80529  0.25876  1.0000
  O   O13       1.0  0.29481  0.12813  0.71576  1.0000
  O   O14       1.0  0.41279  0.57920  0.28382  1.0000
  O   O15       1.0  0.33030  0.66316  0.78454  1.0000
  O   O16       1.0  0.87947  0.54644  0.21591  1.0000
  O   O17       1.0  0.73149  0.04137  0.26106  1.0000
  O   O18       1.0  0.77986  0.47011  0.73910  1.0000
  O   O19       1.0  0.21999  0.02964  0.23899  1.0000
  O   O20       1.0  0.78996  0.98095  0.76069  1.0000
