data_image0
_chemical_formula_structural       Hg2H6C10Br8N2
_chemical_formula_sum              "Hg2 H6 C10 Br8 N2"
_cell_length_a       4.03553
_cell_length_b       9.32702
_cell_length_c       14
_cell_angle_alpha    81.9229
_cell_angle_beta     86.7353
_cell_angle_gamma    88.4187

_space_group_name_H-M_alt    "P 1"
_space_group_IT_number       1

loop_
  _space_group_symop_operation_xyz
  'x, y, z'

loop_
  _atom_site_type_symbol
  _atom_site_label
  _atom_site_symmetry_multiplicity
  _atom_site_fract_x
  _atom_site_fract_y
  _atom_site_fract_z
  _atom_site_occupancy
  Hg  Hg1       1.0  0.93201  0.22848  0.30310  1.0000
  Hg  Hg2       1.0  0.06800  0.77151  0.69691  1.0000
  H   H1        1.0  0.76043  0.04534  0.12472  1.0000
  H   H2        1.0  0.23956  0.95466  0.87528  1.0000
  H   H3        1.0  0.18010  0.89651  0.38577  1.0000
  H   H4        1.0  0.81990  0.10349  0.61423  1.0000
  H   H5        1.0  0.00915  0.58848  0.18974  1.0000
  H   H6        1.0  0.99084  0.41152  0.81026  1.0000
  C   C1        1.0  0.11072  0.72793  0.29588  1.0000
  C   C2        1.0  0.88927  0.27208  0.70412  1.0000
  C   C3        1.0  0.87145  0.81351  0.14595  1.0000
  C   C4        1.0  0.12854  0.18649  0.85405  1.0000
  C   C5        1.0  0.85916  0.95285  0.17180  1.0000
  C   C6        1.0  0.14084  0.04715  0.82820  1.0000
  C   C7        1.0  0.09453  0.86937  0.31812  1.0000
  C   C8        1.0  0.90547  0.13063  0.68188  1.0000
  C   C9        1.0  0.99941  0.69808  0.20838  1.0000
  C   C10       1.0  0.00059  0.30192  0.79162  1.0000
  Br  Br1       1.0  0.31588  0.17694  0.44142  1.0000
  Br  Br2       1.0  0.68413  0.82306  0.55859  1.0000
  Br  Br3       1.0  0.58261  0.35025  0.16940  1.0000
  Br  Br4       1.0  0.41741  0.64973  0.83059  1.0000
  Br  Br5       1.0  0.27444  0.57539  0.38555  1.0000
  Br  Br6       1.0  0.72557  0.42462  0.61444  1.0000
  Br  Br7       1.0  0.71334  0.77997  0.02620  1.0000
  Br  Br8       1.0  0.28666  0.22003  0.97380  1.0000
  N   N1        1.0  0.97041  0.97787  0.25629  1.0000
  N   N2        1.0  0.02958  0.02213  0.74371  1.0000
