data_image0
_chemical_formula_structural       CoH28C30S2N10
_chemical_formula_sum              "Co1 H28 C30 S2 N10"
_cell_length_a       10.0324
_cell_length_b       10.2751
_cell_length_c       10.0324
_cell_angle_alpha    67.7043
_cell_angle_beta     78.733
_cell_angle_gamma    113.968

_space_group_name_H-M_alt    "P 1"
_space_group_IT_number       1

loop_
  _space_group_symop_operation_xyz
  'x, y, z'

loop_
  _atom_site_type_symbol
  _atom_site_label
  _atom_site_symmetry_multiplicity
  _atom_site_fract_x
  _atom_site_fract_y
  _atom_site_fract_z
  _atom_site_occupancy
  Co  Co1       1.0  0.99658  1.00000  0.00342  1.0000
  H   H1        1.0  0.83346  0.35196  0.66237  1.0000
  H   H2        1.0  0.98567  0.64805  0.51850  1.0000
  H   H3        1.0  0.33633  0.49661  0.00942  1.0000
  H   H4        1.0  0.49397  0.50339  0.16028  1.0000
  H   H5        1.0  0.88264  0.42068  0.79576  1.0000
  H   H6        1.0  0.78357  0.57933  0.53803  1.0000
  H   H7        1.0  0.21006  0.32440  0.20816  1.0000
  H   H8        1.0  0.46745  0.67560  0.11434  1.0000
  H   H9        1.0  0.67685  0.30502  0.02528  1.0000
  H   H10       1.0  0.66969  0.69498  0.62817  1.0000
  H   H11       1.0  0.97742  0.29833  0.32598  1.0000
  H   H12       1.0  0.37569  0.70168  0.32090  1.0000
  H   H13       1.0  0.34641  0.19887  0.88270  1.0000
  H   H14       1.0  0.91843  0.80113  0.85246  1.0000
  H   H15       1.0  0.10947  0.75036  0.08503  1.0000
  H   H16       1.0  0.16461  0.24964  0.64089  1.0000
  H   H17       1.0  0.96910  0.91532  0.32611  1.0000
  H   H18       1.0  0.75857  0.08468  0.94623  1.0000
  H   H19       1.0  0.66426  0.68413  0.26595  1.0000
  H   H20       1.0  0.04992  0.31588  0.01986  1.0000
  H   H21       1.0  0.15753  0.97190  0.45683  1.0000
  H   H22       1.0  0.57127  0.02810  0.81437  1.0000
  H   H23       1.0  0.53574  0.37589  0.43924  1.0000
  H   H24       1.0  0.18487  0.62411  0.84015  1.0000
  H   H25       1.0  0.45299  0.14379  0.28988  1.0000
  H   H26       1.0  0.56632  0.85620  0.69081  1.0000
  H   H27       1.0  0.70796  0.25568  0.43135  1.0000
  H   H28       1.0  0.31296  0.74432  0.54772  1.0000
  C   C1        1.0  0.23668  0.00000  0.76332  1.0000
  C   C2        1.0  0.75767  1.00000  0.24233  1.0000
  C   C3        1.0  0.80965  0.41208  0.72643  1.0000
  C   C4        1.0  0.86149  0.58793  0.60243  1.0000
  C   C5        1.0  0.27614  0.46095  0.13262  1.0000
  C   C6        1.0  0.40643  0.53905  0.18481  1.0000
  C   C7        1.0  0.59282  0.27653  0.96898  1.0000
  C   C8        1.0  0.75449  0.72347  0.68372  1.0000
  C   C9        1.0  0.02970  0.43166  0.24275  1.0000
  C   C10       1.0  0.32559  0.56834  0.40196  1.0000
  C   C11       1.0  0.42143  0.18249  0.07290  1.0000
  C   C12       1.0  0.74461  0.81751  0.76106  1.0000
  C   C13       1.0  0.92289  0.49462  0.25650  1.0000
  C   C14       1.0  0.24888  0.50538  0.57173  1.0000
  C   C15       1.0  0.30749  0.14924  0.00938  1.0000
  C   C16       1.0  0.84137  0.85075  0.84176  1.0000
  C   C17       1.0  0.98287  0.66461  0.16483  1.0000
  C   C18       1.0  0.17056  0.33539  0.68174  1.0000
  C   C19       1.0  0.09807  0.99170  0.25783  1.0000
  C   C20       1.0  0.75047  0.00830  0.89364  1.0000
  C   C21       1.0  0.73373  0.62558  0.26609  1.0000
  C   C22       1.0  0.10833  0.37442  0.89185  1.0000
  C   C23       1.0  0.20351  0.02393  0.32908  1.0000
  C   C24       1.0  0.64699  0.97608  0.82042  1.0000
  C   C25       1.0  0.66355  0.45541  0.36266  1.0000
  C   C26       1.0  0.18193  0.54459  0.79186  1.0000
  C   C27       1.0  0.36798  0.12040  0.23602  1.0000
  C   C28       1.0  0.64358  0.87960  0.75242  1.0000
  C   C29       1.0  0.75969  0.38872  0.35838  1.0000
  C   C30       1.0  0.25289  0.61128  0.62904  1.0000
  S   S1        1.0  0.36373  0.00000  0.63627  1.0000
  S   S2        1.0  0.63076  1.00000  0.36924  1.0000
  N   N1        1.0  0.14341  1.00000  0.85659  1.0000
  N   N2        1.0  0.85090  0.00000  0.14911  1.0000
  N   N3        1.0  0.63969  0.31787  0.82328  1.0000
  N   N4        1.0  0.85885  0.68213  0.67819  1.0000
  N   N5        1.0  0.17415  0.52719  0.13761  1.0000
  N   N6        1.0  0.33519  0.47281  0.35304  1.0000
  N   N7        1.0  0.14885  0.05413  0.09936  1.0000
  N   N8        1.0  0.84650  0.94587  0.90529  1.0000
  N   N9        1.0  0.89087  0.72869  0.16894  1.0000
  N   N10       1.0  0.10237  0.27131  0.83782  1.0000
