data_image0
_chemical_formula_structural       Mn2H20C32N4O8
_chemical_formula_sum              "Mn2 H20 C32 N4 O8"
_cell_length_a       8.19725
_cell_length_b       8.30036
_cell_length_c       10.4996
_cell_angle_alpha    74.5417
_cell_angle_beta     84.2611
_cell_angle_gamma    72.873

_space_group_name_H-M_alt    "P 1"
_space_group_IT_number       1

loop_
  _space_group_symop_operation_xyz
  'x, y, z'

loop_
  _atom_site_type_symbol
  _atom_site_label
  _atom_site_symmetry_multiplicity
  _atom_site_fract_x
  _atom_site_fract_y
  _atom_site_fract_z
  _atom_site_occupancy
  Mn  Mn1       1.0  0.23990  0.54135  0.87425  1.0000
  Mn  Mn2       1.0  0.76008  0.45864  0.12576  1.0000
  H   H1        1.0  0.07997  0.20293  0.94090  1.0000
  H   H2        1.0  0.92003  0.79706  0.05909  1.0000
  H   H3        1.0  0.02692  0.00011  0.82019  1.0000
  H   H4        1.0  0.97308  0.99989  0.17980  1.0000
  H   H5        1.0  0.06853  0.06461  0.57557  1.0000
  H   H6        1.0  0.93148  0.93540  0.42441  1.0000
  H   H7        1.0  0.15326  0.25604  0.36770  1.0000
  H   H8        1.0  0.84675  0.74397  0.63229  1.0000
  H   H9        1.0  0.27184  0.50307  0.25674  1.0000
  H   H10       1.0  0.72818  0.49694  0.74326  1.0000
  H   H11       1.0  0.38239  0.74458  0.27463  1.0000
  H   H12       1.0  0.61762  0.25542  0.72538  1.0000
  H   H13       1.0  0.43643  0.92413  0.41752  1.0000
  H   H14       1.0  0.56358  0.07587  0.58249  1.0000
  H   H15       1.0  0.38795  0.82966  0.66434  1.0000
  H   H16       1.0  0.61205  0.17034  0.33567  1.0000
  H   H17       1.0  0.25959  0.01238  0.19297  1.0000
  H   H18       1.0  0.74040  0.98763  0.80704  1.0000
  H   H19       1.0  0.54998  0.98652  0.12606  1.0000
  H   H20       1.0  0.45001  0.01348  0.87396  1.0000
  C   C1        1.0  0.10602  0.22258  0.83495  1.0000
  C   C2        1.0  0.89397  0.77742  0.16505  1.0000
  C   C3        1.0  0.07105  0.11206  0.76703  1.0000
  C   C4        1.0  0.92896  0.88793  0.23296  1.0000
  C   C5        1.0  0.09696  0.14599  0.63167  1.0000
  C   C6        1.0  0.90304  0.85402  0.36831  1.0000
  C   C7        1.0  0.16062  0.28751  0.56504  1.0000
  C   C8        1.0  0.83938  0.71250  0.43496  1.0000
  C   C9        1.0  0.18741  0.33273  0.42491  1.0000
  C   C10       1.0  0.81261  0.66728  0.57508  1.0000
  C   C11       1.0  0.25128  0.46954  0.36374  1.0000
  C   C12       1.0  0.74875  0.53046  0.63626  1.0000
  C   C13       1.0  0.29081  0.57249  0.43954  1.0000
  C   C14       1.0  0.70921  0.42751  0.56047  1.0000
  C   C15       1.0  0.35584  0.71580  0.38104  1.0000
  C   C16       1.0  0.64418  0.28420  0.61897  1.0000
  C   C17       1.0  0.38752  0.81213  0.45995  1.0000
  C   C18       1.0  0.61250  0.18787  0.54006  1.0000
  C   C19       1.0  0.36028  0.76107  0.59743  1.0000
  C   C20       1.0  0.63973  0.23893  0.40257  1.0000
  C   C21       1.0  0.19775  0.38789  0.64310  1.0000
  C   C22       1.0  0.80225  0.61211  0.35690  1.0000
  C   C23       1.0  0.26458  0.53245  0.57898  1.0000
  C   C24       1.0  0.73543  0.46755  0.42102  1.0000
  C   C25       1.0  0.15140  0.29143  0.12312  1.0000
  C   C26       1.0  0.84859  0.70857  0.87688  1.0000
  C   C27       1.0  0.29529  0.13025  0.14203  1.0000
  C   C28       1.0  0.70470  0.86975  0.85797  1.0000
  C   C29       1.0  0.45916  0.11611  0.10253  1.0000
  C   C30       1.0  0.54082  0.88389  0.89747  1.0000
  C   C31       1.0  0.54074  0.25693  0.03353  1.0000
  C   C32       1.0  0.45925  0.74307  0.96647  1.0000
  N   N1        1.0  0.16987  0.35495  0.77600  1.0000
  N   N2        1.0  0.83013  0.64505  0.22399  1.0000
  N   N3        1.0  0.30116  0.62532  0.65552  1.0000
  N   N4        1.0  0.69884  0.37468  0.34449  1.0000
  O   O1        1.0  0.17704  0.43919  0.06929  1.0000
  O   O2        1.0  0.82294  0.56081  0.93071  1.0000
  O   O3        1.0  0.00481  0.26973  0.16473  1.0000
  O   O4        1.0  0.99518  0.73027  0.83527  1.0000
  O   O5        1.0  0.49743  0.34834  0.91821  1.0000
  O   O6        1.0  0.50256  0.65164  0.08179  1.0000
  O   O7        1.0  0.66005  0.26366  0.09950  1.0000
  O   O8        1.0  0.33993  0.73634  0.90050  1.0000
