data_image0
_chemical_formula_structural       Zn4H60C48S4N12O16
_chemical_formula_sum              "Zn4 H60 C48 S4 N12 O16"
_cell_length_a       7.56974
_cell_length_b       11.6173
_cell_length_c       15.7772
_cell_angle_alpha    90.0001
_cell_angle_beta     90
_cell_angle_gamma    90

_space_group_name_H-M_alt    "P 1"
_space_group_IT_number       1

loop_
  _space_group_symop_operation_xyz
  'x, y, z'

loop_
  _atom_site_type_symbol
  _atom_site_label
  _atom_site_symmetry_multiplicity
  _atom_site_fract_x
  _atom_site_fract_y
  _atom_site_fract_z
  _atom_site_occupancy
  Zn  Zn1       1.0  0.15059  0.26691  0.03283  1.0000
  Zn  Zn2       1.0  0.65059  0.73309  0.96717  1.0000
  Zn  Zn3       1.0  0.15059  0.23309  0.53283  1.0000
  Zn  Zn4       1.0  0.65059  0.76691  0.46717  1.0000
  H   H1        1.0  0.24337  0.35933  0.79940  1.0000
  H   H2        1.0  0.74337  0.64067  0.20060  1.0000
  H   H3        1.0  0.24337  0.14067  0.29940  1.0000
  H   H4        1.0  0.74337  0.85933  0.70060  1.0000
  H   H5        1.0  0.02735  0.30580  0.72759  1.0000
  H   H6        1.0  0.52736  0.69420  0.27241  1.0000
  H   H7        1.0  0.02735  0.19420  0.22759  1.0000
  H   H8        1.0  0.52736  0.80580  0.77241  1.0000
  H   H9        1.0  0.34289  0.52996  0.89911  1.0000
  H   H10       1.0  0.84288  0.47003  0.10089  1.0000
  H   H11       1.0  0.34289  0.97003  0.39911  1.0000
  H   H12       1.0  0.84288  0.02997  0.60090  1.0000
  H   H13       1.0  0.31181  0.50288  0.00954  1.0000
  H   H14       1.0  0.81181  0.49712  0.99046  1.0000
  H   H15       1.0  0.31181  0.99712  0.50954  1.0000
  H   H16       1.0  0.81181  0.00288  0.49046  1.0000
  H   H17       1.0  0.12409  0.50779  0.93951  1.0000
  H   H18       1.0  0.62409  0.49221  0.06049  1.0000
  H   H19       1.0  0.12409  0.99221  0.43950  1.0000
  H   H20       1.0  0.62409  0.00779  0.56050  1.0000
  H   H21       1.0  0.54002  0.37228  0.88340  1.0000
  H   H22       1.0  0.04002  0.62772  0.11660  1.0000
  H   H23       1.0  0.54002  0.12772  0.38340  1.0000
  H   H24       1.0  0.04002  0.87228  0.61660  1.0000
  H   H25       1.0  0.47251  0.22939  0.91396  1.0000
  H   H26       1.0  0.97251  0.77061  0.08604  1.0000
  H   H27       1.0  0.47251  0.27061  0.41396  1.0000
  H   H28       1.0  0.97251  0.72939  0.58604  1.0000
  H   H29       1.0  0.52160  0.33418  0.99308  1.0000
  H   H30       1.0  0.02160  0.66582  0.00692  1.0000
  H   H31       1.0  0.52160  0.16582  0.49308  1.0000
  H   H32       1.0  0.02160  0.83418  0.50692  1.0000
  H   H33       1.0  0.77428  0.20811  0.69186  1.0000
  H   H34       1.0  0.27429  0.79189  0.30814  1.0000
  H   H35       1.0  0.77428  0.29189  0.19186  1.0000
  H   H36       1.0  0.27429  0.70811  0.80814  1.0000
  H   H37       1.0  0.67427  0.28330  0.77721  1.0000
  H   H38       1.0  0.17428  0.71670  0.22279  1.0000
  H   H39       1.0  0.67427  0.21670  0.27721  1.0000
  H   H40       1.0  0.17428  0.78330  0.72279  1.0000
  H   H41       1.0  0.76694  0.14376  0.79434  1.0000
  H   H42       1.0  0.26695  0.85624  0.20566  1.0000
  H   H43       1.0  0.76694  0.35624  0.29434  1.0000
  H   H44       1.0  0.26695  0.64376  0.70566  1.0000
  H   H45       1.0  0.63774  0.10461  0.02797  1.0000
  H   H46       1.0  0.13774  0.89539  0.97203  1.0000
  H   H47       1.0  0.63774  0.39539  0.52796  1.0000
  H   H48       1.0  0.13774  0.60461  0.47203  1.0000
  H   H49       1.0  0.93695  0.02871  0.06294  1.0000
  H   H50       1.0  0.43695  0.97129  0.93706  1.0000
  H   H51       1.0  0.93695  0.47130  0.56294  1.0000
  H   H52       1.0  0.43695  0.52871  0.43706  1.0000
  H   H53       1.0  0.99227  0.93949  0.20467  1.0000
  H   H54       1.0  0.49226  0.06052  0.79533  1.0000
  H   H55       1.0  0.99226  0.56052  0.70466  1.0000
  H   H56       1.0  0.49226  0.43948  0.29534  1.0000
  H   H57       1.0  0.44933  0.99314  0.27126  1.0000
  H   H58       1.0  0.94932  0.00686  0.72874  1.0000
  H   H59       1.0  0.44932  0.50686  0.77126  1.0000
  H   H60       1.0  0.94932  0.49314  0.22874  1.0000
  C   C1        1.0  0.02749  0.28302  0.85409  1.0000
  C   C2        1.0  0.52750  0.71698  0.14591  1.0000
  C   C3        1.0  0.02749  0.21697  0.35409  1.0000
  C   C4        1.0  0.52750  0.78302  0.64591  1.0000
  C   C5        1.0  0.26285  0.48293  0.94585  1.0000
  C   C6        1.0  0.76285  0.51707  0.05415  1.0000
  C   C7        1.0  0.26285  0.01707  0.44585  1.0000
  C   C8        1.0  0.76285  0.98293  0.55415  1.0000
  C   C9        1.0  0.46578  0.32084  0.92983  1.0000
  C   C10       1.0  0.96578  0.67916  0.07017  1.0000
  C   C11       1.0  0.46578  0.17916  0.42983  1.0000
  C   C12       1.0  0.96578  0.82084  0.57017  1.0000
  C   C13       1.0  0.78264  0.22515  0.75991  1.0000
  C   C14       1.0  0.28265  0.77485  0.24010  1.0000
  C   C15       1.0  0.78264  0.27485  0.25990  1.0000
  C   C16       1.0  0.28264  0.72515  0.74010  1.0000
  C   C17       1.0  0.34732  0.10728  0.13076  1.0000
  C   C18       1.0  0.84731  0.89272  0.86924  1.0000
  C   C19       1.0  0.34731  0.39272  0.63076  1.0000
  C   C20       1.0  0.84731  0.60729  0.36924  1.0000
  C   C21       1.0  0.52530  0.05627  0.14830  1.0000
  C   C22       1.0  0.02529  0.94373  0.85170  1.0000
  C   C23       1.0  0.52529  0.44373  0.64830  1.0000
  C   C24       1.0  0.02530  0.55627  0.35170  1.0000
  C   C25       1.0  0.66298  0.06429  0.08913  1.0000
  C   C26       1.0  0.16297  0.93571  0.91087  1.0000
  C   C27       1.0  0.66297  0.43571  0.58913  1.0000
  C   C28       1.0  0.16297  0.56429  0.41087  1.0000
  C   C29       1.0  0.83040  0.02187  0.10908  1.0000
  C   C30       1.0  0.33040  0.97814  0.89092  1.0000
  C   C31       1.0  0.83040  0.47814  0.60908  1.0000
  C   C32       1.0  0.33040  0.52186  0.39092  1.0000
  C   C33       1.0  0.86133  0.97056  0.18766  1.0000
  C   C34       1.0  0.36133  0.02944  0.81234  1.0000
  C   C35       1.0  0.86133  0.52944  0.68766  1.0000
  C   C36       1.0  0.36132  0.47056  0.31234  1.0000
  C   C37       1.0  0.72357  0.95900  0.24640  1.0000
  C   C38       1.0  0.22357  0.04100  0.75361  1.0000
  C   C39       1.0  0.72357  0.54101  0.74639  1.0000
  C   C40       1.0  0.22356  0.45899  0.25361  1.0000
  C   C41       1.0  0.55673  0.00236  0.22606  1.0000
  C   C42       1.0  0.05673  0.99764  0.77394  1.0000
  C   C43       1.0  0.55672  0.49764  0.72606  1.0000
  C   C44       1.0  0.05672  0.50236  0.27394  1.0000
  C   C45       1.0  0.75592  0.90052  0.32995  1.0000
  C   C46       1.0  0.25591  0.09948  0.67005  1.0000
  C   C47       1.0  0.75591  0.59948  0.82994  1.0000
  C   C48       1.0  0.25591  0.40052  0.17005  1.0000
  S   S1        1.0  0.91616  0.23784  0.94277  1.0000
  S   S2        1.0  0.41617  0.76216  0.05723  1.0000
  S   S3        1.0  0.91616  0.26215  0.44277  1.0000
  S   S4        1.0  0.41616  0.73784  0.55723  1.0000
  N   N1        1.0  0.27833  0.35669  0.93235  1.0000
  N   N2        1.0  0.77834  0.64331  0.06765  1.0000
  N   N3        1.0  0.27834  0.14331  0.43235  1.0000
  N   N4        1.0  0.77834  0.85669  0.56765  1.0000
  N   N5        1.0  0.19489  0.32477  0.85576  1.0000
  N   N6        1.0  0.69489  0.67523  0.14424  1.0000
  N   N7        1.0  0.19489  0.17523  0.35576  1.0000
  N   N8        1.0  0.69489  0.82477  0.64424  1.0000
  N   N9        1.0  0.95321  0.27621  0.77768  1.0000
  N   N10       1.0  0.45321  0.72379  0.22233  1.0000
  N   N11       1.0  0.95321  0.22379  0.27767  1.0000
  N   N12       1.0  0.45321  0.77621  0.72233  1.0000
  O   O1        1.0  0.31949  0.14236  0.05453  1.0000
  O   O2        1.0  0.81950  0.85764  0.94547  1.0000
  O   O3        1.0  0.31949  0.35764  0.55453  1.0000
  O   O4        1.0  0.81949  0.64236  0.44547  1.0000
  O   O5        1.0  0.23534  0.11401  0.19000  1.0000
  O   O6        1.0  0.73533  0.88599  0.81000  1.0000
  O   O7        1.0  0.23534  0.38599  0.68999  1.0000
  O   O8        1.0  0.73534  0.61401  0.31000  1.0000
  O   O9        1.0  0.61249  0.86770  0.36974  1.0000
  O   O10       1.0  0.11249  0.13231  0.63026  1.0000
  O   O11       1.0  0.61249  0.63231  0.86974  1.0000
  O   O12       1.0  0.11248  0.36769  0.13026  1.0000
  O   O13       1.0  0.90927  0.88604  0.35693  1.0000
  O   O14       1.0  0.40927  0.11397  0.64308  1.0000
  O   O15       1.0  0.90927  0.61396  0.85692  1.0000
  O   O16       1.0  0.40926  0.38603  0.14308  1.0000
