data_image0
_chemical_formula_structural       Zn4H60C48S4N12O16
_chemical_formula_sum              "Zn4 H60 C48 S4 N12 O16"
_cell_length_a       8.35719
_cell_length_b       13.4003
_cell_length_c       14.3743
_cell_angle_alpha    89.9992
_cell_angle_beta     90.0005
_cell_angle_gamma    102.806

_space_group_name_H-M_alt    "P 1"
_space_group_IT_number       1

loop_
  _space_group_symop_operation_xyz
  'x, y, z'

loop_
  _atom_site_type_symbol
  _atom_site_label
  _atom_site_symmetry_multiplicity
  _atom_site_fract_x
  _atom_site_fract_y
  _atom_site_fract_z
  _atom_site_occupancy
  Zn  Zn1       1.0  0.83272  0.70376  0.77938  1.0000
  Zn  Zn2       1.0  0.83273  0.20377  0.72062  1.0000
  Zn  Zn3       1.0  0.16727  0.29623  0.22062  1.0000
  Zn  Zn4       1.0  0.16728  0.79624  0.27938  1.0000
  H   H1        1.0  0.31932  0.76055  0.75965  1.0000
  H   H2        1.0  0.31932  0.26055  0.74036  1.0000
  H   H3        1.0  0.68068  0.23945  0.24036  1.0000
  H   H4        1.0  0.68069  0.73945  0.25965  1.0000
  H   H5        1.0  0.40891  0.68960  0.88198  1.0000
  H   H6        1.0  0.40891  0.18960  0.61802  1.0000
  H   H7        1.0  0.59109  0.31039  0.11802  1.0000
  H   H8        1.0  0.59110  0.81039  0.38198  1.0000
  H   H9        1.0  0.99016  0.70411  0.58503  1.0000
  H   H10       1.0  0.99016  0.20412  0.91498  1.0000
  H   H11       1.0  0.00985  0.29588  0.41498  1.0000
  H   H12       1.0  0.00983  0.79589  0.08502  1.0000
  H   H13       1.0  0.08036  0.61673  0.65001  1.0000
  H   H14       1.0  0.08037  0.11673  0.85000  1.0000
  H   H15       1.0  0.91964  0.38327  0.34999  1.0000
  H   H16       1.0  0.91963  0.88327  0.15000  1.0000
  H   H17       1.0  0.20935  0.72527  0.59474  1.0000
  H   H18       1.0  0.20936  0.22528  0.90526  1.0000
  H   H19       1.0  0.79065  0.27473  0.40526  1.0000
  H   H20       1.0  0.79064  0.77473  0.09474  1.0000
  H   H21       1.0  0.01419  0.87663  0.64332  1.0000
  H   H22       1.0  0.01419  0.37664  0.85668  1.0000
  H   H23       1.0  0.98581  0.12336  0.35669  1.0000
  H   H24       1.0  0.98581  0.62336  0.14332  1.0000
  H   H25       1.0  0.23041  0.89707  0.66429  1.0000
  H   H26       1.0  0.23041  0.39707  0.83571  1.0000
  H   H27       1.0  0.76959  0.10293  0.33571  1.0000
  H   H28       1.0  0.76959  0.60293  0.16430  1.0000
  H   H29       1.0  0.09112  0.90923  0.75736  1.0000
  H   H30       1.0  0.09111  0.40923  0.74264  1.0000
  H   H31       1.0  0.90888  0.09077  0.24264  1.0000
  H   H32       1.0  0.90888  0.59077  0.25736  1.0000
  H   H33       1.0  0.23681  0.62259  0.04006  1.0000
  H   H34       1.0  0.23680  0.12259  0.45995  1.0000
  H   H35       1.0  0.76319  0.37741  0.95994  1.0000
  H   H36       1.0  0.76320  0.87740  0.54006  1.0000
  H   H37       1.0  0.39449  0.56781  0.99176  1.0000
  H   H38       1.0  0.39448  0.06781  0.50825  1.0000
  H   H39       1.0  0.60552  0.43219  0.00824  1.0000
  H   H40       1.0  0.60552  0.93219  0.49176  1.0000
  H   H41       1.0  0.18369  0.51254  0.96729  1.0000
  H   H42       1.0  0.18368  0.01255  0.53271  1.0000
  H   H43       1.0  0.81631  0.48745  0.03271  1.0000
  H   H44       1.0  0.81632  0.98745  0.46730  1.0000
  H   H45       1.0  0.52987  0.71488  0.52302  1.0000
  H   H46       1.0  0.52987  0.21488  0.97698  1.0000
  H   H47       1.0  0.47014  0.28512  0.47698  1.0000
  H   H48       1.0  0.47013  0.78512  0.02301  1.0000
  H   H49       1.0  0.10655  0.49358  0.42985  1.0000
  H   H50       1.0  0.10655  0.99358  0.07014  1.0000
  H   H51       1.0  0.89345  0.50643  0.57014  1.0000
  H   H52       1.0  0.89345  0.00642  0.92985  1.0000
  H   H53       1.0  0.14329  0.37684  0.56063  1.0000
  H   H54       1.0  0.14329  0.87685  0.93937  1.0000
  H   H55       1.0  0.85671  0.62316  0.43937  1.0000
  H   H56       1.0  0.85671  0.12316  0.06062  1.0000
  H   H57       1.0  0.37856  0.43295  0.67116  1.0000
  H   H58       1.0  0.37857  0.93296  0.82884  1.0000
  H   H59       1.0  0.62143  0.56705  0.32884  1.0000
  H   H60       1.0  0.62144  0.06705  0.17115  1.0000
  C   C1        1.0  0.16195  0.66976  0.85059  1.0000
  C   C2        1.0  0.16195  0.16976  0.64942  1.0000
  C   C3        1.0  0.83804  0.33023  0.14942  1.0000
  C   C4        1.0  0.83805  0.83024  0.35059  1.0000
  C   C5        1.0  0.09195  0.69715  0.63083  1.0000
  C   C6        1.0  0.09195  0.19715  0.86918  1.0000
  C   C7        1.0  0.90806  0.30285  0.36917  1.0000
  C   C8        1.0  0.90805  0.80285  0.13083  1.0000
  C   C9        1.0  0.10738  0.86726  0.69419  1.0000
  C   C10       1.0  0.10738  0.36726  0.80581  1.0000
  C   C11       1.0  0.89262  0.13274  0.30582  1.0000
  C   C12       1.0  0.89262  0.63274  0.19419  1.0000
  C   C13       1.0  0.27395  0.58447  0.97844  1.0000
  C   C14       1.0  0.27394  0.08448  0.52157  1.0000
  C   C15       1.0  0.72606  0.41553  0.02156  1.0000
  C   C16       1.0  0.72606  0.91552  0.47844  1.0000
  C   C17       1.0  0.60240  0.60808  0.67317  1.0000
  C   C18       1.0  0.60240  0.10809  0.82684  1.0000
  C   C19       1.0  0.39760  0.39192  0.32684  1.0000
  C   C20       1.0  0.39760  0.89192  0.17316  1.0000
  C   C21       1.0  0.46656  0.57696  0.60402  1.0000
  C   C22       1.0  0.46657  0.07697  0.89599  1.0000
  C   C23       1.0  0.53344  0.42304  0.39598  1.0000
  C   C24       1.0  0.53344  0.92304  0.10401  1.0000
  C   C25       1.0  0.44564  0.64075  0.53027  1.0000
  C   C26       1.0  0.44564  0.14076  0.96973  1.0000
  C   C27       1.0  0.55436  0.35925  0.46973  1.0000
  C   C28       1.0  0.55436  0.85924  0.03026  1.0000
  C   C29       1.0  0.31564  0.61033  0.46779  1.0000
  C   C30       1.0  0.31564  0.11033  0.03221  1.0000
  C   C31       1.0  0.68436  0.38968  0.53221  1.0000
  C   C32       1.0  0.68435  0.88967  0.96778  1.0000
  C   C33       1.0  0.20708  0.51512  0.47902  1.0000
  C   C34       1.0  0.20707  0.01513  0.02097  1.0000
  C   C35       1.0  0.79293  0.48488  0.52097  1.0000
  C   C36       1.0  0.79292  0.98487  0.97902  1.0000
  C   C37       1.0  0.22825  0.45063  0.55178  1.0000
  C   C38       1.0  0.22825  0.95064  0.94821  1.0000
  C   C39       1.0  0.77175  0.54937  0.44821  1.0000
  C   C40       1.0  0.77175  0.04936  0.05178  1.0000
  C   C41       1.0  0.35774  0.48166  0.61391  1.0000
  C   C42       1.0  0.35774  0.98167  0.88609  1.0000
  C   C43       1.0  0.64226  0.51834  0.38609  1.0000
  C   C44       1.0  0.64226  0.01834  0.11390  1.0000
  C   C45       1.0  0.28529  0.68076  0.39305  1.0000
  C   C46       1.0  0.28528  0.18076  0.10695  1.0000
  C   C47       1.0  0.71472  0.31925  0.60695  1.0000
  C   C48       1.0  0.71471  0.81924  0.89305  1.0000
  S   S1        1.0  0.96544  0.60973  0.87681  1.0000
  S   S2        1.0  0.96544  0.10974  0.62319  1.0000
  S   S3        1.0  0.03456  0.39027  0.12319  1.0000
  S   S4        1.0  0.03457  0.89026  0.37681  1.0000
  N   N1        1.0  0.08196  0.75723  0.71585  1.0000
  N   N2        1.0  0.08195  0.25723  0.78415  1.0000
  N   N3        1.0  0.91804  0.24277  0.28415  1.0000
  N   N4        1.0  0.91804  0.74277  0.21585  1.0000
  N   N5        1.0  0.19985  0.74230  0.78179  1.0000
  N   N6        1.0  0.19985  0.24230  0.71822  1.0000
  N   N7        1.0  0.80015  0.25770  0.21821  1.0000
  N   N8        1.0  0.80016  0.75770  0.28179  1.0000
  N   N9        1.0  0.28913  0.64966  0.89677  1.0000
  N   N10       1.0  0.28913  0.14967  0.60324  1.0000
  N   N11       1.0  0.71087  0.35033  0.10324  1.0000
  N   N12       1.0  0.71088  0.85033  0.39677  1.0000
  O   O1        1.0  0.70235  0.69683  0.66142  1.0000
  O   O2        1.0  0.70236  0.19684  0.83858  1.0000
  O   O3        1.0  0.29765  0.30316  0.33858  1.0000
  O   O4        1.0  0.29764  0.80317  0.16142  1.0000
  O   O5        1.0  0.61587  0.55053  0.74028  1.0000
  O   O6        1.0  0.61590  0.05054  0.75973  1.0000
  O   O7        1.0  0.38411  0.44947  0.25972  1.0000
  O   O8        1.0  0.38412  0.94947  0.24027  1.0000
  O   O9        1.0  0.39004  0.76320  0.37473  1.0000
  O   O10       1.0  0.39003  0.26319  0.12527  1.0000
  O   O11       1.0  0.60997  0.23681  0.62527  1.0000
  O   O12       1.0  0.60997  0.73680  0.87473  1.0000
  O   O13       1.0  0.14720  0.65931  0.35043  1.0000
  O   O14       1.0  0.14719  0.15931  0.14956  1.0000
  O   O15       1.0  0.85281  0.34069  0.64957  1.0000
  O   O16       1.0  0.85280  0.84068  0.85043  1.0000
