data_image0
_chemical_formula_structural       Zn4H40C48N8O16
_chemical_formula_sum              "Zn4 H40 C48 N8 O16"
_cell_length_a       7.03256
_cell_length_b       8.58982
_cell_length_c       20.1146
_cell_angle_alpha    89.9999
_cell_angle_beta     89.9998
_cell_angle_gamma    90

_space_group_name_H-M_alt    "P 1"
_space_group_IT_number       1

loop_
  _space_group_symop_operation_xyz
  'x, y, z'

loop_
  _atom_site_type_symbol
  _atom_site_label
  _atom_site_symmetry_multiplicity
  _atom_site_fract_x
  _atom_site_fract_y
  _atom_site_fract_z
  _atom_site_occupancy
  Zn  Zn1       1.0  0.22336  0.03932  0.53746  1.0000
  Zn  Zn2       1.0  0.77664  0.03932  0.46254  1.0000
  Zn  Zn3       1.0  0.22336  0.53932  0.96254  1.0000
  Zn  Zn4       1.0  0.77664  0.53932  0.03746  1.0000
  H   H1        1.0  0.25628  0.23919  0.40171  1.0000
  H   H2        1.0  0.74372  0.23918  0.59829  1.0000
  H   H3        1.0  0.25628  0.73918  0.09829  1.0000
  H   H4        1.0  0.74371  0.73918  0.90171  1.0000
  H   H5        1.0  0.38928  0.69832  0.72522  1.0000
  H   H6        1.0  0.61071  0.69832  0.27478  1.0000
  H   H7        1.0  0.38929  0.19833  0.77478  1.0000
  H   H8        1.0  0.61071  0.19831  0.22522  1.0000
  H   H9        1.0  0.07572  0.80707  0.69192  1.0000
  H   H10       1.0  0.92428  0.80706  0.30808  1.0000
  H   H11       1.0  0.07573  0.30707  0.80807  1.0000
  H   H12       1.0  0.92427  0.30706  0.19193  1.0000
  H   H13       1.0  0.62092  0.61209  0.81018  1.0000
  H   H14       1.0  0.37907  0.61208  0.18982  1.0000
  H   H15       1.0  0.62093  0.11209  0.68982  1.0000
  H   H16       1.0  0.37907  0.11208  0.31018  1.0000
  H   H17       1.0  0.96756  0.66057  0.79344  1.0000
  H   H18       1.0  0.03243  0.66057  0.20656  1.0000
  H   H19       1.0  0.96757  0.16057  0.70656  1.0000
  H   H20       1.0  0.03244  0.16056  0.29344  1.0000
  H   H21       1.0  0.27141  0.62341  0.53397  1.0000
  H   H22       1.0  0.72859  0.62341  0.46603  1.0000
  H   H23       1.0  0.27141  0.12341  0.96603  1.0000
  H   H24       1.0  0.72859  0.12341  0.03397  1.0000
  H   H25       1.0  0.08756  0.38549  0.64061  1.0000
  H   H26       1.0  0.91244  0.38549  0.35938  1.0000
  H   H27       1.0  0.08757  0.88549  0.85938  1.0000
  H   H28       1.0  0.91244  0.88549  0.14062  1.0000
  H   H29       1.0  0.31327  0.47805  0.64416  1.0000
  H   H30       1.0  0.68673  0.47805  0.35584  1.0000
  H   H31       1.0  0.31328  0.97805  0.85584  1.0000
  H   H32       1.0  0.68673  0.97805  0.14416  1.0000
  H   H33       1.0  0.29816  0.27002  0.64208  1.0000
  H   H34       1.0  0.70184  0.27002  0.35792  1.0000
  H   H35       1.0  0.29817  0.77002  0.85792  1.0000
  H   H36       1.0  0.70183  0.77002  0.14208  1.0000
  H   H37       1.0  0.27654  0.56241  0.40810  1.0000
  H   H38       1.0  0.72346  0.56240  0.59190  1.0000
  H   H39       1.0  0.27653  0.06241  0.09190  1.0000
  H   H40       1.0  0.72346  0.06241  0.90810  1.0000
  C   C1        1.0  0.44633  0.85490  0.61453  1.0000
  C   C2        1.0  0.55366  0.85490  0.38547  1.0000
  C   C3        1.0  0.44634  0.35491  0.88547  1.0000
  C   C4        1.0  0.55366  0.35490  0.11453  1.0000
  C   C5        1.0  0.25379  0.31614  0.44419  1.0000
  C   C6        1.0  0.74621  0.31614  0.55580  1.0000
  C   C7        1.0  0.25378  0.81614  0.05581  1.0000
  C   C8        1.0  0.74621  0.81614  0.94420  1.0000
  C   C9        1.0  0.59926  0.80291  0.66175  1.0000
  C   C10       1.0  0.40074  0.80292  0.33825  1.0000
  C   C11       1.0  0.59926  0.30292  0.83825  1.0000
  C   C12       1.0  0.40074  0.30291  0.16175  1.0000
  C   C13       1.0  0.79423  0.83478  0.65299  1.0000
  C   C14       1.0  0.20577  0.83478  0.34701  1.0000
  C   C15       1.0  0.79424  0.33478  0.84701  1.0000
  C   C16       1.0  0.20576  0.33478  0.15299  1.0000
  C   C17       1.0  0.54042  0.72216  0.71862  1.0000
  C   C18       1.0  0.45957  0.72216  0.28138  1.0000
  C   C19       1.0  0.54043  0.22217  0.78138  1.0000
  C   C20       1.0  0.45957  0.22216  0.21862  1.0000
  C   C21       1.0  0.86757  0.91733  0.59286  1.0000
  C   C22       1.0  0.13244  0.91733  0.40714  1.0000
  C   C23       1.0  0.86757  0.41733  0.90714  1.0000
  C   C24       1.0  0.13243  0.41732  0.09286  1.0000
  C   C25       1.0  0.92552  0.78395  0.70078  1.0000
  C   C26       1.0  0.07448  0.78395  0.29922  1.0000
  C   C27       1.0  0.92553  0.28395  0.79922  1.0000
  C   C28       1.0  0.07447  0.28395  0.20078  1.0000
  C   C29       1.0  0.67145  0.67348  0.76618  1.0000
  C   C30       1.0  0.32855  0.67348  0.23382  1.0000
  C   C31       1.0  0.67145  0.17349  0.73382  1.0000
  C   C32       1.0  0.32855  0.17348  0.26618  1.0000
  C   C33       1.0  0.86520  0.70263  0.75689  1.0000
  C   C34       1.0  0.13480  0.70263  0.24311  1.0000
  C   C35       1.0  0.86520  0.20263  0.74311  1.0000
  C   C36       1.0  0.13480  0.20262  0.25689  1.0000
  C   C37       1.0  0.24495  0.38256  0.54975  1.0000
  C   C38       1.0  0.75505  0.38256  0.45025  1.0000
  C   C39       1.0  0.24495  0.88256  0.95025  1.0000
  C   C40       1.0  0.75505  0.88256  0.04975  1.0000
  C   C41       1.0  0.23578  0.37855  0.62341  1.0000
  C   C42       1.0  0.76422  0.37855  0.37659  1.0000
  C   C43       1.0  0.23579  0.87855  0.87659  1.0000
  C   C44       1.0  0.76421  0.87855  0.12341  1.0000
  C   C45       1.0  0.26355  0.47532  0.44670  1.0000
  C   C46       1.0  0.73645  0.47532  0.55330  1.0000
  C   C47       1.0  0.26354  0.97532  0.05330  1.0000
  C   C48       1.0  0.73645  0.97532  0.94670  1.0000
  N   N1        1.0  0.24174  0.25941  0.50856  1.0000
  N   N2        1.0  0.75826  0.25941  0.49144  1.0000
  N   N3        1.0  0.24174  0.75941  0.99144  1.0000
  N   N4        1.0  0.75826  0.75941  0.00856  1.0000
  N   N5        1.0  0.25717  0.51414  0.51316  1.0000
  N   N6        1.0  0.74283  0.51414  0.48684  1.0000
  N   N7        1.0  0.25717  0.01414  0.98684  1.0000
  N   N8        1.0  0.74283  0.01414  0.01316  1.0000
  O   O1        1.0  0.44518  0.99973  0.59710  1.0000
  O   O2        1.0  0.55482  0.99973  0.40290  1.0000
  O   O3        1.0  0.44518  0.49974  0.90290  1.0000
  O   O4        1.0  0.55482  0.49973  0.09710  1.0000
  O   O5        1.0  0.32200  0.75780  0.59773  1.0000
  O   O6        1.0  0.67800  0.75780  0.40227  1.0000
  O   O7        1.0  0.32201  0.25780  0.90227  1.0000
  O   O8        1.0  0.67799  0.25780  0.09773  1.0000
  O   O9        1.0  0.00709  0.01021  0.60133  1.0000
  O   O10       1.0  0.99290  0.01021  0.39867  1.0000
  O   O11       1.0  0.00710  0.51021  0.89867  1.0000
  O   O12       1.0  0.99290  0.51021  0.10133  1.0000
  O   O13       1.0  0.78728  0.88858  0.53729  1.0000
  O   O14       1.0  0.21271  0.88858  0.46271  1.0000
  O   O15       1.0  0.78729  0.38859  0.96271  1.0000
  O   O16       1.0  0.21271  0.38858  0.03729  1.0000
