data_image0
_chemical_formula_structural       V2H20C28N4O8
_chemical_formula_sum              "V2 H20 C28 N4 O8"
_cell_length_a       6.38354
_cell_length_b       9.88589
_cell_length_c       10.7133
_cell_angle_alpha    106.66
_cell_angle_beta     102.998
_cell_angle_gamma    103.27

_space_group_name_H-M_alt    "P 1"
_space_group_IT_number       1

loop_
  _space_group_symop_operation_xyz
  'x, y, z'

loop_
  _atom_site_type_symbol
  _atom_site_label
  _atom_site_symmetry_multiplicity
  _atom_site_fract_x
  _atom_site_fract_y
  _atom_site_fract_z
  _atom_site_occupancy
  V   V1        1.0  0.34411  0.34104  0.45675  1.0000
  V   V2        1.0  0.65587  0.65896  0.54325  1.0000
  H   H1        1.0  0.62298  0.18923  0.88088  1.0000
  H   H2        1.0  0.37701  0.81077  0.11912  1.0000
  H   H3        1.0  0.87395  0.05437  0.79076  1.0000
  H   H4        1.0  0.12603  0.94562  0.20924  1.0000
  H   H5        1.0  0.91981  0.04620  0.56378  1.0000
  H   H6        1.0  0.08020  0.95380  0.43622  1.0000
  H   H7        1.0  0.69942  0.16674  0.42932  1.0000
  H   H8        1.0  0.30059  0.83326  0.57068  1.0000
  H   H9        1.0  0.38153  0.29372  0.93297  1.0000
  H   H10       1.0  0.61849  0.70629  0.06703  1.0000
  H   H11       1.0  0.14814  0.45173  0.99309  1.0000
  H   H12       1.0  0.85185  0.54827  0.00691  1.0000
  H   H13       1.0  0.00518  0.57921  0.82886  1.0000
  H   H14       1.0  0.99482  0.42079  0.17114  1.0000
  H   H15       1.0  0.11442  0.53592  0.61599  1.0000
  H   H16       1.0  0.88558  0.46408  0.38400  1.0000
  H   H17       1.0  0.77850  0.16925  0.22660  1.0000
  H   H18       1.0  0.22151  0.83075  0.77341  1.0000
  H   H19       1.0  0.11708  0.02346  0.92933  1.0000
  H   H20       1.0  0.88292  0.97654  0.07068  1.0000
  C   C1        1.0  0.52396  0.24531  0.69981  1.0000
  C   C2        1.0  0.47604  0.75469  0.30018  1.0000
  C   C3        1.0  0.64103  0.18099  0.78062  1.0000
  C   C4        1.0  0.35897  0.81901  0.21938  1.0000
  C   C5        1.0  0.78270  0.10690  0.73093  1.0000
  C   C6        1.0  0.21729  0.89309  0.26906  1.0000
  C   C7        1.0  0.80848  0.10203  0.60433  1.0000
  C   C8        1.0  0.19152  0.89797  0.39566  1.0000
  C   C9        1.0  0.68568  0.16750  0.52883  1.0000
  C   C10       1.0  0.31432  0.83250  0.47116  1.0000
  C   C11       1.0  0.37953  0.33315  0.74405  1.0000
  C   C12       1.0  0.62048  0.66685  0.25595  1.0000
  C   C13       1.0  0.32387  0.35001  0.86502  1.0000
  C   C14       1.0  0.67614  0.64999  0.13497  1.0000
  C   C15       1.0  0.18990  0.43935  0.89818  1.0000
  C   C16       1.0  0.81009  0.56065  0.10181  1.0000
  C   C17       1.0  0.11241  0.50902  0.80961  1.0000
  C   C18       1.0  0.88759  0.49098  0.19038  1.0000
  C   C19       1.0  0.17200  0.48562  0.68944  1.0000
  C   C20       1.0  0.82800  0.51438  0.31056  1.0000
  C   C21       1.0  0.43873  0.10948  0.08715  1.0000
  C   C22       1.0  0.56128  0.89052  0.91286  1.0000
  C   C23       1.0  0.65537  0.09592  0.12785  1.0000
  C   C24       1.0  0.34465  0.90408  0.87216  1.0000
  C   C25       1.0  0.28524  0.01278  0.95911  1.0000
  C   C26       1.0  0.71477  0.98722  0.04090  1.0000
  C   C27       1.0  0.36199  0.22203  0.17749  1.0000
  C   C28       1.0  0.63801  0.77797  0.82251  1.0000
  N   N1        1.0  0.54326  0.23476  0.57438  1.0000
  N   N2        1.0  0.45675  0.76524  0.42561  1.0000
  N   N3        1.0  0.30263  0.40069  0.65799  1.0000
  N   N4        1.0  0.69737  0.59932  0.34200  1.0000
  O   O1        1.0  0.29869  0.49557  0.43947  1.0000
  O   O2        1.0  0.70130  0.50443  0.56052  1.0000
  O   O3        1.0  0.21315  0.26953  0.12674  1.0000
  O   O4        1.0  0.78684  0.73046  0.87327  1.0000
  O   O5        1.0  0.46339  0.25984  0.30963  1.0000
  O   O6        1.0  0.53660  0.74016  0.69038  1.0000
  O   O7        1.0  0.09777  0.21287  0.39814  1.0000
  O   O8        1.0  0.90221  0.78712  0.60187  1.0000
