data_image0
_chemical_formula_structural       H20Pb2C36N8O8
_chemical_formula_sum              "H20 Pb2 C36 N8 O8"
_cell_length_a       6.88571
_cell_length_b       8.64659
_cell_length_c       13.9352
_cell_angle_alpha    101.397
_cell_angle_beta     99.8439
_cell_angle_gamma    100.067

_space_group_name_H-M_alt    "P 1"
_space_group_IT_number       1

loop_
  _space_group_symop_operation_xyz
  'x, y, z'

loop_
  _atom_site_type_symbol
  _atom_site_label
  _atom_site_symmetry_multiplicity
  _atom_site_fract_x
  _atom_site_fract_y
  _atom_site_fract_z
  _atom_site_occupancy
  H   H1        1.0  0.48361  0.79302  0.16778  1.0000
  H   H2        1.0  0.51645  0.20728  0.83230  1.0000
  H   H3        1.0  0.37854  0.56539  0.50309  1.0000
  H   H4        1.0  0.62159  0.43464  0.49681  1.0000
  H   H5        1.0  0.20123  0.41827  0.17971  1.0000
  H   H6        1.0  0.79845  0.58164  0.82021  1.0000
  H   H7        1.0  0.97390  0.95973  0.76248  1.0000
  H   H8        1.0  0.02629  0.04024  0.23753  1.0000
  H   H9        1.0  0.39039  0.94037  0.32213  1.0000
  H   H10       1.0  0.60980  0.05988  0.67799  1.0000
  H   H11       1.0  0.24528  0.79210  0.76658  1.0000
  H   H12       1.0  0.75506  0.20797  0.23338  1.0000
  H   H13       1.0  0.43911  0.41795  0.33611  1.0000
  H   H14       1.0  0.56082  0.58206  0.66373  1.0000
  H   H15       1.0  0.60376  0.94530  0.49154  1.0000
  H   H16       1.0  0.39658  0.05491  0.50856  1.0000
  H   H17       1.0  0.32758  0.09625  0.17219  1.0000
  H   H18       1.0  0.67201  0.90360  0.82782  1.0000
  H   H19       1.0  0.23756  0.97266  0.94289  1.0000
  H   H20       1.0  0.76232  0.02733  0.05712  1.0000
  Pb  Pb1       1.0  0.79292  0.55399  0.08585  1.0000
  Pb  Pb2       1.0  0.20658  0.44593  0.91416  1.0000
  C   C1        1.0  0.12341  0.64237  0.43196  1.0000
  C   C2        1.0  0.87660  0.35760  0.56801  1.0000
  C   C3        1.0  0.00005  0.63916  0.33901  1.0000
  C   C4        1.0  0.99989  0.36082  0.66098  1.0000
  C   C5        1.0  0.83292  0.72209  0.33631  1.0000
  C   C6        1.0  0.16711  0.27798  0.66370  1.0000
  C   C7        1.0  0.56709  0.79717  0.24252  1.0000
  C   C8        1.0  0.43301  0.20306  0.75754  1.0000
  C   C9        1.0  0.79378  0.80426  0.42690  1.0000
  C   C10       1.0  0.20633  0.19581  0.57313  1.0000
  C   C11       1.0  0.92033  0.80751  0.52246  1.0000
  C   C12       1.0  0.07973  0.19242  0.47755  1.0000
  C   C13       1.0  0.08132  0.72559  0.52494  1.0000
  C   C14       1.0  0.91876  0.27437  0.47503  1.0000
  C   C15       1.0  0.28384  0.56149  0.43123  1.0000
  C   C16       1.0  0.71618  0.43851  0.56869  1.0000
  C   C17       1.0  0.18503  0.48272  0.25237  1.0000
  C   C18       1.0  0.81477  0.51722  0.74757  1.0000
  C   C19       1.0  0.00052  0.88874  0.69359  1.0000
  C   C20       1.0  0.99965  0.11123  0.30642  1.0000
  C   C21       1.0  0.51730  0.88060  0.32889  1.0000
  C   C22       1.0  0.48288  0.11968  0.67121  1.0000
  C   C23       1.0  0.15489  0.80047  0.69608  1.0000
  C   C24       1.0  0.84532  0.19954  0.30391  1.0000
  C   C25       1.0  0.31608  0.48133  0.34105  1.0000
  C   C26       1.0  0.68383  0.51863  0.65885  1.0000
  C   C27       1.0  0.63208  0.88336  0.42118  1.0000
  C   C28       1.0  0.36814  0.11681  0.57889  1.0000
  C   C29       1.0  0.45260  0.24800  0.07819  1.0000
  C   C30       1.0  0.54725  0.75184  0.92181  1.0000
  C   C31       1.0  0.33125  0.09859  0.09444  1.0000
  C   C32       1.0  0.66850  0.90132  0.90557  1.0000
  C   C33       1.0  0.23173  0.97096  0.02042  1.0000
  C   C34       1.0  0.76810  0.02896  0.97958  1.0000
  C   C35       1.0  0.11064  0.82252  0.03834  1.0000
  C   C36       1.0  0.88934  0.17733  0.96169  1.0000
  N   N1        1.0  0.88304  0.89123  0.60780  1.0000
  N   N2        1.0  0.11703  0.10869  0.39222  1.0000
  N   N3        1.0  0.19643  0.72093  0.61286  1.0000
  N   N4        1.0  0.80373  0.27906  0.38711  1.0000
  N   N5        1.0  0.71950  0.72062  0.24654  1.0000
  N   N6        1.0  0.28055  0.27957  0.75349  1.0000
  N   N7        1.0  0.03269  0.55894  0.25166  1.0000
  N   N8        1.0  0.96712  0.44102  0.74831  1.0000
  O   O1        1.0  0.55657  0.35082  0.15722  1.0000
  O   O2        1.0  0.44331  0.64907  0.84279  1.0000
  O   O3        1.0  0.08213  0.82205  0.12627  1.0000
  O   O4        1.0  0.91794  0.17781  0.87376  1.0000
  O   O5        1.0  0.44828  0.26709  0.98916  1.0000
  O   O6        1.0  0.55159  0.73272  0.01083  1.0000
  O   O7        1.0  0.03891  0.70273  0.96234  1.0000
  O   O8        1.0  0.96112  0.29710  0.03769  1.0000
