data_image0
_chemical_formula_structural       Cd2H8C16O12F8
_chemical_formula_sum              "Cd2 H8 C16 O12 F8"
_cell_length_a       6.00608
_cell_length_b       7.3975
_cell_length_c       15.3835
_cell_angle_alpha    92.5318
_cell_angle_beta     99.5568
_cell_angle_gamma    97.2286

_space_group_name_H-M_alt    "P 1"
_space_group_IT_number       1

loop_
  _space_group_symop_operation_xyz
  'x, y, z'

loop_
  _atom_site_type_symbol
  _atom_site_label
  _atom_site_symmetry_multiplicity
  _atom_site_fract_x
  _atom_site_fract_y
  _atom_site_fract_z
  _atom_site_occupancy
  Cd  Cd1       1.0  0.50855  0.75344  0.04905  1.0000
  Cd  Cd2       1.0  0.49144  0.24655  0.95095  1.0000
  H   H1        1.0  0.31938  0.92124  0.18151  1.0000
  H   H2        1.0  0.68062  0.07877  0.81849  1.0000
  H   H3        1.0  0.26122  0.03943  0.09963  1.0000
  H   H4        1.0  0.73877  0.96057  0.90037  1.0000
  H   H5        1.0  0.85832  0.57729  0.11765  1.0000
  H   H6        1.0  0.14166  0.42273  0.88235  1.0000
  H   H7        1.0  0.97912  0.78210  0.12020  1.0000
  H   H8        1.0  0.02088  0.21791  0.87981  1.0000
  C   C1        1.0  0.95973  0.21021  0.19446  1.0000
  C   C2        1.0  0.04028  0.78981  0.80555  1.0000
  C   C3        1.0  0.87631  0.12656  0.26399  1.0000
  C   C4        1.0  0.12370  0.87345  0.73601  1.0000
  C   C5        1.0  0.00788  0.13397  0.34820  1.0000
  C   C6        1.0  0.99215  0.86603  0.65180  1.0000
  C   C7        1.0  0.22919  0.22664  0.36325  1.0000
  C   C8        1.0  0.77081  0.77338  0.63674  1.0000
  C   C9        1.0  0.31466  0.31106  0.29371  1.0000
  C   C10       1.0  0.68535  0.68894  0.70628  1.0000
  C   C11       1.0  0.18374  0.30339  0.20978  1.0000
  C   C12       1.0  0.81626  0.69660  0.79023  1.0000
  C   C13       1.0  0.81218  0.20983  0.10541  1.0000
  C   C14       1.0  0.18782  0.79018  0.89459  1.0000
  C   C15       1.0  0.28827  0.37736  0.13316  1.0000
  C   C16       1.0  0.71172  0.62263  0.86684  1.0000
  O   O1        1.0  0.69657  0.06347  0.06879  1.0000
  O   O2        1.0  0.30343  0.93653  0.93121  1.0000
  O   O3        1.0  0.80571  0.36210  0.07002  1.0000
  O   O4        1.0  0.19428  0.63791  0.92998  1.0000
  O   O5        1.0  0.29551  0.25588  0.07220  1.0000
  O   O6        1.0  0.70447  0.74410  0.92780  1.0000
  O   O7        1.0  0.35890  0.54474  0.13716  1.0000
  O   O8        1.0  0.64110  0.45525  0.86283  1.0000
  O   O9        1.0  0.25088  0.91047  0.11919  1.0000
  O   O10       1.0  0.74912  0.08952  0.88080  1.0000
  O   O11       1.0  0.84268  0.70642  0.13396  1.0000
  O   O12       1.0  0.15732  0.29360  0.86605  1.0000
  F   F1        1.0  0.66000  0.03903  0.25376  1.0000
  F   F2        1.0  0.34000  0.96097  0.74624  1.0000
  F   F3        1.0  0.92101  0.05374  0.41412  1.0000
  F   F4        1.0  0.07901  0.94625  0.58587  1.0000
  F   F5        1.0  0.35834  0.23364  0.44386  1.0000
  F   F6        1.0  0.64167  0.76632  0.55614  1.0000
  F   F7        1.0  0.53236  0.39523  0.30988  1.0000
  F   F8        1.0  0.46765  0.60477  0.69011  1.0000
