data_image0
_chemical_formula_structural       Cd4H36C52N4O24F16
_chemical_formula_sum              "Cd4 H36 C52 N4 O24 F16"
_cell_length_a       6.13328
_cell_length_b       7.86527
_cell_length_c       30.2025
_cell_angle_alpha    89.9996
_cell_angle_beta     90.0001
_cell_angle_gamma    89.9999

_space_group_name_H-M_alt    "P 1"
_space_group_IT_number       1

loop_
  _space_group_symop_operation_xyz
  'x, y, z'

loop_
  _atom_site_type_symbol
  _atom_site_label
  _atom_site_symmetry_multiplicity
  _atom_site_fract_x
  _atom_site_fract_y
  _atom_site_fract_z
  _atom_site_occupancy
  Cd  Cd1       1.0  0.11782  0.34345  0.30063  1.0000
  Cd  Cd2       1.0  0.38219  0.65655  0.80062  1.0000
  Cd  Cd3       1.0  0.61783  0.15655  0.69937  1.0000
  Cd  Cd4       1.0  0.88218  0.84346  0.19938  1.0000
  H   H1        1.0  0.83130  0.25445  0.38662  1.0000
  H   H2        1.0  0.66870  0.74553  0.88663  1.0000
  H   H3        1.0  0.33131  0.24554  0.61337  1.0000
  H   H4        1.0  0.16870  0.75446  0.11337  1.0000
  H   H5        1.0  0.82589  0.30321  0.46914  1.0000
  H   H6        1.0  0.67411  0.69677  0.96915  1.0000
  H   H7        1.0  0.32587  0.19678  0.53086  1.0000
  H   H8        1.0  0.17410  0.80321  0.03086  1.0000
  H   H9        1.0  0.13950  0.45780  0.50401  1.0000
  H   H10       1.0  0.36049  0.54219  0.00401  1.0000
  H   H11       1.0  0.63947  0.04220  0.49599  1.0000
  H   H12       1.0  0.86049  0.95781  0.99599  1.0000
  H   H13       1.0  0.45100  0.55208  0.45544  1.0000
  H   H14       1.0  0.04899  0.44791  0.95544  1.0000
  H   H15       1.0  0.95099  0.94791  0.54455  1.0000
  H   H16       1.0  0.54899  0.05209  0.04456  1.0000
  H   H17       1.0  0.42940  0.49084  0.37375  1.0000
  H   H18       1.0  0.07061  0.50915  0.87374  1.0000
  H   H19       1.0  0.92940  0.00915  0.62625  1.0000
  H   H20       1.0  0.57061  0.99084  0.12626  1.0000
  H   H21       1.0  0.66710  0.19024  0.30421  1.0000
  H   H22       1.0  0.83290  0.80977  0.80421  1.0000
  H   H23       1.0  0.16711  0.30977  0.69579  1.0000
  H   H24       1.0  0.33290  0.69023  0.19579  1.0000
  H   H25       1.0  0.85419  0.05588  0.29545  1.0000
  H   H26       1.0  0.64581  0.94412  0.79545  1.0000
  H   H27       1.0  0.35420  0.44413  0.70455  1.0000
  H   H28       1.0  0.14581  0.55588  0.20455  1.0000
  H   H29       1.0  0.43167  0.61891  0.28954  1.0000
  H   H30       1.0  0.06836  0.38108  0.78954  1.0000
  H   H31       1.0  0.93164  0.88109  0.71046  1.0000
  H   H32       1.0  0.56833  0.11891  0.21046  1.0000
  H   H33       1.0  0.50317  0.45052  0.26401  1.0000
  H   H34       1.0  0.99683  0.54947  0.76401  1.0000
  H   H35       1.0  0.00317  0.04947  0.73599  1.0000
  H   H36       1.0  0.49683  0.95052  0.23599  1.0000
  C   C1        1.0  0.10165  0.27236  0.11567  1.0000
  C   C2        1.0  0.39833  0.72766  0.61567  1.0000
  C   C3        1.0  0.60167  0.22765  0.88433  1.0000
  C   C4        1.0  0.89836  0.77235  0.38433  1.0000
  C   C5        1.0  0.03952  0.32800  0.07377  1.0000
  C   C6        1.0  0.46044  0.67200  0.57377  1.0000
  C   C7        1.0  0.53953  0.17200  0.92623  1.0000
  C   C8        1.0  0.96047  0.82801  0.42624  1.0000
  C   C9        1.0  0.84592  0.41840  0.06897  1.0000
  C   C10       1.0  0.65405  0.58161  0.56897  1.0000
  C   C11       1.0  0.34593  0.08161  0.93103  1.0000
  C   C12       1.0  0.15407  0.91839  0.43104  1.0000
  C   C13       1.0  0.72083  0.45629  0.10621  1.0000
  C   C14       1.0  0.77915  0.54371  0.60621  1.0000
  C   C15       1.0  0.22083  0.04371  0.89379  1.0000
  C   C16       1.0  0.27919  0.95629  0.39379  1.0000
  C   C17       1.0  0.78504  0.40520  0.14839  1.0000
  C   C18       1.0  0.71497  0.59481  0.64839  1.0000
  C   C19       1.0  0.28503  0.09481  0.85161  1.0000
  C   C20       1.0  0.21498  0.90520  0.35162  1.0000
  C   C21       1.0  0.97660  0.30787  0.15291  1.0000
  C   C22       1.0  0.52339  0.69214  0.65291  1.0000
  C   C23       1.0  0.47660  0.19214  0.84709  1.0000
  C   C24       1.0  0.02341  0.80786  0.34709  1.0000
  C   C25       1.0  0.05259  0.25078  0.19829  1.0000
  C   C26       1.0  0.44742  0.74924  0.69829  1.0000
  C   C27       1.0  0.55260  0.24921  0.80171  1.0000
  C   C28       1.0  0.94744  0.75077  0.30171  1.0000
  C   C29       1.0  0.65586  0.45887  0.18903  1.0000
  C   C30       1.0  0.84413  0.54113  0.68903  1.0000
  C   C31       1.0  0.15586  0.04113  0.81097  1.0000
  C   C32       1.0  0.34414  0.95887  0.31097  1.0000
  C   C33       1.0  0.96380  0.31989  0.40368  1.0000
  C   C34       1.0  0.53620  0.68009  0.90368  1.0000
  C   C35       1.0  0.46379  0.18010  0.59632  1.0000
  C   C36       1.0  0.03621  0.81990  0.09632  1.0000
  C   C37       1.0  0.96301  0.34674  0.44925  1.0000
  C   C38       1.0  0.53697  0.65325  0.94925  1.0000
  C   C39       1.0  0.46301  0.15326  0.55075  1.0000
  C   C40       1.0  0.03698  0.84674  0.05075  1.0000
  C   C41       1.0  0.13886  0.43154  0.46857  1.0000
  C   C42       1.0  0.36115  0.56845  0.96857  1.0000
  C   C43       1.0  0.63885  0.06845  0.53143  1.0000
  C   C44       1.0  0.86115  0.93155  0.03143  1.0000
  C   C45       1.0  0.31118  0.48481  0.44174  1.0000
  C   C46       1.0  0.18882  0.51518  0.94174  1.0000
  C   C47       1.0  0.81118  0.01519  0.55826  1.0000
  C   C48       1.0  0.68882  0.98482  0.05826  1.0000
  C   C49       1.0  0.30026  0.45226  0.39642  1.0000
  C   C50       1.0  0.19974  0.54773  0.89643  1.0000
  C   C51       1.0  0.80026  0.04774  0.60357  1.0000
  C   C52       1.0  0.69975  0.95227  0.10358  1.0000
  N   N1        1.0  0.12929  0.37247  0.37783  1.0000
  N   N2        1.0  0.37073  0.62752  0.87783  1.0000
  N   N3        1.0  0.62927  0.12753  0.62217  1.0000
  N   N4        1.0  0.87072  0.87248  0.12217  1.0000
  O   O1        1.0  0.08705  0.37253  0.22542  1.0000
  O   O2        1.0  0.41294  0.62747  0.72543  1.0000
  O   O3        1.0  0.58706  0.12747  0.77458  1.0000
  O   O4        1.0  0.91295  0.87253  0.27458  1.0000
  O   O5        1.0  0.07765  0.09645  0.20638  1.0000
  O   O6        1.0  0.42238  0.90354  0.70637  1.0000
  O   O7        1.0  0.57764  0.40356  0.79362  1.0000
  O   O8        1.0  0.92237  0.59646  0.29363  1.0000
  O   O9        1.0  0.62677  0.61793  0.19430  1.0000
  O   O10       1.0  0.87323  0.38208  0.69430  1.0000
  O   O11       1.0  0.12677  0.88207  0.80570  1.0000
  O   O12       1.0  0.37323  0.11792  0.30570  1.0000
  O   O13       1.0  0.58625  0.34426  0.21451  1.0000
  O   O14       1.0  0.91374  0.65574  0.71451  1.0000
  O   O15       1.0  0.08626  0.15574  0.78548  1.0000
  O   O16       1.0  0.41375  0.84426  0.28549  1.0000
  O   O17       1.0  0.82265  0.16819  0.31000  1.0000
  O   O18       1.0  0.67735  0.83181  0.81000  1.0000
  O   O19       1.0  0.32266  0.33182  0.68999  1.0000
  O   O20       1.0  0.17735  0.66819  0.19000  1.0000
  O   O21       1.0  0.43912  0.49323  0.29222  1.0000
  O   O22       1.0  0.06090  0.50676  0.79222  1.0000
  O   O23       1.0  0.93910  0.00677  0.70778  1.0000
  O   O24       1.0  0.56089  0.99323  0.20778  1.0000
  F   F1        1.0  0.29263  0.18651  0.11910  1.0000
  F   F2        1.0  0.20736  0.81350  0.61910  1.0000
  F   F3        1.0  0.79264  0.31348  0.88090  1.0000
  F   F4        1.0  0.70738  0.68652  0.38090  1.0000
  F   F5        1.0  0.16463  0.29444  0.03792  1.0000
  F   F6        1.0  0.33534  0.70556  0.53792  1.0000
  F   F7        1.0  0.66465  0.20556  0.96208  1.0000
  F   F8        1.0  0.83536  0.79445  0.46209  1.0000
  F   F9        1.0  0.78203  0.46958  0.02821  1.0000
  F   F10       1.0  0.71794  0.53042  0.52821  1.0000
  F   F11       1.0  0.28204  0.03042  0.97179  1.0000
  F   F12       1.0  0.21796  0.96959  0.47179  1.0000
  F   F13       1.0  0.53316  0.54466  0.09968  1.0000
  F   F14       1.0  0.96685  0.45535  0.59968  1.0000
  F   F15       1.0  0.03315  0.95535  0.90032  1.0000
  F   F16       1.0  0.46686  0.04466  0.40033  1.0000
