data_image0
_chemical_formula_structural       Cd3Cu2H46C52S2N8O20
_chemical_formula_sum              "Cd3 Cu2 H46 C52 S2 N8 O20"
_cell_length_a       9.6284
_cell_length_b       12.2458
_cell_length_c       13.0856
_cell_angle_alpha    70.9712
_cell_angle_beta     75.6329
_cell_angle_gamma    67.2215

_space_group_name_H-M_alt    "P 1"
_space_group_IT_number       1

loop_
  _space_group_symop_operation_xyz
  'x, y, z'

loop_
  _atom_site_type_symbol
  _atom_site_label
  _atom_site_symmetry_multiplicity
  _atom_site_fract_x
  _atom_site_fract_y
  _atom_site_fract_z
  _atom_site_occupancy
  Cd  Cd1       1.0  0.76069  0.76368  0.86987  1.0000
  Cd  Cd2       1.0  0.23932  0.23632  0.13013  1.0000
  Cd  Cd3       1.0  0.00000  0.50000  0.00000  1.0000
  Cu  Cu1       1.0  0.78499  0.79877  0.42463  1.0000
  Cu  Cu2       1.0  0.21501  0.20124  0.57537  1.0000
  H   H1        1.0  0.91820  0.90652  0.85559  1.0000
  H   H2        1.0  0.08180  0.09348  0.14441  1.0000
  H   H3        1.0  0.74849  0.00751  0.84021  1.0000
  H   H4        1.0  0.25151  0.99248  0.15979  1.0000
  H   H5        1.0  0.09998  0.58579  0.76831  1.0000
  H   H6        1.0  0.90002  0.41421  0.23169  1.0000
  H   H7        1.0  0.22811  0.46031  0.81899  1.0000
  H   H8        1.0  0.77188  0.53969  0.18102  1.0000
  H   H9        1.0  0.41182  0.77404  0.73091  1.0000
  H   H10       1.0  0.58818  0.22596  0.26909  1.0000
  H   H11       1.0  0.14790  0.80126  0.72772  1.0000
  H   H12       1.0  0.85210  0.19875  0.27227  1.0000
  H   H13       1.0  0.04085  0.88524  0.55119  1.0000
  H   H14       1.0  0.95915  0.11477  0.44881  1.0000
  H   H15       1.0  0.20992  0.93678  0.37760  1.0000
  H   H16       1.0  0.79008  0.06322  0.62240  1.0000
  H   H17       1.0  0.42010  0.95663  0.28368  1.0000
  H   H18       1.0  0.57990  0.04336  0.71632  1.0000
  H   H19       1.0  0.66814  0.04886  0.20030  1.0000
  H   H20       1.0  0.33186  0.95114  0.79969  1.0000
  H   H21       1.0  0.59096  0.96397  0.15743  1.0000
  H   H22       1.0  0.40903  0.03603  0.84257  1.0000
  H   H23       1.0  0.85053  0.93849  0.06906  1.0000
  H   H24       1.0  0.14947  0.06151  0.93094  1.0000
  H   H25       1.0  0.84700  0.79573  0.15747  1.0000
  H   H26       1.0  0.15300  0.20427  0.84253  1.0000
  H   H27       1.0  0.06732  0.87208  0.15735  1.0000
  H   H28       1.0  0.93268  0.12792  0.84265  1.0000
  H   H29       1.0  0.92558  0.98098  0.22359  1.0000
  H   H30       1.0  0.07442  0.01902  0.77641  1.0000
  H   H31       1.0  0.20026  0.73288  0.26151  1.0000
  H   H32       1.0  0.79974  0.26712  0.73848  1.0000
  H   H33       1.0  0.37876  0.56055  0.33634  1.0000
  H   H34       1.0  0.62124  0.43945  0.66366  1.0000
  H   H35       1.0  0.47814  0.38348  0.49083  1.0000
  H   H36       1.0  0.52185  0.61652  0.50917  1.0000
  H   H37       1.0  0.30421  0.34603  0.66584  1.0000
  H   H38       1.0  0.69578  0.65397  0.33416  1.0000
  H   H39       1.0  0.03873  0.48592  0.68574  1.0000
  H   H40       1.0  0.96127  0.51408  0.31425  1.0000
  H   H41       1.0  0.25835  0.82070  0.99884  1.0000
  H   H42       1.0  0.74166  0.17930  0.00115  1.0000
  H   H43       1.0  0.43626  0.37457  0.16374  1.0000
  H   H44       1.0  0.56373  0.62543  0.83627  1.0000
  H   H45       1.0  0.57794  0.49931  0.17730  1.0000
  H   H46       1.0  0.42206  0.50069  0.82271  1.0000
  C   C1        1.0  0.85458  0.72426  0.63380  1.0000
  C   C2        1.0  0.14542  0.27575  0.36620  1.0000
  C   C3        1.0  0.68308  0.79121  0.64329  1.0000
  C   C4        1.0  0.31691  0.20879  0.35670  1.0000
  C   C5        1.0  0.46798  0.83613  0.55615  1.0000
  C   C6        1.0  0.53202  0.16388  0.44385  1.0000
  C   C7        1.0  0.36933  0.80888  0.65307  1.0000
  C   C8        1.0  0.63067  0.19112  0.34693  1.0000
  C   C9        1.0  0.21893  0.82491  0.65089  1.0000
  C   C10       1.0  0.78107  0.17510  0.34911  1.0000
  C   C11       1.0  0.15917  0.87157  0.55223  1.0000
  C   C12       1.0  0.84083  0.12843  0.44777  1.0000
  C   C13       1.0  0.25340  0.89978  0.45593  1.0000
  C   C14       1.0  0.74660  0.10022  0.54407  1.0000
  C   C15       1.0  0.40784  0.88109  0.45566  1.0000
  C   C16       1.0  0.59217  0.11891  0.54434  1.0000
  C   C17       1.0  0.49135  0.91305  0.34904  1.0000
  C   C18       1.0  0.50865  0.08695  0.65096  1.0000
  C   C19       1.0  0.67629  0.95522  0.20465  1.0000
  C   C20       1.0  0.32371  0.04478  0.79535  1.0000
  C   C21       1.0  0.83462  0.88943  0.15555  1.0000
  C   C22       1.0  0.16538  0.11057  0.84445  1.0000
  C   C23       1.0  0.95670  0.89000  0.20999  1.0000
  C   C24       1.0  0.04330  0.11000  0.79000  1.0000
  C   C25       1.0  0.10871  0.72409  0.32994  1.0000
  C   C26       1.0  0.89129  0.27591  0.67006  1.0000
  C   C27       1.0  0.15594  0.62614  0.42500  1.0000
  C   C28       1.0  0.84406  0.37387  0.57500  1.0000
  C   C29       1.0  0.30628  0.54423  0.41426  1.0000
  C   C30       1.0  0.69372  0.45577  0.58574  1.0000
  C   C31       1.0  0.36112  0.44480  0.49981  1.0000
  C   C32       1.0  0.63887  0.55520  0.50019  1.0000
  C   C33       1.0  0.26329  0.42344  0.59743  1.0000
  C   C34       1.0  0.73670  0.57657  0.40257  1.0000
  C   C35       1.0  0.11478  0.50370  0.61012  1.0000
  C   C36       1.0  0.88521  0.49630  0.38988  1.0000
  C   C37       1.0  0.06052  0.60874  0.52622  1.0000
  C   C38       1.0  0.93948  0.39126  0.47378  1.0000
  C   C39       1.0  0.42438  0.66991  0.09080  1.0000
  C   C40       1.0  0.57563  0.33009  0.90920  1.0000
  C   C41       1.0  0.29693  0.72261  0.03719  1.0000
  C   C42       1.0  0.70307  0.27739  0.96281  1.0000
  C   C43       1.0  0.21225  0.65490  0.02994  1.0000
  C   C44       1.0  0.78776  0.34510  0.97006  1.0000
  C   C45       1.0  0.26500  0.52417  0.07789  1.0000
  C   C46       1.0  0.73500  0.47583  0.92211  1.0000
  C   C47       1.0  0.39690  0.47361  0.13031  1.0000
  C   C48       1.0  0.60310  0.52639  0.86970  1.0000
  C   C49       1.0  0.47592  0.54315  0.13759  1.0000
  C   C50       1.0  0.52408  0.45685  0.86241  1.0000
  C   C51       1.0  0.07546  0.73201  0.97116  1.0000
  C   C52       1.0  0.92455  0.26798  0.02884  1.0000
  S   S1        1.0  0.51169  0.76726  0.10306  1.0000
  S   S2        1.0  0.48832  0.23274  0.89694  1.0000
  N   N1        1.0  0.91496  0.69234  0.54011  1.0000
  N   N2        1.0  0.08504  0.30767  0.45989  1.0000
  N   N3        1.0  0.62202  0.81189  0.55449  1.0000
  N   N4        1.0  0.37798  0.18811  0.44551  1.0000
  N   N5        1.0  0.63517  0.89738  0.32040  1.0000
  N   N6        1.0  0.36483  0.10262  0.67959  1.0000
  N   N7        1.0  0.97261  0.79960  0.31574  1.0000
  N   N8        1.0  0.02740  0.20040  0.68425  1.0000
  O   O1        1.0  0.92222  0.70086  0.71392  1.0000
  O   O2        1.0  0.07777  0.29914  0.28608  1.0000
  O   O3        1.0  0.61369  0.81524  0.73312  1.0000
  O   O4        1.0  0.38630  0.18476  0.26688  1.0000
  O   O5        1.0  0.55768  0.83460  0.99010  1.0000
  O   O6        1.0  0.44232  0.16540  0.00990  1.0000
  O   O7        1.0  0.39382  0.85332  0.16188  1.0000
  O   O8        1.0  0.60618  0.14668  0.83812  1.0000
  O   O9        1.0  0.64148  0.69021  0.16256  1.0000
  O   O10       1.0  0.35852  0.30979  0.83744  1.0000
  O   O11       1.0  0.07217  0.83727  0.91141  1.0000
  O   O12       1.0  0.92783  0.16273  0.08860  1.0000
  O   O13       1.0  0.96137  0.69414  0.98628  1.0000
  O   O14       1.0  0.03863  0.30585  0.01373  1.0000
  O   O15       1.0  0.20282  0.44659  0.07465  1.0000
  O   O16       1.0  0.79719  0.55341  0.92535  1.0000
  O   O17       1.0  0.82652  0.93603  0.81616  1.0000
  O   O18       1.0  0.17348  0.06396  0.18385  1.0000
  O   O19       1.0  0.16074  0.54188  0.82886  1.0000
  O   O20       1.0  0.83925  0.45812  0.17115  1.0000
