data_image0
_chemical_formula_structural       Mn2H32C48N4O8
_chemical_formula_sum              "Mn2 H32 C48 N4 O8"
_cell_length_a       7.20489
_cell_length_b       11.8618
_cell_length_c       12.2187
_cell_angle_alpha    119.043
_cell_angle_beta     91.5439
_cell_angle_gamma    89.9784

_space_group_name_H-M_alt    "P 1"
_space_group_IT_number       1

loop_
  _space_group_symop_operation_xyz
  'x, y, z'

loop_
  _atom_site_type_symbol
  _atom_site_label
  _atom_site_symmetry_multiplicity
  _atom_site_fract_x
  _atom_site_fract_y
  _atom_site_fract_z
  _atom_site_occupancy
  Mn  Mn1       1.0  0.74981  0.87327  0.00004  1.0000
  Mn  Mn2       1.0  0.25019  0.12673  0.99996  1.0000
  H   H1        1.0  0.60168  0.43195  0.31495  1.0000
  H   H2        1.0  0.89836  0.11709  0.68495  1.0000
  H   H3        1.0  0.39833  0.56805  0.68505  1.0000
  H   H4        1.0  0.10163  0.88290  0.31504  1.0000
  H   H5        1.0  0.81110  0.09198  0.30897  1.0000
  H   H6        1.0  0.68884  0.78362  0.69167  1.0000
  H   H7        1.0  0.18891  0.90802  0.69103  1.0000
  H   H8        1.0  0.31116  0.21638  0.30832  1.0000
  H   H9        1.0  0.05388  0.69102  0.02594  1.0000
  H   H10       1.0  0.44580  0.66497  0.97422  1.0000
  H   H11       1.0  0.94613  0.30899  0.97406  1.0000
  H   H12       1.0  0.55418  0.33502  0.02577  1.0000
  H   H13       1.0  0.73040  0.56512  0.53110  1.0000
  H   H14       1.0  0.76944  0.03380  0.46885  1.0000
  H   H15       1.0  0.26961  0.43488  0.46890  1.0000
  H   H16       1.0  0.23056  0.96620  0.53114  1.0000
  H   H17       1.0  0.94030  0.22171  0.52518  1.0000
  H   H18       1.0  0.55979  0.69667  0.47540  1.0000
  H   H19       1.0  0.05971  0.77830  0.47482  1.0000
  H   H20       1.0  0.44023  0.30333  0.52459  1.0000
  H   H21       1.0  0.70516  0.63335  0.73083  1.0000
  H   H22       1.0  0.79486  0.90210  0.26921  1.0000
  H   H23       1.0  0.29485  0.36665  0.26918  1.0000
  H   H24       1.0  0.20512  0.09789  0.73079  1.0000
  H   H25       1.0  0.12090  0.34790  0.66956  1.0000
  H   H26       1.0  0.37899  0.67826  0.33059  1.0000
  H   H27       1.0  0.87910  0.65211  0.33045  1.0000
  H   H28       1.0  0.62100  0.32173  0.66940  1.0000
  H   H29       1.0  0.21552  0.47893  0.89406  1.0000
  H   H30       1.0  0.28441  0.58476  0.10611  1.0000
  H   H31       1.0  0.78449  0.52107  0.10594  1.0000
  H   H32       1.0  0.71558  0.41524  0.89389  1.0000
  C   C1        1.0  0.90604  0.47968  0.67833  1.0000
  C   C2        1.0  0.59395  0.80112  0.32186  1.0000
  C   C3        1.0  0.09396  0.52032  0.32167  1.0000
  C   C4        1.0  0.40603  0.19888  0.67812  1.0000
  C   C5        1.0  0.69639  0.25249  0.29865  1.0000
  C   C6        1.0  0.80354  0.95425  0.70166  1.0000
  C   C7        1.0  0.30362  0.74751  0.70135  1.0000
  C   C8        1.0  0.19647  0.04575  0.29832  1.0000
  C   C9        1.0  0.60504  0.16637  0.17229  1.0000
  C   C10       1.0  0.89498  0.99456  0.82802  1.0000
  C   C11       1.0  0.39496  0.83363  0.82771  1.0000
  C   C12       1.0  0.10501  0.00544  0.17199  1.0000
  C   C13       1.0  0.67492  0.38654  0.36225  1.0000
  C   C14       1.0  0.82503  0.02444  0.63783  1.0000
  C   C15       1.0  0.32509  0.61347  0.63775  1.0000
  C   C16       1.0  0.17497  0.97556  0.36216  1.0000
  C   C17       1.0  0.79534  0.19600  0.35917  1.0000
  C   C18       1.0  0.70463  0.83726  0.64131  1.0000
  C   C19       1.0  0.20466  0.80401  0.64083  1.0000
  C   C20       1.0  0.29538  0.16274  0.35869  1.0000
  C   C21       1.0  0.84019  0.40358  0.54659  1.0000
  C   C22       1.0  0.65980  0.85688  0.45360  1.0000
  C   C23       1.0  0.15982  0.59642  0.45341  1.0000
  C   C24       1.0  0.34019  0.14312  0.54640  1.0000
  C   C25       1.0  0.01482  0.62722  0.92786  1.0000
  C   C26       1.0  0.48498  0.69924  0.07232  1.0000
  C   C27       1.0  0.98518  0.37278  0.07215  1.0000
  C   C28       1.0  0.51502  0.30075  0.92769  1.0000
  C   C29       1.0  0.74579  0.46088  0.48417  1.0000
  C   C30       1.0  0.75408  0.97664  0.51592  1.0000
  C   C31       1.0  0.25422  0.53913  0.51584  1.0000
  C   C32       1.0  0.24593  0.02336  0.48408  1.0000
  C   C33       1.0  0.86640  0.26950  0.48047  1.0000
  C   C34       1.0  0.63361  0.78918  0.51995  1.0000
  C   C35       1.0  0.13361  0.73050  0.51953  1.0000
  C   C36       1.0  0.36638  0.21080  0.48005  1.0000
  C   C37       1.0  0.82311  0.59656  0.76080  1.0000
  C   C38       1.0  0.67687  0.83540  0.23933  1.0000
  C   C39       1.0  0.17689  0.40345  0.23920  1.0000
  C   C40       1.0  0.32312  0.16459  0.76066  1.0000
  C   C41       1.0  0.04968  0.43721  0.72883  1.0000
  C   C42       1.0  0.45024  0.70825  0.27133  1.0000
  C   C43       1.0  0.95032  0.56279  0.27117  1.0000
  C   C44       1.0  0.54974  0.29174  0.72866  1.0000
  C   C45       1.0  0.10374  0.51103  0.85431  1.0000
  C   C46       1.0  0.39615  0.65661  0.14586  1.0000
  C   C47       1.0  0.89626  0.48897  0.14569  1.0000
  C   C48       1.0  0.60384  0.34338  0.85413  1.0000
  N   N1        1.0  0.87587  0.66890  0.88148  1.0000
  N   N2        1.0  0.62398  0.78718  0.11868  1.0000
  N   N3        1.0  0.12414  0.33110  0.11853  1.0000
  N   N4        1.0  0.37600  0.21282  0.88133  1.0000
  O   O1        1.0  0.49678  0.21889  0.12636  1.0000
  O   O2        1.0  0.00371  0.09271  0.87364  1.0000
  O   O3        1.0  0.50322  0.78111  0.87365  1.0000
  O   O4        1.0  0.99629  0.90729  0.12636  1.0000
  O   O5        1.0  0.63399  0.04644  0.12409  1.0000
  O   O6        1.0  0.86562  0.92317  0.87652  1.0000
  O   O7        1.0  0.36602  0.95356  0.87591  1.0000
  O   O8        1.0  0.13437  0.07683  0.12348  1.0000
