data_image0
_chemical_formula_structural       Mn2H50C58N10O12
_chemical_formula_sum              "Mn2 H50 C58 N10 O12"
_cell_length_a       10.6155
_cell_length_b       11.1125
_cell_length_c       13.2088
_cell_angle_alpha    71.9541
_cell_angle_beta     80.1631
_cell_angle_gamma    63.9016

_space_group_name_H-M_alt    "P 1"
_space_group_IT_number       1

loop_
  _space_group_symop_operation_xyz
  'x, y, z'

loop_
  _atom_site_type_symbol
  _atom_site_label
  _atom_site_symmetry_multiplicity
  _atom_site_fract_x
  _atom_site_fract_y
  _atom_site_fract_z
  _atom_site_occupancy
  Mn  Mn1       1.0  0.83591  0.58204  0.22911  1.0000
  Mn  Mn2       1.0  0.16408  0.41796  0.77089  1.0000
  H   H1        1.0  0.88665  0.85244  0.38824  1.0000
  H   H2        1.0  0.11336  0.14758  0.61176  1.0000
  H   H3        1.0  0.03192  0.17417  0.33332  1.0000
  H   H4        1.0  0.96808  0.82585  0.66666  1.0000
  H   H5        1.0  0.04911  0.19862  0.13749  1.0000
  H   H6        1.0  0.95090  0.80137  0.86250  1.0000
  H   H7        1.0  0.98610  0.05001  0.06792  1.0000
  H   H8        1.0  0.01391  0.94999  0.93207  1.0000
  H   H9        1.0  0.97956  0.40183  0.45944  1.0000
  H   H10       1.0  0.02045  0.59816  0.54057  1.0000
  H   H11       1.0  0.91163  0.37641  0.65438  1.0000
  H   H12       1.0  0.08837  0.62358  0.34562  1.0000
  H   H13       1.0  0.65690  0.49836  0.70713  1.0000
  H   H14       1.0  0.34311  0.50162  0.29287  1.0000
  H   H15       1.0  0.40570  0.64779  0.64917  1.0000
  H   H16       1.0  0.59431  0.35218  0.35084  1.0000
  H   H17       1.0  0.24143  0.78821  0.50359  1.0000
  H   H18       1.0  0.75857  0.21178  0.49642  1.0000
  H   H19       1.0  0.19894  0.87695  0.30659  1.0000
  H   H20       1.0  0.80106  0.12305  0.69343  1.0000
  H   H21       1.0  0.29880  0.89862  0.11910  1.0000
  H   H22       1.0  0.70120  0.10139  0.88090  1.0000
  H   H23       1.0  0.56221  0.78013  0.09016  1.0000
  H   H24       1.0  0.43779  0.21988  0.90985  1.0000
  H   H25       1.0  0.86997  0.44593  0.04212  1.0000
  H   H26       1.0  0.13003  0.55407  0.95788  1.0000
  H   H27       1.0  0.66350  0.21457  0.16043  1.0000
  H   H28       1.0  0.33650  0.78543  0.83958  1.0000
  H   H29       1.0  0.53844  0.33989  0.06374  1.0000
  H   H30       1.0  0.46157  0.66010  0.93627  1.0000
  H   H31       1.0  0.56475  0.38680  0.17422  1.0000
  H   H32       1.0  0.43525  0.61320  0.82579  1.0000
  H   H33       1.0  0.67780  0.39271  0.89826  1.0000
  H   H34       1.0  0.32220  0.60728  0.10175  1.0000
  H   H35       1.0  0.80867  0.22712  0.95957  1.0000
  H   H36       1.0  0.19133  0.77286  0.04045  1.0000
  H   H37       1.0  0.84965  0.37553  0.91456  1.0000
  H   H38       1.0  0.15035  0.62445  0.08544  1.0000
  H   H39       1.0  0.21998  0.25109  0.40082  1.0000
  H   H40       1.0  0.78001  0.74891  0.59918  1.0000
  H   H41       1.0  0.62104  0.94532  0.32733  1.0000
  H   H42       1.0  0.37897  0.05468  0.67267  1.0000
  H   H43       1.0  0.56510  0.03238  0.13494  1.0000
  H   H44       1.0  0.43491  0.96763  0.86506  1.0000
  H   H45       1.0  0.33423  0.22705  0.07671  1.0000
  H   H46       1.0  0.66577  0.77296  0.92328  1.0000
  H   H47       1.0  0.85255  0.66066  0.99972  1.0000
  H   H48       1.0  0.14746  0.33934  0.00027  1.0000
  H   H49       1.0  0.83036  0.78135  0.05790  1.0000
  H   H50       1.0  0.16964  0.21866  0.94209  1.0000
  C   C1        1.0  0.92124  0.92866  0.33261  1.0000
  C   C2        1.0  0.07876  0.07135  0.66738  1.0000
  C   C3        1.0  0.96219  0.00914  0.37189  1.0000
  C   C4        1.0  0.03781  0.99088  0.62810  1.0000
  C   C5        1.0  0.00425  0.11020  0.30125  1.0000
  C   C6        1.0  0.99575  0.88981  0.69873  1.0000
  C   C7        1.0  0.01282  0.12348  0.19248  1.0000
  C   C8        1.0  0.98718  0.87652  0.80750  1.0000
  C   C9        1.0  0.97615  0.04055  0.15314  1.0000
  C   C10       1.0  0.02386  0.95945  0.84685  1.0000
  C   C11       1.0  0.92855  0.94384  0.22287  1.0000
  C   C12       1.0  0.07145  0.05617  0.77712  1.0000
  C   C13       1.0  0.88868  0.85550  0.17972  1.0000
  C   C14       1.0  0.11132  0.14450  0.82028  1.0000
  C   C15       1.0  0.54757  0.68823  0.35125  1.0000
  C   C16       1.0  0.45243  0.31176  0.64875  1.0000
  C   C17       1.0  0.64396  0.60357  0.43604  1.0000
  C   C18       1.0  0.35604  0.39642  0.56396  1.0000
  C   C19       1.0  0.87123  0.45528  0.48613  1.0000
  C   C20       1.0  0.12877  0.54471  0.51387  1.0000
  C   C21       1.0  0.83166  0.44001  0.59505  1.0000
  C   C22       1.0  0.16835  0.55997  0.40496  1.0000
  C   C23       1.0  0.69190  0.50819  0.62350  1.0000
  C   C24       1.0  0.30810  0.49179  0.37651  1.0000
  C   C25       1.0  0.59254  0.59126  0.54376  1.0000
  C   C26       1.0  0.40747  0.40872  0.45624  1.0000
  C   C27       1.0  0.44509  0.66039  0.56635  1.0000
  C   C28       1.0  0.55491  0.33959  0.43366  1.0000
  C   C29       1.0  0.35353  0.73763  0.48579  1.0000
  C   C30       1.0  0.64647  0.26237  0.51421  1.0000
  C   C31       1.0  0.40200  0.75312  0.37643  1.0000
  C   C32       1.0  0.59800  0.24688  0.62358  1.0000
  C   C33       1.0  0.31145  0.82808  0.29039  1.0000
  C   C34       1.0  0.68855  0.17192  0.70961  1.0000
  C   C35       1.0  0.36646  0.83909  0.18688  1.0000
  C   C36       1.0  0.63354  0.16092  0.81312  1.0000
  C   C37       1.0  0.51255  0.77360  0.16996  1.0000
  C   C38       1.0  0.48745  0.22640  0.83004  1.0000
  C   C39       1.0  0.78826  0.42087  0.09567  1.0000
  C   C40       1.0  0.21174  0.57913  0.90433  1.0000
  C   C41       1.0  0.61628  0.32504  0.11661  1.0000
  C   C42       1.0  0.38372  0.67495  0.88340  1.0000
  C   C43       1.0  0.76728  0.33944  0.95087  1.0000
  C   C44       1.0  0.23273  0.66054  0.04914  1.0000
  C   C45       1.0  0.26175  0.25305  0.23434  1.0000
  C   C46       1.0  0.73825  0.74695  0.76566  1.0000
  C   C47       1.0  0.29464  0.20421  0.34176  1.0000
  C   C48       1.0  0.70536  0.79579  0.65824  1.0000
  C   C49       1.0  0.42306  0.09363  0.37485  1.0000
  C   C50       1.0  0.57693  0.90638  0.62515  1.0000
  C   C51       1.0  0.52136  0.03092  0.30008  1.0000
  C   C52       1.0  0.47864  0.96910  0.69992  1.0000
  C   C53       1.0  0.48885  0.07986  0.19333  1.0000
  C   C54       1.0  0.51115  0.92015  0.80666  1.0000
  C   C55       1.0  0.35997  0.19006  0.16032  1.0000
  C   C56       1.0  0.64004  0.80995  0.83967  1.0000
  C   C57       1.0  0.12175  0.36966  0.19990  1.0000
  C   C58       1.0  0.87825  0.63035  0.80009  1.0000
  N   N1        1.0  0.60033  0.70003  0.24945  1.0000
  N   N2        1.0  0.39966  0.29997  0.75056  1.0000
  N   N3        1.0  0.78098  0.53556  0.40878  1.0000
  N   N4        1.0  0.21903  0.46442  0.59122  1.0000
  N   N5        1.0  0.72234  0.36913  0.05414  1.0000
  N   N6        1.0  0.27766  0.63087  0.94587  1.0000
  N   N7        1.0  0.96334  0.97780  0.48386  1.0000
  N   N8        1.0  0.03665  0.02223  0.51612  1.0000
  N   N9        1.0  0.44417  0.05349  0.48515  1.0000
  N   N10       1.0  0.55583  0.94652  0.51484  1.0000
  O   O1        1.0  0.88771  0.74365  0.24539  1.0000
  O   O2        1.0  0.11228  0.25636  0.75461  1.0000
  O   O3        1.0  0.86000  0.89747  0.08185  1.0000
  O   O4        1.0  0.13999  0.10253  0.91815  1.0000
  O   O5        1.0  0.03993  0.42463  0.27186  1.0000
  O   O6        1.0  0.96007  0.57537  0.72814  1.0000
  O   O7        1.0  0.08934  0.40807  0.10346  1.0000
  O   O8        1.0  0.91066  0.59193  0.89653  1.0000
  O   O9        1.0  0.76015  0.44050  0.18700  1.0000
  O   O10       1.0  0.23984  0.55950  0.81301  1.0000
  O   O11       1.0  0.80853  0.69940  0.06231  1.0000
  O   O12       1.0  0.19147  0.30060  0.93768  1.0000
