data_image0
_chemical_formula_structural       Tl4H32C32N4O8
_chemical_formula_sum              "Tl4 H32 C32 N4 O8"
_cell_length_a       7.89795
_cell_length_b       10.2125
_cell_length_c       11.4488
_cell_angle_alpha    100.804
_cell_angle_beta     110.053
_cell_angle_gamma    90.0706

_space_group_name_H-M_alt    "P 1"
_space_group_IT_number       1

loop_
  _space_group_symop_operation_xyz
  'x, y, z'

loop_
  _atom_site_type_symbol
  _atom_site_label
  _atom_site_symmetry_multiplicity
  _atom_site_fract_x
  _atom_site_fract_y
  _atom_site_fract_z
  _atom_site_occupancy
  Tl  Tl1       1.0  0.24531  0.94051  0.96935  1.0000
  Tl  Tl2       1.0  0.72454  0.44074  0.97015  1.0000
  Tl  Tl3       1.0  0.75470  0.05950  0.03065  1.0000
  Tl  Tl4       1.0  0.27546  0.55927  0.02985  1.0000
  H   H1        1.0  0.40600  0.24890  0.53741  1.0000
  H   H2        1.0  0.13046  0.74892  0.53681  1.0000
  H   H3        1.0  0.59399  0.75110  0.46259  1.0000
  H   H4        1.0  0.86953  0.25107  0.46318  1.0000
  H   H5        1.0  0.64143  0.24144  0.60505  1.0000
  H   H6        1.0  0.96283  0.74126  0.60493  1.0000
  H   H7        1.0  0.35856  0.75856  0.39495  1.0000
  H   H8        1.0  0.03716  0.25874  0.39507  1.0000
  H   H9        1.0  0.55090  0.31197  0.46735  1.0000
  H   H10       1.0  0.91593  0.81191  0.46720  1.0000
  H   H11       1.0  0.44910  0.68804  0.53266  1.0000
  H   H12       1.0  0.08405  0.18808  0.53279  1.0000
  H   H13       1.0  0.97292  0.53109  0.71300  1.0000
  H   H14       1.0  0.73926  0.03086  0.71294  1.0000
  H   H15       1.0  0.02707  0.46891  0.28699  1.0000
  H   H16       1.0  0.26074  0.96914  0.28706  1.0000
  H   H17       1.0  0.85531  0.38084  0.62216  1.0000
  H   H18       1.0  0.76615  0.88056  0.62209  1.0000
  H   H19       1.0  0.14468  0.61916  0.37784  1.0000
  H   H20       1.0  0.23384  0.11944  0.37791  1.0000
  H   H21       1.0  0.57164  0.78759  0.85554  1.0000
  H   H22       1.0  0.28297  0.28747  0.85537  1.0000
  H   H23       1.0  0.42837  0.21242  0.14445  1.0000
  H   H24       1.0  0.71703  0.71252  0.14464  1.0000
  H   H25       1.0  0.27839  0.64762  0.75933  1.0000
  H   H26       1.0  0.48029  0.14732  0.75948  1.0000
  H   H27       1.0  0.72162  0.35240  0.24069  1.0000
  H   H28       1.0  0.51971  0.85267  0.24052  1.0000
  H   H29       1.0  0.26828  0.42182  0.62599  1.0000
  H   H30       1.0  0.35716  0.92161  0.62589  1.0000
  H   H31       1.0  0.73173  0.57819  0.37404  1.0000
  H   H32       1.0  0.64284  0.07838  0.37410  1.0000
  C   C1        1.0  0.53569  0.30359  0.55783  1.0000
  C   C2        1.0  0.02142  0.80350  0.55755  1.0000
  C   C3        1.0  0.46430  0.69642  0.44217  1.0000
  C   C4        1.0  0.97857  0.19649  0.44244  1.0000
  C   C5        1.0  0.70950  0.52088  0.68953  1.0000
  C   C6        1.0  0.97931  0.02070  0.68939  1.0000
  C   C7        1.0  0.29049  0.47912  0.31048  1.0000
  C   C8        1.0  0.02069  0.97930  0.31061  1.0000
  C   C9        1.0  0.54462  0.43832  0.63986  1.0000
  C   C10       1.0  0.09457  0.93820  0.63963  1.0000
  C   C11       1.0  0.45537  0.56168  0.36014  1.0000
  C   C12       1.0  0.90543  0.06179  0.36037  1.0000
  C   C13       1.0  0.56184  0.69004  0.79447  1.0000
  C   C14       1.0  0.23181  0.18994  0.79431  1.0000
  C   C15       1.0  0.43816  0.30996  0.20554  1.0000
  C   C16       1.0  0.76820  0.81006  0.20569  1.0000
  C   C17       1.0  0.71908  0.64700  0.77178  1.0000
  C   C18       1.0  0.05185  0.14688  0.77161  1.0000
  C   C19       1.0  0.28092  0.35300  0.22822  1.0000
  C   C20       1.0  0.94816  0.85311  0.22839  1.0000
  C   C21       1.0  0.89153  0.73348  0.83730  1.0000
  C   C22       1.0  0.94476  0.23353  0.83696  1.0000
  C   C23       1.0  0.10847  0.26652  0.16270  1.0000
  C   C24       1.0  0.05525  0.76647  0.16304  1.0000
  C   C25       1.0  0.39948  0.61184  0.74239  1.0000
  C   C26       1.0  0.34219  0.11161  0.74236  1.0000
  C   C27       1.0  0.60052  0.38817  0.25762  1.0000
  C   C28       1.0  0.65781  0.88838  0.25764  1.0000
  C   C29       1.0  0.39395  0.48546  0.66665  1.0000
  C   C30       1.0  0.27208  0.98528  0.66654  1.0000
  C   C31       1.0  0.60605  0.51455  0.33335  1.0000
  C   C32       1.0  0.72792  0.01472  0.33345  1.0000
  N   N1        1.0  0.85308  0.47984  0.65492  1.0000
  N   N2        1.0  0.80128  0.97953  0.65495  1.0000
  N   N3        1.0  0.14691  0.52016  0.34508  1.0000
  N   N4        1.0  0.19872  0.02047  0.34505  1.0000
  O   O1        1.0  0.04014  0.68781  0.82958  1.0000
  O   O2        1.0  0.78858  0.18779  0.82955  1.0000
  O   O3        1.0  0.95986  0.31219  0.17043  1.0000
  O   O4        1.0  0.21143  0.81221  0.17045  1.0000
  O   O5        1.0  0.88584  0.85020  0.89846  1.0000
  O   O6        1.0  0.01136  0.35048  0.89758  1.0000
  O   O7        1.0  0.11417  0.14980  0.10154  1.0000
  O   O8        1.0  0.98866  0.64952  0.10241  1.0000
