data_image0
_chemical_formula_structural       Tl4H28C32O12
_chemical_formula_sum              "Tl4 H28 C32 O12"
_cell_length_a       7.46056
_cell_length_b       10.3816
_cell_length_c       11.844
_cell_angle_alpha    105.437
_cell_angle_beta     89.9497
_cell_angle_gamma    111.155

_space_group_name_H-M_alt    "P 1"
_space_group_IT_number       1

loop_
  _space_group_symop_operation_xyz
  'x, y, z'

loop_
  _atom_site_type_symbol
  _atom_site_label
  _atom_site_symmetry_multiplicity
  _atom_site_fract_x
  _atom_site_fract_y
  _atom_site_fract_z
  _atom_site_occupancy
  Tl  Tl1       1.0  0.72656  0.96739  0.41434  1.0000
  Tl  Tl2       1.0  0.24103  0.96737  0.91413  1.0000
  Tl  Tl3       1.0  0.27344  0.03261  0.58566  1.0000
  Tl  Tl4       1.0  0.75897  0.03263  0.08587  1.0000
  H   H1        1.0  0.84263  0.68740  0.99138  1.0000
  H   H2        1.0  0.84488  0.68706  0.49134  1.0000
  H   H3        1.0  0.15737  0.31260  0.00862  1.0000
  H   H4        1.0  0.15512  0.31294  0.50866  1.0000
  H   H5        1.0  0.32875  0.55980  0.78474  1.0000
  H   H6        1.0  0.23133  0.55994  0.28448  1.0000
  H   H7        1.0  0.67125  0.44020  0.21526  1.0000
  H   H8        1.0  0.76867  0.44006  0.71552  1.0000
  H   H9        1.0  0.34754  0.45782  0.87965  1.0000
  H   H10       1.0  0.11016  0.45781  0.37936  1.0000
  H   H11       1.0  0.65246  0.54218  0.12035  1.0000
  H   H12       1.0  0.88984  0.54219  0.62064  1.0000
  H   H13       1.0  0.53405  0.62682  0.89024  1.0000
  H   H14       1.0  0.09286  0.62666  0.39004  1.0000
  H   H15       1.0  0.46595  0.37318  0.10976  1.0000
  H   H16       1.0  0.90714  0.37334  0.60997  1.0000
  H   H17       1.0  0.50026  0.71773  0.10669  1.0000
  H   H18       1.0  0.21762  0.71810  0.60639  1.0000
  H   H19       1.0  0.49974  0.28227  0.89331  1.0000
  H   H20       1.0  0.78238  0.28191  0.39362  1.0000
  H   H21       1.0  0.02116  0.58012  0.84091  1.0000
  H   H22       1.0  0.55924  0.58016  0.34073  1.0000
  H   H23       1.0  0.97884  0.41988  0.15909  1.0000
  H   H24       1.0  0.44076  0.41984  0.65927  1.0000
  H   H25       1.0  0.23652  0.87011  0.31822  1.0000
  H   H26       1.0  0.63352  0.86984  0.81809  1.0000
  H   H27       1.0  0.76347  0.12989  0.68177  1.0000
  H   H28       1.0  0.36648  0.13016  0.18191  1.0000
  C   C1        1.0  0.98722  0.69362  0.01535  1.0000
  C   C2        1.0  0.70650  0.69340  0.51522  1.0000
  C   C3        1.0  0.01278  0.30638  0.98465  1.0000
  C   C4        1.0  0.29350  0.30660  0.48478  1.0000
  C   C5        1.0  0.95983  0.82435  0.22310  1.0000
  C   C6        1.0  0.86442  0.82386  0.72304  1.0000
  C   C7        1.0  0.04016  0.17565  0.77690  1.0000
  C   C8        1.0  0.13558  0.17614  0.27696  1.0000
  C   C9        1.0  0.27299  0.64015  0.96291  1.0000
  C   C10       1.0  0.36732  0.64028  0.46266  1.0000
  C   C11       1.0  0.72701  0.35985  0.03709  1.0000
  C   C12       1.0  0.63269  0.35972  0.53734  1.0000
  C   C13       1.0  0.37687  0.56792  0.87470  1.0000
  C   C14       1.0  0.19116  0.56796  0.37446  1.0000
  C   C15       1.0  0.62313  0.43208  0.12530  1.0000
  C   C16       1.0  0.80884  0.43204  0.62554  1.0000
  C   C17       1.0  0.25738  0.77273  0.16353  1.0000
  C   C18       1.0  0.51542  0.77272  0.66334  1.0000
  C   C19       1.0  0.74261  0.22726  0.83647  1.0000
  C   C20       1.0  0.48458  0.22728  0.33666  1.0000
  C   C21       1.0  0.35683  0.71080  0.07899  1.0000
  C   C22       1.0  0.35413  0.71102  0.57871  1.0000
  C   C23       1.0  0.64317  0.28920  0.92101  1.0000
  C   C24       1.0  0.64587  0.28898  0.42129  1.0000
  C   C25       1.0  0.06819  0.76309  0.13268  1.0000
  C   C26       1.0  0.69489  0.76280  0.63256  1.0000
  C   C27       1.0  0.93180  0.23691  0.86732  1.0000
  C   C28       1.0  0.30511  0.23720  0.36744  1.0000
  C   C29       1.0  0.08742  0.63407  0.93125  1.0000
  C   C30       1.0  0.54684  0.63406  0.43106  1.0000
  C   C31       1.0  0.91257  0.36593  0.06875  1.0000
  C   C32       1.0  0.45316  0.36594  0.56894  1.0000
  O   O1        1.0  0.04069  0.87900  0.33077  1.0000
  O   O2        1.0  0.83811  0.87847  0.83071  1.0000
  O   O3        1.0  0.95931  0.12100  0.66923  1.0000
  O   O4        1.0  0.16189  0.12153  0.16929  1.0000
  O   O5        1.0  0.79385  0.82074  0.19398  1.0000
  O   O6        1.0  0.02686  0.82019  0.69395  1.0000
  O   O7        1.0  0.20615  0.17925  0.80602  1.0000
  O   O8        1.0  0.97314  0.17981  0.30605  1.0000
  O   O9        1.0  0.34321  0.84125  0.27486  1.0000
  O   O10       1.0  0.49806  0.84119  0.77467  1.0000
  O   O11       1.0  0.65678  0.15874  0.72514  1.0000
  O   O12       1.0  0.50195  0.15881  0.22533  1.0000
