data_image0
_chemical_formula_structural       Tl2H14C16O6
_chemical_formula_sum              "Tl2 H14 C16 O6"
_cell_length_a       4.09497
_cell_length_b       7.54979
_cell_length_c       13.8171
_cell_angle_alpha    92.4826
_cell_angle_beta     86.1568
_cell_angle_gamma    105.1

_space_group_name_H-M_alt    "P 1"
_space_group_IT_number       1

loop_
  _space_group_symop_operation_xyz
  'x, y, z'

loop_
  _atom_site_type_symbol
  _atom_site_label
  _atom_site_symmetry_multiplicity
  _atom_site_fract_x
  _atom_site_fract_y
  _atom_site_fract_z
  _atom_site_occupancy
  Tl  Tl1       1.0  0.04487  0.77119  0.91318  1.0000
  Tl  Tl2       1.0  0.95512  0.22880  0.08682  1.0000
  H   H1        1.0  0.80828  0.76551  0.48046  1.0000
  H   H2        1.0  0.19172  0.23450  0.51953  1.0000
  H   H3        1.0  0.68012  0.05069  0.42914  1.0000
  H   H4        1.0  0.31990  0.94932  0.57085  1.0000
  H   H5        1.0  0.47028  0.06089  0.26378  1.0000
  H   H6        1.0  0.52973  0.93912  0.73622  1.0000
  H   H7        1.0  0.53032  0.53922  0.12238  1.0000
  H   H8        1.0  0.46970  0.46078  0.87762  1.0000
  H   H9        1.0  0.81045  0.44885  0.45179  1.0000
  H   H10       1.0  0.18952  0.55115  0.54821  1.0000
  H   H11       1.0  0.98256  0.41291  0.33282  1.0000
  H   H12       1.0  0.01743  0.58710  0.66719  1.0000
  H   H13       1.0  0.54458  0.32855  0.36108  1.0000
  H   H14       1.0  0.45540  0.67145  0.63892  1.0000
  C   C1        1.0  0.40265  0.80019  0.12146  1.0000
  C   C2        1.0  0.59734  0.19980  0.87854  1.0000
  C   C3        1.0  0.52124  0.79289  0.22029  1.0000
  C   C4        1.0  0.47875  0.20711  0.77971  1.0000
  C   C5        1.0  0.72958  0.77324  0.40713  1.0000
  C   C6        1.0  0.27043  0.22676  0.59287  1.0000
  C   C7        1.0  0.65680  0.93404  0.37851  1.0000
  C   C8        1.0  0.34320  0.06596  0.62149  1.0000
  C   C9        1.0  0.54617  0.94154  0.28634  1.0000
  C   C10       1.0  0.45383  0.05846  0.71366  1.0000
  C   C11       1.0  0.60887  0.63449  0.24932  1.0000
  C   C12       1.0  0.39115  0.36551  0.75068  1.0000
  C   C13       1.0  0.70310  0.62090  0.34442  1.0000
  C   C14       1.0  0.29690  0.37910  0.65558  1.0000
  C   C15       1.0  0.76503  0.44442  0.37440  1.0000
  C   C16       1.0  0.23496  0.55558  0.62561  1.0000
  O   O1        1.0  0.41366  0.66352  0.06145  1.0000
  O   O2        1.0  0.58634  0.33648  0.93856  1.0000
  O   O3        1.0  0.29918  0.93533  0.09768  1.0000
  O   O4        1.0  0.70079  0.06466  0.90232  1.0000
  O   O5        1.0  0.59678  0.49052  0.18597  1.0000
  O   O6        1.0  0.40328  0.50949  0.81403  1.0000
