data_image0
_chemical_formula_structural       Cu4H44C60N8
_chemical_formula_sum              "Cu4 H44 C60 N8"
_cell_length_a       9.11674
_cell_length_b       11.3663
_cell_length_c       12.722
_cell_angle_alpha    116.565
_cell_angle_beta     94.4028
_cell_angle_gamma    90.0279

_space_group_name_H-M_alt    "P 1"
_space_group_IT_number       1

loop_
  _space_group_symop_operation_xyz
  'x, y, z'

loop_
  _atom_site_type_symbol
  _atom_site_label
  _atom_site_symmetry_multiplicity
  _atom_site_fract_x
  _atom_site_fract_y
  _atom_site_fract_z
  _atom_site_occupancy
  Cu  Cu1       1.0  0.76340  0.37400  0.50094  1.0000
  Cu  Cu2       1.0  0.73683  0.87303  0.49903  1.0000
  Cu  Cu3       1.0  0.23660  0.62600  0.49906  1.0000
  Cu  Cu4       1.0  0.26317  0.12697  0.50097  1.0000
  H   H1        1.0  0.03483  0.79410  0.05936  1.0000
  H   H2        1.0  0.46441  0.73470  0.94002  1.0000
  H   H3        1.0  0.96517  0.20590  0.94064  1.0000
  H   H4        1.0  0.53558  0.26530  0.05998  1.0000
  H   H5        1.0  0.90309  0.57689  0.98367  1.0000
  H   H6        1.0  0.59605  0.59361  0.01600  1.0000
  H   H7        1.0  0.09691  0.42311  0.01632  1.0000
  H   H8        1.0  0.40394  0.40639  0.98401  1.0000
  H   H9        1.0  0.82375  0.49468  0.12222  1.0000
  H   H10       1.0  0.67613  0.37298  0.87771  1.0000
  H   H11       1.0  0.17625  0.50532  0.87778  1.0000
  H   H12       1.0  0.32387  0.62702  0.12230  1.0000
  H   H13       1.0  0.07685  0.93514  0.27754  1.0000
  H   H14       1.0  0.42306  0.65724  0.72181  1.0000
  H   H15       1.0  0.92315  0.06486  0.72246  1.0000
  H   H16       1.0  0.57694  0.34277  0.27819  1.0000
  H   H17       1.0  0.99805  0.85335  0.41528  1.0000
  H   H18       1.0  0.50220  0.43765  0.58435  1.0000
  H   H19       1.0  0.00195  0.14665  0.58472  1.0000
  H   H20       1.0  0.49780  0.56236  0.41566  1.0000
  H   H21       1.0  0.78098  0.24452  0.29589  1.0000
  H   H22       1.0  0.71896  0.94866  0.70419  1.0000
  H   H23       1.0  0.21902  0.75548  0.70410  1.0000
  H   H24       1.0  0.28104  0.05134  0.29581  1.0000
  H   H25       1.0  0.11672  0.47868  0.24655  1.0000
  H   H26       1.0  0.38379  0.23243  0.75341  1.0000
  H   H27       1.0  0.88328  0.52131  0.75344  1.0000
  H   H28       1.0  0.61621  0.76757  0.24659  1.0000
  H   H29       1.0  0.23616  0.27653  0.11827  1.0000
  H   H30       1.0  0.26416  0.15904  0.88188  1.0000
  H   H31       1.0  0.76384  0.72346  0.88172  1.0000
  H   H32       1.0  0.73584  0.84096  0.11813  1.0000
  H   H33       1.0  0.90442  0.04251  0.17138  1.0000
  H   H34       1.0  0.59533  0.87175  0.82897  1.0000
  H   H35       1.0  0.09558  0.95748  0.82862  1.0000
  H   H36       1.0  0.40467  0.12825  0.17103  1.0000
  H   H37       1.0  0.13296  0.05567  0.08060  1.0000
  H   H38       1.0  0.36702  0.97601  0.91974  1.0000
  H   H39       1.0  0.86705  0.94432  0.91940  1.0000
  H   H40       1.0  0.63298  0.02399  0.08026  1.0000
  H   H41       1.0  0.71197  0.66921  0.59961  1.0000
  H   H42       1.0  0.78825  0.06935  0.40033  1.0000
  H   H43       1.0  0.28803  0.33079  0.40039  1.0000
  H   H44       1.0  0.21175  0.93066  0.59967  1.0000
  C   C1        1.0  0.99852  0.75979  0.12102  1.0000
  C   C2        1.0  0.50090  0.63876  0.87846  1.0000
  C   C3        1.0  0.00148  0.24021  0.87898  1.0000
  C   C4        1.0  0.49910  0.36124  0.12154  1.0000
  C   C5        1.0  0.92569  0.63690  0.07830  1.0000
  C   C6        1.0  0.57373  0.55884  0.92135  1.0000
  C   C7        1.0  0.07430  0.36310  0.92169  1.0000
  C   C8        1.0  0.42627  0.44116  0.07865  1.0000
  C   C9        1.0  0.88086  0.59059  0.15594  1.0000
  C   C10       1.0  0.61899  0.43494  0.84386  1.0000
  C   C11       1.0  0.11914  0.40941  0.84406  1.0000
  C   C12       1.0  0.38101  0.56506  0.15615  1.0000
  C   C13       1.0  0.02182  0.83838  0.24269  1.0000
  C   C14       1.0  0.47800  0.59548  0.75678  1.0000
  C   C15       1.0  0.97818  0.16162  0.75731  1.0000
  C   C16       1.0  0.52200  0.40453  0.24322  1.0000
  C   C17       1.0  0.97597  0.79302  0.32046  1.0000
  C   C18       1.0  0.52409  0.47232  0.67917  1.0000
  C   C19       1.0  0.02404  0.20698  0.67954  1.0000
  C   C20       1.0  0.47590  0.52768  0.32083  1.0000
  C   C21       1.0  0.90732  0.66744  0.27843  1.0000
  C   C22       1.0  0.59274  0.38901  0.72134  1.0000
  C   C23       1.0  0.09268  0.33256  0.72156  1.0000
  C   C24       1.0  0.40726  0.61099  0.27865  1.0000
  C   C25       1.0  0.86254  0.62081  0.36190  1.0000
  C   C26       1.0  0.63763  0.25884  0.63799  1.0000
  C   C27       1.0  0.13746  0.37918  0.63809  1.0000
  C   C28       1.0  0.36237  0.74117  0.36201  1.0000
  C   C29       1.0  0.87163  0.49783  0.36138  1.0000
  C   C30       1.0  0.62861  0.13638  0.63855  1.0000
  C   C31       1.0  0.12837  0.50217  0.63862  1.0000
  C   C32       1.0  0.37139  0.86362  0.36145  1.0000
  C   C33       1.0  0.88240  0.25249  0.25843  1.0000
  C   C34       1.0  0.61767  0.99428  0.74171  1.0000
  C   C35       1.0  0.11760  0.74751  0.74156  1.0000
  C   C36       1.0  0.38233  0.00572  0.25829  1.0000
  C   C37       1.0  0.93987  0.37749  0.28156  1.0000
  C   C38       1.0  0.56039  0.09605  0.71845  1.0000
  C   C39       1.0  0.06012  0.62250  0.71843  1.0000
  C   C40       1.0  0.43961  0.90396  0.28155  1.0000
  C   C41       1.0  0.06839  0.38328  0.22908  1.0000
  C   C42       1.0  0.43203  0.15460  0.77101  1.0000
  C   C43       1.0  0.93161  0.61672  0.77092  1.0000
  C   C44       1.0  0.56797  0.84540  0.22899  1.0000
  C   C45       1.0  0.13664  0.26861  0.15725  1.0000
  C   C46       1.0  0.36361  0.11204  0.84289  1.0000
  C   C47       1.0  0.86336  0.73139  0.84274  1.0000
  C   C48       1.0  0.63639  0.88796  0.15712  1.0000
  C   C49       1.0  0.95141  0.13787  0.18741  1.0000
  C   C50       1.0  0.54855  0.95106  0.81290  1.0000
  C   C51       1.0  0.04860  0.86213  0.81259  1.0000
  C   C52       1.0  0.45145  0.04894  0.18710  1.0000
  C   C53       1.0  0.07926  0.14532  0.13651  1.0000
  C   C54       1.0  0.42080  0.00960  0.86380  1.0000
  C   C55       1.0  0.92074  0.85468  0.86349  1.0000
  C   C56       1.0  0.57920  0.99040  0.13621  1.0000
  C   C57       1.0  0.76424  0.63136  0.51754  1.0000
  C   C58       1.0  0.73594  0.11366  0.48237  1.0000
  C   C59       1.0  0.23576  0.36864  0.48246  1.0000
  C   C60       1.0  0.26406  0.88634  0.51763  1.0000
  N   N1        1.0  0.79455  0.70367  0.46148  1.0000
  N   N2        1.0  0.70563  0.24207  0.53842  1.0000
  N   N3        1.0  0.20545  0.29633  0.53852  1.0000
  N   N4        1.0  0.29437  0.75794  0.46159  1.0000
  N   N5        1.0  0.80764  0.50687  0.46045  1.0000
  N   N6        1.0  0.69257  0.04630  0.53949  1.0000
  N   N7        1.0  0.19236  0.49313  0.53955  1.0000
  N   N8        1.0  0.30743  0.95370  0.46051  1.0000
