data_image0
_chemical_formula_structural       Co2H56C72N8O8
_chemical_formula_sum              "Co2 H56 C72 N8 O8"
_cell_length_a       9.09769
_cell_length_b       11.0448
_cell_length_c       16.3756
_cell_angle_alpha    71.51
_cell_angle_beta     76.5824
_cell_angle_gamma    81.2981

_space_group_name_H-M_alt    "P 1"
_space_group_IT_number       1

loop_
  _space_group_symop_operation_xyz
  'x, y, z'

loop_
  _atom_site_type_symbol
  _atom_site_label
  _atom_site_symmetry_multiplicity
  _atom_site_fract_x
  _atom_site_fract_y
  _atom_site_fract_z
  _atom_site_occupancy
  Co  Co1       1.0  0.47185  0.63750  0.24969  1.0000
  Co  Co2       1.0  0.52815  0.36250  0.75031  1.0000
  H   H1        1.0  0.61866  0.52526  0.39275  1.0000
  H   H2        1.0  0.38134  0.47474  0.60725  1.0000
  H   H3        1.0  0.79993  0.44721  0.41065  1.0000
  H   H4        1.0  0.20007  0.55279  0.58936  1.0000
  H   H5        1.0  0.67158  0.36864  0.38233  1.0000
  H   H6        1.0  0.32842  0.63136  0.61767  1.0000
  H   H7        1.0  0.65958  0.74850  0.04563  1.0000
  H   H8        1.0  0.34042  0.25149  0.95437  1.0000
  H   H9        1.0  0.88037  0.77137  0.91904  1.0000
  H   H10       1.0  0.11964  0.22863  0.08096  1.0000
  H   H11       1.0  0.13404  0.66524  0.94118  1.0000
  H   H12       1.0  0.86597  0.33476  0.05882  1.0000
  H   H13       1.0  0.17634  0.52615  0.08745  1.0000
  H   H14       1.0  0.82366  0.47384  0.91255  1.0000
  H   H15       1.0  0.03127  0.41942  0.34277  1.0000
  H   H16       1.0  0.96873  0.58057  0.65723  1.0000
  H   H17       1.0  0.14616  0.42856  0.23907  1.0000
  H   H18       1.0  0.85384  0.57144  0.76094  1.0000
  H   H19       1.0  0.86736  0.31260  0.19693  1.0000
  H   H20       1.0  0.13265  0.68740  0.80308  1.0000
  H   H21       1.0  0.85081  0.08873  0.20288  1.0000
  H   H22       1.0  0.14919  0.91127  0.79712  1.0000
  H   H23       1.0  0.98546  0.90934  0.30373  1.0000
  H   H24       1.0  0.01454  0.09066  0.69627  1.0000
  H   H25       1.0  0.13161  0.95953  0.39789  1.0000
  H   H26       1.0  0.86839  0.04047  0.60211  1.0000
  H   H27       1.0  0.12461  0.23098  0.45364  1.0000
  H   H28       1.0  0.87539  0.76902  0.54636  1.0000
  H   H29       1.0  0.24266  0.09493  0.43749  1.0000
  H   H30       1.0  0.75735  0.90507  0.56251  1.0000
  H   H31       1.0  0.30348  0.52342  0.42598  1.0000
  H   H32       1.0  0.69652  0.47658  0.57402  1.0000
  H   H33       1.0  0.29974  0.36033  0.49438  1.0000
  H   H34       1.0  0.70026  0.63967  0.50562  1.0000
  H   H35       1.0  0.13873  0.44050  0.44956  1.0000
  H   H36       1.0  0.86127  0.55950  0.55044  1.0000
  H   H37       1.0  0.35329  0.08174  0.25261  1.0000
  H   H38       1.0  0.64670  0.91826  0.74739  1.0000
  H   H39       1.0  0.49377  0.13480  0.09959  1.0000
  H   H40       1.0  0.50622  0.86520  0.90041  1.0000
  H   H41       1.0  0.59845  0.34455  0.02460  1.0000
  H   H42       1.0  0.40154  0.65545  0.97540  1.0000
  H   H43       1.0  0.57258  0.50866  0.10441  1.0000
  H   H44       1.0  0.42741  0.49134  0.89559  1.0000
  H   H45       1.0  0.29322  0.75803  0.48372  1.0000
  H   H46       1.0  0.70679  0.24197  0.51628  1.0000
  H   H47       1.0  0.26039  0.85764  0.60516  1.0000
  H   H48       1.0  0.73961  0.14237  0.39484  1.0000
  H   H49       1.0  0.65368  0.99234  0.33252  1.0000
  H   H50       1.0  0.34633  0.00767  0.66747  1.0000
  H   H51       1.0  0.94810  0.83447  0.17080  1.0000
  H   H52       1.0  0.05190  0.16553  0.82920  1.0000
  H   H53       1.0  0.71977  0.94420  0.11093  1.0000
  H   H54       1.0  0.28023  0.05580  0.88906  1.0000
  H   H55       1.0  0.39185  0.90994  0.01500  1.0000
  H   H56       1.0  0.60815  0.09006  0.98500  1.0000
  C   C1        1.0  0.71377  0.46193  0.37059  1.0000
  C   C2        1.0  0.28623  0.53807  0.62942  1.0000
  C   C3        1.0  0.77586  0.51837  0.27608  1.0000
  C   C4        1.0  0.22414  0.48163  0.72392  1.0000
  C   C5        1.0  0.79563  0.62457  0.13673  1.0000
  C   C6        1.0  0.20437  0.37542  0.86327  1.0000
  C   C7        1.0  0.77101  0.69990  0.05390  1.0000
  C   C8        1.0  0.22899  0.30010  0.94610  1.0000
  C   C9        1.0  0.89495  0.71208  0.98439  1.0000
  C   C10       1.0  0.10505  0.28792  0.01561  1.0000
  C   C11       1.0  0.03916  0.65159  0.99685  1.0000
  C   C12       1.0  0.96084  0.34841  0.00315  1.0000
  C   C13       1.0  0.06475  0.57402  0.07869  1.0000
  C   C14       1.0  0.93526  0.42597  0.92131  1.0000
  C   C15       1.0  0.94017  0.56134  0.14809  1.0000
  C   C16       1.0  0.05982  0.43865  0.85192  1.0000
  C   C17       1.0  0.03425  0.40356  0.27948  1.0000
  C   C18       1.0  0.96575  0.59643  0.72052  1.0000
  C   C19       1.0  0.01261  0.26472  0.29146  1.0000
  C   C20       1.0  0.98739  0.73528  0.70854  1.0000
  C   C21       1.0  0.92570  0.23514  0.24121  1.0000
  C   C22       1.0  0.07431  0.76485  0.75879  1.0000
  C   C23       1.0  0.91501  0.10854  0.24511  1.0000
  C   C24       1.0  0.08499  0.89146  0.75489  1.0000
  C   C25       1.0  0.98859  0.00850  0.30192  1.0000
  C   C26       1.0  0.01141  0.99150  0.69808  1.0000
  C   C27       1.0  0.07157  0.03692  0.35430  1.0000
  C   C28       1.0  0.92843  0.96307  0.64570  1.0000
  C   C29       1.0  0.08608  0.16364  0.34945  1.0000
  C   C30       1.0  0.91392  0.83636  0.65055  1.0000
  C   C31       1.0  0.18869  0.18690  0.40304  1.0000
  C   C32       1.0  0.81130  0.81310  0.59697  1.0000
  C   C33       1.0  0.26367  0.42990  0.43620  1.0000
  C   C34       1.0  0.73633  0.57010  0.56380  1.0000
  C   C35       1.0  0.32632  0.38849  0.35632  1.0000
  C   C36       1.0  0.67368  0.61151  0.64368  1.0000
  C   C37       1.0  0.38265  0.26755  0.26471  1.0000
  C   C38       1.0  0.61735  0.73245  0.73529  1.0000
  C   C39       1.0  0.39880  0.17444  0.22142  1.0000
  C   C40       1.0  0.60119  0.82556  0.77858  1.0000
  C   C41       1.0  0.47838  0.20544  0.13501  1.0000
  C   C42       1.0  0.52161  0.79457  0.86499  1.0000
  C   C43       1.0  0.53947  0.32455  0.09292  1.0000
  C   C44       1.0  0.46052  0.67545  0.90707  1.0000
  C   C45       1.0  0.52591  0.41630  0.13684  1.0000
  C   C46       1.0  0.47408  0.58370  0.86316  1.0000
  C   C47       1.0  0.44716  0.38590  0.22417  1.0000
  C   C48       1.0  0.55284  0.61411  0.77583  1.0000
  C   C49       1.0  0.47739  0.86855  0.40208  1.0000
  C   C50       1.0  0.52261  0.13145  0.59791  1.0000
  C   C51       1.0  0.36537  0.83077  0.47947  1.0000
  C   C52       1.0  0.63463  0.16923  0.52053  1.0000
  C   C53       1.0  0.34802  0.88541  0.54628  1.0000
  C   C54       1.0  0.65199  0.11460  0.45372  1.0000
  C   C55       1.0  0.44359  0.98028  0.53935  1.0000
  C   C56       1.0  0.55643  0.01973  0.46064  1.0000
  C   C57       1.0  0.56980  0.96260  0.39289  1.0000
  C   C58       1.0  0.43021  0.03741  0.60710  1.0000
  C   C59       1.0  0.49539  0.80746  0.33029  1.0000
  C   C60       1.0  0.50461  0.19254  0.66971  1.0000
  C   C61       1.0  0.17573  0.86193  0.09924  1.0000
  C   C62       1.0  0.82427  0.13807  0.90076  1.0000
  C   C63       1.0  0.01971  0.88466  0.10958  1.0000
  C   C64       1.0  0.98029  0.11535  0.89042  1.0000
  C   C65       1.0  0.95219  0.96936  0.04080  1.0000
  C   C66       1.0  0.04781  0.03064  0.95920  1.0000
  C   C67       1.0  0.79221  0.99263  0.04938  1.0000
  C   C68       1.0  0.20779  0.00737  0.95062  1.0000
  C   C69       1.0  0.26955  0.92644  0.01950  1.0000
  C   C70       1.0  0.73045  0.07356  0.98049  1.0000
  C   C71       1.0  0.24618  0.76703  0.17022  1.0000
  C   C72       1.0  0.75383  0.23297  0.82978  1.0000
  N   N1        1.0  0.69670  0.59597  0.21788  1.0000
  N   N2        1.0  0.30330  0.40403  0.78212  1.0000
  N   N3        1.0  0.92309  0.49460  0.23700  1.0000
  N   N4        1.0  0.07691  0.50540  0.76300  1.0000
  N   N5        1.0  0.41122  0.45805  0.28353  1.0000
  N   N6        1.0  0.58877  0.54195  0.71646  1.0000
  N   N7        1.0  0.30512  0.27251  0.34784  1.0000
  N   N8        1.0  0.69488  0.72749  0.65216  1.0000
  O   O1        1.0  0.43428  0.69866  0.35354  1.0000
  O   O2        1.0  0.56572  0.30134  0.64647  1.0000
  O   O3        1.0  0.56465  0.85851  0.25450  1.0000
  O   O4        1.0  0.43535  0.14148  0.74550  1.0000
  O   O5        1.0  0.17071  0.71653  0.24489  1.0000
  O   O6        1.0  0.82930  0.28347  0.75511  1.0000
  O   O7        1.0  0.39277  0.74083  0.14814  1.0000
  O   O8        1.0  0.60724  0.25917  0.85185  1.0000
