data_image0
_chemical_formula_structural       Cd2H40C52N8O16
_chemical_formula_sum              "Cd2 H40 C52 N8 O16"
_cell_length_a       10.3972
_cell_length_b       11.3482
_cell_length_c       11.5524
_cell_angle_alpha    97.8415
_cell_angle_beta     108.741
_cell_angle_gamma    103.306

_space_group_name_H-M_alt    "P 1"
_space_group_IT_number       1

loop_
  _space_group_symop_operation_xyz
  'x, y, z'

loop_
  _atom_site_type_symbol
  _atom_site_label
  _atom_site_symmetry_multiplicity
  _atom_site_fract_x
  _atom_site_fract_y
  _atom_site_fract_z
  _atom_site_occupancy
  Cd  Cd1       1.0  0.64353  0.31210  0.20593  1.0000
  Cd  Cd2       1.0  0.35647  0.68790  0.79407  1.0000
  H   H1        1.0  0.04653  0.01185  0.60802  1.0000
  H   H2        1.0  0.95347  0.98815  0.39198  1.0000
  H   H3        1.0  0.13884  0.66465  0.45615  1.0000
  H   H4        1.0  0.86116  0.33534  0.54385  1.0000
  H   H5        1.0  0.33091  0.62165  0.08921  1.0000
  H   H6        1.0  0.66909  0.37835  0.91080  1.0000
  H   H7        1.0  0.32182  0.13010  0.39256  1.0000
  H   H8        1.0  0.67819  0.86990  0.60744  1.0000
  H   H9        1.0  0.41025  0.04811  0.75887  1.0000
  H   H10       1.0  0.58974  0.95189  0.24112  1.0000
  H   H11       1.0  0.75388  0.18940  0.63459  1.0000
  H   H12       1.0  0.24612  0.81060  0.36541  1.0000
  H   H13       1.0  0.76083  0.02736  0.95352  1.0000
  H   H14       1.0  0.23917  0.97264  0.04648  1.0000
  H   H15       1.0  0.57484  0.97618  0.86713  1.0000
  H   H16       1.0  0.42516  0.02381  0.13287  1.0000
  H   H17       1.0  0.90292  0.18843  0.19069  1.0000
  H   H18       1.0  0.09708  0.81157  0.80931  1.0000
  H   H19       1.0  0.14450  0.16523  0.21992  1.0000
  H   H20       1.0  0.85550  0.83477  0.78008  1.0000
  H   H21       1.0  0.35992  0.33913  0.33368  1.0000
  H   H22       1.0  0.64008  0.66087  0.66632  1.0000
  H   H23       1.0  0.34646  0.54732  0.42649  1.0000
  H   H24       1.0  0.65354  0.45268  0.57351  1.0000
  H   H25       1.0  0.87068  0.67185  0.46495  1.0000
  H   H26       1.0  0.12933  0.32815  0.53506  1.0000
  H   H27       1.0  0.85488  0.70189  0.31370  1.0000
  H   H28       1.0  0.14512  0.29811  0.68630  1.0000
  H   H29       1.0  0.64372  0.67576  0.19777  1.0000
  H   H30       1.0  0.35628  0.32424  0.80224  1.0000
  H   H31       1.0  0.56187  0.67068  0.31159  1.0000
  H   H32       1.0  0.43813  0.32931  0.68841  1.0000
  H   H33       1.0  0.04700  0.45617  0.92800  1.0000
  H   H34       1.0  0.95300  0.54383  0.07201  1.0000
  H   H35       1.0  0.93158  0.23117  0.82153  1.0000
  H   H36       1.0  0.06842  0.76883  0.17847  1.0000
  H   H37       1.0  0.06806  0.07954  0.84363  1.0000
  H   H38       1.0  0.93194  0.92046  0.15636  1.0000
  H   H39       1.0  0.32526  0.14355  0.98081  1.0000
  H   H40       1.0  0.67474  0.85645  0.01919  1.0000
  C   C1        1.0  0.54408  0.16955  0.50479  1.0000
  C   C2        1.0  0.45593  0.83046  0.49521  1.0000
  C   C3        1.0  0.39876  0.13001  0.48205  1.0000
  C   C4        1.0  0.60123  0.86999  0.51795  1.0000
  C   C5        1.0  0.35289  0.08785  0.57412  1.0000
  C   C6        1.0  0.64711  0.91216  0.42588  1.0000
  C   C7        1.0  0.44979  0.08358  0.68995  1.0000
  C   C8        1.0  0.55021  0.91641  0.31004  1.0000
  C   C9        1.0  0.59475  0.11963  0.70972  1.0000
  C   C10       1.0  0.40525  0.88037  0.29028  1.0000
  C   C11       1.0  0.64093  0.16436  0.61823  1.0000
  C   C12       1.0  0.35907  0.83564  0.38177  1.0000
  C   C13       1.0  0.59513  0.21122  0.40560  1.0000
  C   C14       1.0  0.40487  0.78878  0.59440  1.0000
  C   C15       1.0  0.19753  0.04465  0.54297  1.0000
  C   C16       1.0  0.80247  0.95535  0.45702  1.0000
  C   C17       1.0  0.66888  0.05822  0.90651  1.0000
  C   C18       1.0  0.33112  0.94178  0.09349  1.0000
  C   C19       1.0  0.65024  0.14970  0.00436  1.0000
  C   C20       1.0  0.34977  0.85030  0.99564  1.0000
  C   C21       1.0  0.99039  0.38341  0.28716  1.0000
  C   C22       1.0  0.00961  0.61659  0.71284  1.0000
  C   C23       1.0  0.99852  0.26650  0.23872  1.0000
  C   C24       1.0  0.00148  0.73350  0.76128  1.0000
  C   C25       1.0  0.13353  0.25439  0.25722  1.0000
  C   C26       1.0  0.86646  0.74561  0.74278  1.0000
  C   C27       1.0  0.25745  0.35443  0.32316  1.0000
  C   C28       1.0  0.74255  0.64557  0.67684  1.0000
  C   C29       1.0  0.25080  0.47043  0.37412  1.0000
  C   C30       1.0  0.74920  0.52956  0.62588  1.0000
  C   C31       1.0  0.11535  0.48296  0.35493  1.0000
  C   C32       1.0  0.88465  0.51704  0.64507  1.0000
  C   C33       1.0  0.92556  0.54370  0.34744  1.0000
  C   C34       1.0  0.07444  0.45630  0.65257  1.0000
  C   C35       1.0  0.83782  0.62762  0.36456  1.0000
  C   C36       1.0  0.16218  0.37238  0.63544  1.0000
  C   C37       1.0  0.59498  0.61360  0.24777  1.0000
  C   C38       1.0  0.40502  0.38640  0.75223  1.0000
  C   C39       1.0  0.46843  0.51378  0.15551  1.0000
  C   C40       1.0  0.53157  0.48622  0.84449  1.0000
  C   C41       1.0  0.24906  0.42240  0.02006  1.0000
  C   C42       1.0  0.75094  0.57760  0.97994  1.0000
  C   C43       1.0  0.10656  0.38845  0.94110  1.0000
  C   C44       1.0  0.89344  0.61155  0.05890  1.0000
  C   C45       1.0  0.04378  0.26320  0.88045  1.0000
  C   C46       1.0  0.95622  0.73680  0.11955  1.0000
  C   C47       1.0  0.12138  0.17589  0.89497  1.0000
  C   C48       1.0  0.87862  0.82411  0.10503  1.0000
  C   C49       1.0  0.26436  0.21032  0.97206  1.0000
  C   C50       1.0  0.73564  0.78968  0.02794  1.0000
  C   C51       1.0  0.32733  0.33480  0.03671  1.0000
  C   C52       1.0  0.67267  0.66520  0.96328  1.0000
  N   N1        1.0  0.87364  0.42548  0.28362  1.0000
  N   N2        1.0  0.12636  0.57452  0.71638  1.0000
  N   N3        1.0  0.06965  0.58225  0.39198  1.0000
  N   N4        1.0  0.93035  0.41775  0.60803  1.0000
  N   N5        1.0  0.46442  0.39583  0.12184  1.0000
  N   N6        1.0  0.53558  0.60418  0.87816  1.0000
  N   N7        1.0  0.34197  0.53441  0.09766  1.0000
  N   N8        1.0  0.65803  0.46558  0.90234  1.0000
  O   O1        1.0  0.72696  0.23850  0.42379  1.0000
  O   O2        1.0  0.27304  0.76150  0.57621  1.0000
  O   O3        1.0  0.50197  0.21807  0.30480  1.0000
  O   O4        1.0  0.49804  0.78193  0.69520  1.0000
  O   O5        1.0  0.11338  0.01895  0.43140  1.0000
  O   O6        1.0  0.88662  0.98107  0.56860  1.0000
  O   O7        1.0  0.15671  0.03818  0.63942  1.0000
  O   O8        1.0  0.84329  0.96182  0.36057  1.0000
  O   O9        1.0  0.70167  0.11111  0.81090  1.0000
  O   O10       1.0  0.29833  0.88889  0.18910  1.0000
  O   O11       1.0  0.64691  0.25763  0.98822  1.0000
  O   O12       1.0  0.35308  0.74237  0.01178  1.0000
  O   O13       1.0  0.64215  0.11330  0.10187  1.0000
  O   O14       1.0  0.35785  0.88670  0.89813  1.0000
  O   O15       1.0  0.69271  0.55507  0.31560  1.0000
  O   O16       1.0  0.30729  0.44492  0.68440  1.0000
