data_image0
_chemical_formula_structural       Na4H72C44S4N4O8
_chemical_formula_sum              "Na4 H72 C44 S4 N4 O8"
_cell_length_a       7.29156
_cell_length_b       11.5454
_cell_length_c       15.7187
_cell_angle_alpha    89.9998
_cell_angle_beta     90.0009
_cell_angle_gamma    109.401

_space_group_name_H-M_alt    "P 1"
_space_group_IT_number       1

loop_
  _space_group_symop_operation_xyz
  'x, y, z'

loop_
  _atom_site_type_symbol
  _atom_site_label
  _atom_site_symmetry_multiplicity
  _atom_site_fract_x
  _atom_site_fract_y
  _atom_site_fract_z
  _atom_site_occupancy
  Na  Na1       1.0  0.76729  0.48563  0.97765  1.0000
  Na  Na2       1.0  0.23271  0.01437  0.47765  1.0000
  Na  Na3       1.0  0.23270  0.51436  0.02235  1.0000
  Na  Na4       1.0  0.76731  0.98564  0.52235  1.0000
  H   H1        1.0  0.79345  0.00652  0.02280  1.0000
  H   H2        1.0  0.20656  0.49347  0.52280  1.0000
  H   H3        1.0  0.20656  0.99346  0.97720  1.0000
  H   H4        1.0  0.79344  0.50653  0.47721  1.0000
  H   H5        1.0  0.83652  0.94811  0.17177  1.0000
  H   H6        1.0  0.16349  0.55190  0.67176  1.0000
  H   H7        1.0  0.16350  0.05189  0.82824  1.0000
  H   H8        1.0  0.83652  0.44810  0.32825  1.0000
  H   H9        1.0  0.92460  0.11185  0.28484  1.0000
  H   H10       1.0  0.07539  0.38816  0.78484  1.0000
  H   H11       1.0  0.07540  0.88815  0.71516  1.0000
  H   H12       1.0  0.92463  0.61184  0.21517  1.0000
  H   H13       1.0  0.95989  0.32567  0.24870  1.0000
  H   H14       1.0  0.04010  0.17433  0.74869  1.0000
  H   H15       1.0  0.04009  0.67433  0.75130  1.0000
  H   H16       1.0  0.95994  0.82566  0.25130  1.0000
  H   H17       1.0  0.84805  0.05768  0.88854  1.0000
  H   H18       1.0  0.15196  0.44233  0.38855  1.0000
  H   H19       1.0  0.15196  0.94232  0.11145  1.0000
  H   H20       1.0  0.84804  0.55768  0.61145  1.0000
  H   H21       1.0  0.73637  0.13803  0.82070  1.0000
  H   H22       1.0  0.26365  0.36198  0.32070  1.0000
  H   H23       1.0  0.26365  0.86198  0.17930  1.0000
  H   H24       1.0  0.73635  0.63801  0.67930  1.0000
  H   H25       1.0  0.60226  0.05241  0.90869  1.0000
  H   H26       1.0  0.39775  0.44759  0.40869  1.0000
  H   H27       1.0  0.39774  0.94757  0.09130  1.0000
  H   H28       1.0  0.60226  0.55242  0.59130  1.0000
  H   H29       1.0  0.56017  0.40105  0.71388  1.0000
  H   H30       1.0  0.43980  0.09895  0.21389  1.0000
  H   H31       1.0  0.43981  0.59895  0.28611  1.0000
  H   H32       1.0  0.56020  0.90105  0.78612  1.0000
  H   H33       1.0  0.46533  0.29944  0.80077  1.0000
  H   H34       1.0  0.53465  0.20056  0.30078  1.0000
  H   H35       1.0  0.53467  0.70056  0.19922  1.0000
  H   H36       1.0  0.46534  0.79944  0.69922  1.0000
  H   H37       1.0  0.72033  0.34537  0.77549  1.0000
  H   H38       1.0  0.27964  0.15464  0.27549  1.0000
  H   H39       1.0  0.27967  0.65464  0.22450  1.0000
  H   H40       1.0  0.72034  0.84536  0.72451  1.0000
  H   H41       1.0  0.36053  0.47601  0.86486  1.0000
  H   H42       1.0  0.63946  0.02400  0.36486  1.0000
  H   H43       1.0  0.63947  0.52400  0.13515  1.0000
  H   H44       1.0  0.36053  0.97600  0.63515  1.0000
  H   H45       1.0  0.45622  0.55246  0.76870  1.0000
  H   H46       1.0  0.54376  0.94756  0.26870  1.0000
  H   H47       1.0  0.54378  0.44755  0.23130  1.0000
  H   H48       1.0  0.45623  0.05244  0.73130  1.0000
  H   H49       1.0  0.71246  0.71370  0.85284  1.0000
  H   H50       1.0  0.28752  0.78630  0.35284  1.0000
  H   H51       1.0  0.28754  0.28629  0.14716  1.0000
  H   H52       1.0  0.71246  0.21370  0.64716  1.0000
  H   H53       1.0  0.46492  0.70655  0.87242  1.0000
  H   H54       1.0  0.53507  0.79346  0.37242  1.0000
  H   H55       1.0  0.53509  0.29346  0.12758  1.0000
  H   H56       1.0  0.46492  0.20654  0.62758  1.0000
  H   H57       1.0  0.55624  0.79781  0.01450  1.0000
  H   H58       1.0  0.44375  0.70219  0.51451  1.0000
  H   H59       1.0  0.44376  0.20219  0.98549  1.0000
  H   H60       1.0  0.55624  0.29781  0.48550  1.0000
  H   H61       1.0  0.80137  0.81323  0.98173  1.0000
  H   H62       1.0  0.19863  0.68678  0.48173  1.0000
  H   H63       1.0  0.19863  0.18678  0.01827  1.0000
  H   H64       1.0  0.80137  0.31322  0.51828  1.0000
  H   H65       1.0  0.70442  0.73399  0.07783  1.0000
  H   H66       1.0  0.29557  0.76601  0.57784  1.0000
  H   H67       1.0  0.29558  0.26602  0.92217  1.0000
  H   H68       1.0  0.70442  0.23399  0.42217  1.0000
  H   H69       1.0  0.95218  0.46441  0.14378  1.0000
  H   H70       1.0  0.04783  0.03559  0.64378  1.0000
  H   H71       1.0  0.04782  0.53558  0.85622  1.0000
  H   H72       1.0  0.95219  0.96441  0.35622  1.0000
  C   C1        1.0  0.89638  0.29330  0.11483  1.0000
  C   C2        1.0  0.10361  0.20670  0.61483  1.0000
  C   C3        1.0  0.10361  0.70669  0.88517  1.0000
  C   C4        1.0  0.89639  0.79330  0.38517  1.0000
  C   C5        1.0  0.84893  0.19749  0.05151  1.0000
  C   C6        1.0  0.15109  0.30251  0.55151  1.0000
  C   C7        1.0  0.15108  0.80250  0.94849  1.0000
  C   C8        1.0  0.84893  0.69750  0.44849  1.0000
  C   C9        1.0  0.82809  0.07643  0.07237  1.0000
  C   C10       1.0  0.17193  0.42357  0.57236  1.0000
  C   C11       1.0  0.17192  0.92356  0.92764  1.0000
  C   C12       1.0  0.82808  0.57643  0.42764  1.0000
  C   C13       1.0  0.85488  0.04333  0.15626  1.0000
  C   C14       1.0  0.14513  0.45667  0.65625  1.0000
  C   C15       1.0  0.14513  0.95667  0.84375  1.0000
  C   C16       1.0  0.85486  0.54332  0.34376  1.0000
  C   C17       1.0  0.90318  0.13465  0.21898  1.0000
  C   C18       1.0  0.09680  0.36536  0.71897  1.0000
  C   C19       1.0  0.09681  0.86535  0.78102  1.0000
  C   C20       1.0  0.90321  0.63464  0.28104  1.0000
  C   C21       1.0  0.92172  0.25542  0.19913  1.0000
  C   C22       1.0  0.07827  0.24460  0.69912  1.0000
  C   C23       1.0  0.07827  0.74459  0.80087  1.0000
  C   C24       1.0  0.92175  0.75541  0.30087  1.0000
  C   C25       1.0  0.74685  0.10999  0.88667  1.0000
  C   C26       1.0  0.25316  0.39001  0.38668  1.0000
  C   C27       1.0  0.25315  0.89000  0.11332  1.0000
  C   C28       1.0  0.74685  0.61000  0.61332  1.0000
  C   C29       1.0  0.59271  0.37530  0.77818  1.0000
  C   C30       1.0  0.40727  0.12470  0.27818  1.0000
  C   C31       1.0  0.40729  0.62470  0.22182  1.0000
  C   C32       1.0  0.59272  0.87530  0.72182  1.0000
  C   C33       1.0  0.49485  0.53649  0.83451  1.0000
  C   C34       1.0  0.50513  0.96352  0.33452  1.0000
  C   C35       1.0  0.50514  0.46352  0.16548  1.0000
  C   C36       1.0  0.49486  0.03648  0.66548  1.0000
  C   C37       1.0  0.57093  0.65785  0.87988  1.0000
  C   C38       1.0  0.42907  0.84216  0.37989  1.0000
  C   C39       1.0  0.42908  0.34215  0.12011  1.0000
  C   C40       1.0  0.57093  0.15785  0.62012  1.0000
  C   C41       1.0  0.66845  0.75325  0.01285  1.0000
  C   C42       1.0  0.33155  0.74676  0.51286  1.0000
  C   C43       1.0  0.33155  0.24675  0.98714  1.0000
  C   C44       1.0  0.66845  0.25325  0.48715  1.0000
  S   S1        1.0  0.83555  0.25016  0.94702  1.0000
  S   S2        1.0  0.16446  0.24984  0.44701  1.0000
  S   S3        1.0  0.16445  0.74983  0.05299  1.0000
  S   S4        1.0  0.83553  0.75017  0.55299  1.0000
  N   N1        1.0  0.91683  0.40942  0.09089  1.0000
  N   N2        1.0  0.08316  0.09057  0.59089  1.0000
  N   N3        1.0  0.08317  0.59057  0.90910  1.0000
  N   N4        1.0  0.91683  0.90943  0.40910  1.0000
  O   O1        1.0  0.64040  0.47845  0.83409  1.0000
  O   O2        1.0  0.35959  0.02155  0.33409  1.0000
  O   O3        1.0  0.35960  0.52155  0.16591  1.0000
  O   O4        1.0  0.64040  0.97845  0.66591  1.0000
  O   O5        1.0  0.59572  0.63791  0.96904  1.0000
  O   O6        1.0  0.40428  0.86209  0.46905  1.0000
  O   O7        1.0  0.40429  0.36209  0.03096  1.0000
  O   O8        1.0  0.59571  0.13791  0.53096  1.0000
