data_image0
_chemical_formula_structural       Zn4H40C48S4N16O20
_chemical_formula_sum              "Zn4 H40 C48 S4 N16 O20"
_cell_length_a       6.68864
_cell_length_b       14.8609
_cell_length_c       16.5219
_cell_angle_alpha    90.0005
_cell_angle_beta     97.9108
_cell_angle_gamma    90.0007

_space_group_name_H-M_alt    "P 1"
_space_group_IT_number       1

loop_
  _space_group_symop_operation_xyz
  'x, y, z'

loop_
  _atom_site_type_symbol
  _atom_site_label
  _atom_site_symmetry_multiplicity
  _atom_site_fract_x
  _atom_site_fract_y
  _atom_site_fract_z
  _atom_site_occupancy
  Zn  Zn1       1.0  0.13076  0.17753  0.58829  1.0000
  Zn  Zn2       1.0  0.63075  0.32247  0.08828  1.0000
  Zn  Zn3       1.0  0.86923  0.82247  0.41171  1.0000
  Zn  Zn4       1.0  0.36925  0.67754  0.91172  1.0000
  H   H1        1.0  0.00557  0.34242  0.47075  1.0000
  H   H2        1.0  0.50553  0.15758  0.97075  1.0000
  H   H3        1.0  0.99444  0.65758  0.52925  1.0000
  H   H4        1.0  0.49445  0.84242  0.02926  1.0000
  H   H5        1.0  0.00719  0.37367  0.32057  1.0000
  H   H6        1.0  0.50717  0.12633  0.82056  1.0000
  H   H7        1.0  0.99279  0.62633  0.67943  1.0000
  H   H8        1.0  0.49281  0.87367  0.17944  1.0000
  H   H9        1.0  0.10760  0.25094  0.23158  1.0000
  H   H10       1.0  0.60761  0.24905  0.73157  1.0000
  H   H11       1.0  0.89239  0.74906  0.76842  1.0000
  H   H12       1.0  0.39240  0.75094  0.26843  1.0000
  H   H13       1.0  0.20529  0.10000  0.29584  1.0000
  H   H14       1.0  0.70528  0.40000  0.79584  1.0000
  H   H15       1.0  0.79473  0.90000  0.70416  1.0000
  H   H16       1.0  0.29472  0.60000  0.20416  1.0000
  H   H17       1.0  0.25908  0.00023  0.42336  1.0000
  H   H18       1.0  0.75908  0.49977  0.92336  1.0000
  H   H19       1.0  0.74092  0.99977  0.57664  1.0000
  H   H20       1.0  0.24092  0.50024  0.07664  1.0000
  H   H21       1.0  0.42495  0.83010  0.64420  1.0000
  H   H22       1.0  0.92495  0.66990  0.14420  1.0000
  H   H23       1.0  0.57506  0.16990  0.35580  1.0000
  H   H24       1.0  0.07505  0.33010  0.85580  1.0000
  H   H25       1.0  0.47734  0.71246  0.75266  1.0000
  H   H26       1.0  0.97734  0.78754  0.25266  1.0000
  H   H27       1.0  0.52266  0.28754  0.24735  1.0000
  H   H28       1.0  0.02266  0.21246  0.74735  1.0000
  H   H29       1.0  0.17833  0.86217  0.91000  1.0000
  H   H30       1.0  0.67832  0.63784  0.40999  1.0000
  H   H31       1.0  0.82167  0.13784  0.09000  1.0000
  H   H32       1.0  0.32169  0.36216  0.59001  1.0000
  H   H33       1.0  0.14877  0.99502  0.81417  1.0000
  H   H34       1.0  0.64878  0.50498  0.31417  1.0000
  H   H35       1.0  0.85123  0.00498  0.18583  1.0000
  H   H36       1.0  0.35125  0.49502  0.68583  1.0000
  H   H37       1.0  0.30623  0.92396  0.55749  1.0000
  H   H38       1.0  0.80623  0.57604  0.05749  1.0000
  H   H39       1.0  0.69376  0.07604  0.44251  1.0000
  H   H40       1.0  0.19376  0.42396  0.94251  1.0000
  C   C1        1.0  0.05527  0.29207  0.42984  1.0000
  C   C2        1.0  0.55526  0.20793  0.92984  1.0000
  C   C3        1.0  0.94472  0.70793  0.57016  1.0000
  C   C4        1.0  0.44473  0.79207  0.07016  1.0000
  C   C5        1.0  0.05484  0.30850  0.34658  1.0000
  C   C6        1.0  0.55483  0.19150  0.84657  1.0000
  C   C7        1.0  0.94515  0.69150  0.65342  1.0000
  C   C8        1.0  0.44517  0.80850  0.15343  1.0000
  C   C9        1.0  0.11087  0.23949  0.29713  1.0000
  C   C10       1.0  0.61088  0.26050  0.79713  1.0000
  C   C11       1.0  0.88913  0.76051  0.70286  1.0000
  C   C12       1.0  0.38914  0.73949  0.20287  1.0000
  C   C13       1.0  0.16404  0.15612  0.33266  1.0000
  C   C14       1.0  0.66405  0.34387  0.83266  1.0000
  C   C15       1.0  0.83596  0.84388  0.66734  1.0000
  C   C16       1.0  0.33596  0.65612  0.16734  1.0000
  C   C17       1.0  0.16423  0.14471  0.41662  1.0000
  C   C18       1.0  0.66423  0.35529  0.91662  1.0000
  C   C19       1.0  0.83577  0.85529  0.58338  1.0000
  C   C20       1.0  0.33578  0.64471  0.08339  1.0000
  C   C21       1.0  0.22020  0.05919  0.45790  1.0000
  C   C22       1.0  0.72020  0.44081  0.95789  1.0000
  C   C23       1.0  0.77980  0.94080  0.54210  1.0000
  C   C24       1.0  0.27979  0.55920  0.04210  1.0000
  C   C25       1.0  0.25103  0.00123  0.66519  1.0000
  C   C26       1.0  0.75103  0.49877  0.16519  1.0000
  C   C27       1.0  0.74897  0.99878  0.33481  1.0000
  C   C28       1.0  0.24897  0.50122  0.83482  1.0000
  C   C29       1.0  0.28761  0.92366  0.72236  1.0000
  C   C30       1.0  0.78761  0.57634  0.22236  1.0000
  C   C31       1.0  0.71240  0.07634  0.27764  1.0000
  C   C32       1.0  0.21240  0.42366  0.77764  1.0000
  C   C33       1.0  0.37796  0.84290  0.70373  1.0000
  C   C34       1.0  0.87795  0.65710  0.20373  1.0000
  C   C35       1.0  0.62205  0.15710  0.29626  1.0000
  C   C36       1.0  0.12205  0.34290  0.79627  1.0000
  C   C37       1.0  0.40305  0.77583  0.76289  1.0000
  C   C38       1.0  0.90305  0.72417  0.26289  1.0000
  C   C39       1.0  0.59695  0.22417  0.23711  1.0000
  C   C40       1.0  0.09695  0.27583  0.73711  1.0000
  C   C41       1.0  0.24174  0.86075  0.85263  1.0000
  C   C42       1.0  0.74174  0.63925  0.35263  1.0000
  C   C43       1.0  0.75826  0.13925  0.14737  1.0000
  C   C44       1.0  0.25827  0.36075  0.64737  1.0000
  C   C45       1.0  0.22123  0.93286  0.79889  1.0000
  C   C46       1.0  0.72123  0.56714  0.29889  1.0000
  C   C47       1.0  0.77877  0.06714  0.20110  1.0000
  C   C48       1.0  0.27878  0.43286  0.70111  1.0000
  S   S1        1.0  0.66425  0.20174  0.56053  1.0000
  S   S2        1.0  0.16424  0.29827  0.06054  1.0000
  S   S3        1.0  0.33575  0.79826  0.43946  1.0000
  S   S4        1.0  0.83575  0.70173  0.93947  1.0000
  N   N1        1.0  0.11061  0.21274  0.46392  1.0000
  N   N2        1.0  0.61060  0.28726  0.96392  1.0000
  N   N3        1.0  0.88940  0.78726  0.53608  1.0000
  N   N4        1.0  0.38940  0.71274  0.03608  1.0000
  N   N5        1.0  0.21356  0.05811  0.53556  1.0000
  N   N6        1.0  0.71356  0.44189  0.03556  1.0000
  N   N7        1.0  0.78644  0.94189  0.46444  1.0000
  N   N8        1.0  0.28644  0.55811  0.96444  1.0000
  N   N9        1.0  0.26101  0.98623  0.58383  1.0000
  N   N10       1.0  0.76101  0.51377  0.08383  1.0000
  N   N11       1.0  0.73899  0.01377  0.41616  1.0000
  N   N12       1.0  0.23900  0.48623  0.91617  1.0000
  N   N13       1.0  0.33442  0.78419  0.83511  1.0000
  N   N14       1.0  0.83442  0.71582  0.33510  1.0000
  N   N15       1.0  0.66558  0.21581  0.16489  1.0000
  N   N16       1.0  0.16558  0.28418  0.66490  1.0000
  O   O1        1.0  0.20695  0.07616  0.69180  1.0000
  O   O2        1.0  0.70695  0.42383  0.19180  1.0000
  O   O3        1.0  0.79306  0.92384  0.30819  1.0000
  O   O4        1.0  0.29306  0.57617  0.80820  1.0000
  O   O5        1.0  0.49463  0.19116  0.60910  1.0000
  O   O6        1.0  0.99462  0.30884  0.10910  1.0000
  O   O7        1.0  0.50537  0.80885  0.39089  1.0000
  O   O8        1.0  0.00538  0.69116  0.89090  1.0000
  O   O9        1.0  0.83949  0.14572  0.60293  1.0000
  O   O10       1.0  0.33949  0.35429  0.10294  1.0000
  O   O11       1.0  0.16051  0.85428  0.39706  1.0000
  O   O12       1.0  0.66050  0.64571  0.89707  1.0000
  O   O13       1.0  0.72560  0.29589  0.55436  1.0000
  O   O14       1.0  0.22558  0.20411  0.05436  1.0000
  O   O15       1.0  0.27440  0.70411  0.44563  1.0000
  O   O16       1.0  0.77440  0.79589  0.94563  1.0000
  O   O17       1.0  0.60503  0.16112  0.47705  1.0000
  O   O18       1.0  0.10503  0.33888  0.97705  1.0000
  O   O19       1.0  0.39497  0.83888  0.52295  1.0000
  O   O20       1.0  0.89496  0.66112  0.02296  1.0000
