data_image0
_chemical_formula_structural       Pr2H38C48S2N8O16
_chemical_formula_sum              "Pr2 H38 C48 S2 N8 O16"
_cell_length_a       8.99709
_cell_length_b       9.01352
_cell_length_c       14.5152
_cell_angle_alpha    96.7275
_cell_angle_beta     91.5737
_cell_angle_gamma    99.7801

_space_group_name_H-M_alt    "P 1"
_space_group_IT_number       1

loop_
  _space_group_symop_operation_xyz
  'x, y, z'

loop_
  _atom_site_type_symbol
  _atom_site_label
  _atom_site_symmetry_multiplicity
  _atom_site_fract_x
  _atom_site_fract_y
  _atom_site_fract_z
  _atom_site_occupancy
  Pr  Pr1       1.0  0.54698  0.56531  0.64800  1.0000
  Pr  Pr2       1.0  0.45302  0.43469  0.35199  1.0000
  H   H1        1.0  0.10976  0.44766  0.10308  1.0000
  H   H2        1.0  0.89024  0.55234  0.89692  1.0000
  H   H3        1.0  0.40011  0.83618  0.78516  1.0000
  H   H4        1.0  0.59989  0.16382  0.21484  1.0000
  H   H5        1.0  0.25140  0.88973  0.92518  1.0000
  H   H6        1.0  0.74860  0.11027  0.07482  1.0000
  H   H7        1.0  0.18095  0.68493  0.02626  1.0000
  H   H8        1.0  0.81905  0.31507  0.97374  1.0000
  H   H9        1.0  0.48857  0.03885  0.92676  1.0000
  H   H10       1.0  0.51143  0.96115  0.07324  1.0000
  H   H11       1.0  0.64981  0.02788  0.78820  1.0000
  H   H12       1.0  0.35018  0.97212  0.21180  1.0000
  H   H13       1.0  0.67654  0.24266  0.69272  1.0000
  H   H14       1.0  0.32345  0.75734  0.30728  1.0000
  H   H15       1.0  0.10674  0.94306  0.07703  1.0000
  H   H16       1.0  0.89326  0.05694  0.92297  1.0000
  H   H17       1.0  0.93130  0.78168  0.17001  1.0000
  H   H18       1.0  0.06870  0.21832  0.82999  1.0000
  H   H19       1.0  0.79161  0.90568  0.29480  1.0000
  H   H20       1.0  0.20839  0.09432  0.70520  1.0000
  H   H21       1.0  0.83902  0.18755  0.32921  1.0000
  H   H22       1.0  0.16098  0.81245  0.67079  1.0000
  H   H23       1.0  0.92292  0.97658  0.55170  1.0000
  H   H24       1.0  0.07708  0.02342  0.44830  1.0000
  H   H25       1.0  0.85986  0.06651  0.65536  1.0000
  H   H26       1.0  0.14014  0.93349  0.34464  1.0000
  H   H27       1.0  0.60854  0.06420  0.56763  1.0000
  H   H28       1.0  0.39146  0.93580  0.43237  1.0000
  H   H29       1.0  0.68754  0.99712  0.46448  1.0000
  H   H30       1.0  0.31247  0.00288  0.53552  1.0000
  H   H31       1.0  0.81941  0.29820  0.58573  1.0000
  H   H32       1.0  0.18059  0.70180  0.41427  1.0000
  H   H33       1.0  0.88299  0.23222  0.47672  1.0000
  H   H34       1.0  0.11701  0.76779  0.52328  1.0000
  H   H35       1.0  0.20166  0.44725  0.64005  1.0000
  H   H36       1.0  0.79835  0.55275  0.35995  1.0000
  H   H37       1.0  0.26841  0.34034  0.56262  1.0000
  H   H38       1.0  0.73159  0.65966  0.43738  1.0000
  C   C1        1.0  0.37184  0.75115  0.83230  1.0000
  C   C2        1.0  0.62816  0.24885  0.16770  1.0000
  C   C3        1.0  0.28685  0.78002  0.91013  1.0000
  C   C4        1.0  0.71315  0.21998  0.08987  1.0000
  C   C5        1.0  0.24857  0.66698  0.96602  1.0000
  C   C6        1.0  0.75143  0.33302  0.03398  1.0000
  C   C7        1.0  0.29921  0.52791  0.94504  1.0000
  C   C8        1.0  0.70078  0.47209  0.05495  1.0000
  C   C9        1.0  0.26772  0.40171  0.99623  1.0000
  C   C10       1.0  0.73227  0.59829  0.00377  1.0000
  C   C11       1.0  0.32805  0.26838  0.97674  1.0000
  C   C12       1.0  0.67195  0.73162  0.02326  1.0000
  C   C13       1.0  0.42708  0.25309  0.90216  1.0000
  C   C14       1.0  0.57292  0.74690  0.09784  1.0000
  C   C15       1.0  0.50127  0.12859  0.88210  1.0000
  C   C16       1.0  0.49873  0.87141  0.11790  1.0000
  C   C17       1.0  0.59172  0.12303  0.80680  1.0000
  C   C18       1.0  0.40828  0.87697  0.19320  1.0000
  C   C19       1.0  0.60542  0.24271  0.75220  1.0000
  C   C20       1.0  0.39457  0.75729  0.24780  1.0000
  C   C21       1.0  0.45134  0.37180  0.84466  1.0000
  C   C22       1.0  0.54866  0.62820  0.15534  1.0000
  C   C23       1.0  0.38864  0.50948  0.86633  1.0000
  C   C24       1.0  0.61136  0.49052  0.13367  1.0000
  C   C25       1.0  0.17858  0.23191  0.08857  1.0000
  C   C26       1.0  0.82142  0.76809  0.91143  1.0000
  C   C27       1.0  0.07757  0.15408  0.15194  1.0000
  C   C28       1.0  0.92243  0.84592  0.84806  1.0000
  C   C29       1.0  0.04866  0.99449  0.13391  1.0000
  C   C30       1.0  0.95134  0.00551  0.86609  1.0000
  C   C31       1.0  0.94903  0.90504  0.18499  1.0000
  C   C32       1.0  0.05097  0.09496  0.81501  1.0000
  C   C33       1.0  0.87193  0.97445  0.25521  1.0000
  C   C34       1.0  0.12807  0.02555  0.74479  1.0000
  C   C35       1.0  0.89990  0.13215  0.27546  1.0000
  C   C36       1.0  0.10010  0.86785  0.72454  1.0000
  C   C37       1.0  0.00263  0.22245  0.22588  1.0000
  C   C38       1.0  0.99737  0.77755  0.77412  1.0000
  C   C39       1.0  0.74164  0.84166  0.61288  1.0000
  C   C40       1.0  0.25836  0.15834  0.38712  1.0000
  C   C41       1.0  0.82249  0.99290  0.59034  1.0000
  C   C42       1.0  0.17752  0.00710  0.40966  1.0000
  C   C43       1.0  0.71573  0.06533  0.53257  1.0000
  C   C44       1.0  0.28427  0.93467  0.46743  1.0000
  C   C45       1.0  0.78326  0.22912  0.51897  1.0000
  C   C46       1.0  0.21674  0.77088  0.48103  1.0000
  C   C47       1.0  0.66511  0.29701  0.47086  1.0000
  C   C48       1.0  0.33489  0.70299  0.52914  1.0000
  S   S1        1.0  0.03717  0.42284  0.26626  1.0000
  S   S2        1.0  0.96283  0.57716  0.73374  1.0000
  N   N1        1.0  0.42092  0.62052  0.81051  1.0000
  N   N2        1.0  0.57909  0.37948  0.18949  1.0000
  N   N3        1.0  0.53765  0.36284  0.76965  1.0000
  N   N4        1.0  0.46235  0.63716  0.23035  1.0000
  N   N5        1.0  0.17466  0.37651  0.06783  1.0000
  N   N6        1.0  0.82534  0.62349  0.93217  1.0000
  N   N7        1.0  0.27252  0.16425  0.03449  1.0000
  N   N8        1.0  0.72748  0.83575  0.96551  1.0000
  O   O1        1.0  0.20084  0.45893  0.29157  1.0000
  O   O2        1.0  0.79916  0.54107  0.70843  1.0000
  O   O3        1.0  0.94489  0.44544  0.34607  1.0000
  O   O4        1.0  0.05511  0.55456  0.65393  1.0000
  O   O5        1.0  0.99922  0.50441  0.18890  1.0000
  O   O6        1.0  0.00078  0.49559  0.81110  1.0000
  O   O7        1.0  0.67835  0.83316  0.69007  1.0000
  O   O8        1.0  0.32165  0.16684  0.30993  1.0000
  O   O9        1.0  0.73059  0.72413  0.55230  1.0000
  O   O10       1.0  0.26941  0.27587  0.44770  1.0000
  O   O11       1.0  0.59140  0.38714  0.51876  1.0000
  O   O12       1.0  0.40860  0.61286  0.48124  1.0000
  O   O13       1.0  0.63395  0.25984  0.38478  1.0000
  O   O14       1.0  0.36605  0.74016  0.61522  1.0000
  O   O15       1.0  0.28898  0.39557  0.62654  1.0000
  O   O16       1.0  0.71102  0.60443  0.37346  1.0000
