data_image0
_chemical_formula_structural       Dy2H38C48S2N8O16
_chemical_formula_sum              "Dy2 H38 C48 S2 N8 O16"
_cell_length_a       8.79914
_cell_length_b       8.96576
_cell_length_c       14.4686
_cell_angle_alpha    95.4554
_cell_angle_beta     91.5019
_cell_angle_gamma    99.1668

_space_group_name_H-M_alt    "P 1"
_space_group_IT_number       1

loop_
  _space_group_symop_operation_xyz
  'x, y, z'

loop_
  _atom_site_type_symbol
  _atom_site_label
  _atom_site_symmetry_multiplicity
  _atom_site_fract_x
  _atom_site_fract_y
  _atom_site_fract_z
  _atom_site_occupancy
  Dy  Dy1       1.0  0.05709  0.05938  0.15649  1.0000
  Dy  Dy2       1.0  0.94291  0.94062  0.84351  1.0000
  H   H1        1.0  0.79592  0.56232  0.54914  1.0000
  H   H2        1.0  0.20408  0.43768  0.45085  1.0000
  H   H3        1.0  0.19091  0.73926  0.19438  1.0000
  H   H4        1.0  0.80909  0.26075  0.80561  1.0000
  H   H5        1.0  0.15424  0.51506  0.28591  1.0000
  H   H6        1.0  0.84576  0.48494  0.71408  1.0000
  H   H7        1.0  0.98415  0.52127  0.42380  1.0000
  H   H8        1.0  0.01585  0.47873  0.57620  1.0000
  H   H9        1.0  0.66459  0.16774  0.51792  1.0000
  H   H10       1.0  0.33542  0.83226  0.48208  1.0000
  H   H11       1.0  0.73994  0.37803  0.41384  1.0000
  H   H12       1.0  0.26007  0.62197  0.58617  1.0000
  H   H13       1.0  0.90681  0.33058  0.28080  1.0000
  H   H14       1.0  0.09319  0.66942  0.71920  1.0000
  H   H15       1.0  0.58484  0.44143  0.58016  1.0000
  H   H16       1.0  0.41515  0.55857  0.41984  1.0000
  H   H17       1.0  0.41616  0.28466  0.67855  1.0000
  H   H18       1.0  0.58383  0.71534  0.32145  1.0000
  H   H19       1.0  0.27575  0.41082  0.80368  1.0000
  H   H20       1.0  0.72425  0.58918  0.19632  1.0000
  H   H21       1.0  0.32513  0.69372  0.83432  1.0000
  H   H22       1.0  0.67488  0.30628  0.16568  1.0000
  H   H23       1.0  0.41483  0.45149  0.04307  1.0000
  H   H24       1.0  0.58517  0.54851  0.95693  1.0000
  H   H25       1.0  0.36715  0.54502  0.14981  1.0000
  H   H26       1.0  0.63285  0.45498  0.85019  1.0000
  H   H27       1.0  0.17126  0.49158  0.96684  1.0000
  H   H28       1.0  0.82874  0.50841  0.03316  1.0000
  H   H29       1.0  0.10448  0.55903  0.07408  1.0000
  H   H30       1.0  0.89552  0.44097  0.92592  1.0000
  H   H31       1.0  0.33393  0.78105  0.08470  1.0000
  H   H32       1.0  0.66607  0.21895  0.91530  1.0000
  H   H33       1.0  0.37359  0.72055  0.96956  1.0000
  H   H34       1.0  0.62641  0.27945  0.03044  1.0000
  H   H35       1.0  0.79083  0.85254  0.06443  1.0000
  H   H36       1.0  0.20917  0.14746  0.93557  1.0000
  H   H37       1.0  0.71358  0.95646  0.13756  1.0000
  H   H38       1.0  0.28642  0.04354  0.86244  1.0000
  C   C1        1.0  0.11716  0.73670  0.25353  1.0000
  C   C2        1.0  0.88285  0.26330  0.74647  1.0000
  C   C3        1.0  0.09910  0.61299  0.30716  1.0000
  C   C4        1.0  0.90090  0.38702  0.69284  1.0000
  C   C5        1.0  0.00518  0.61706  0.38211  1.0000
  C   C6        1.0  0.99482  0.38294  0.61789  1.0000
  C   C7        1.0  0.93265  0.74425  0.40392  1.0000
  C   C8        1.0  0.06735  0.25575  0.59608  1.0000
  C   C9        1.0  0.83116  0.76247  0.47743  1.0000
  C   C10       1.0  0.16884  0.23752  0.52257  1.0000
  C   C11       1.0  0.76321  0.89279  0.49567  1.0000
  C   C12       1.0  0.23680  0.10721  0.50433  1.0000
  C   C13       1.0  0.79776  0.01903  0.44213  1.0000
  C   C14       1.0  0.20225  0.98097  0.55787  1.0000
  C   C15       1.0  0.74104  0.15638  0.46048  1.0000
  C   C16       1.0  0.25897  0.84362  0.53952  1.0000
  C   C17       1.0  0.78335  0.27062  0.40410  1.0000
  C   C18       1.0  0.21665  0.72938  0.59590  1.0000
  C   C19       1.0  0.87624  0.24463  0.32849  1.0000
  C   C20       1.0  0.12376  0.75537  0.67151  1.0000
  C   C21       1.0  0.89342  0.00250  0.36555  1.0000
  C   C22       1.0  0.10658  0.99750  0.63445  1.0000
  C   C23       1.0  0.95868  0.86487  0.34566  1.0000
  C   C24       1.0  0.04132  0.13513  0.65434  1.0000
  C   C25       1.0  0.66631  0.73823  0.59193  1.0000
  C   C26       1.0  0.33369  0.26176  0.40807  1.0000
  C   C27       1.0  0.56491  0.65744  0.65571  1.0000
  C   C28       1.0  0.43509  0.34256  0.34430  1.0000
  C   C29       1.0  0.53296  0.49768  0.63858  1.0000
  C   C30       1.0  0.46704  0.50232  0.36142  1.0000
  C   C31       1.0  0.43316  0.40814  0.69188  1.0000
  C   C32       1.0  0.56684  0.59186  0.30812  1.0000
  C   C33       1.0  0.35657  0.47904  0.76233  1.0000
  C   C34       1.0  0.64343  0.52097  0.23768  1.0000
  C   C35       1.0  0.38601  0.63698  0.78057  1.0000
  C   C36       1.0  0.61399  0.36302  0.21944  1.0000
  C   C37       1.0  0.49108  0.72737  0.73007  1.0000
  C   C38       1.0  0.50892  0.27263  0.26993  1.0000
  C   C39       1.0  0.23404  0.32568  0.11300  1.0000
  C   C40       1.0  0.76596  0.67432  0.88699  1.0000
  C   C41       1.0  0.31908  0.47413  0.08657  1.0000
  C   C42       1.0  0.68092  0.52587  0.91343  1.0000
  C   C43       1.0  0.20901  0.55632  0.03417  1.0000
  C   C44       1.0  0.79099  0.44368  0.96583  1.0000
  C   C45       1.0  0.28171  0.71929  0.01941  1.0000
  C   C46       1.0  0.71829  0.28071  0.98059  1.0000
  C   C47       1.0  0.15780  0.80253  0.98537  1.0000
  C   C48       1.0  0.84220  0.19747  0.01463  1.0000
  S   S1        1.0  0.52827  0.92869  0.77088  1.0000
  S   S2        1.0  0.47173  0.07130  0.22912  1.0000
  N   N1        1.0  0.04716  0.85687  0.27082  1.0000
  N   N2        1.0  0.95283  0.14313  0.72918  1.0000
  N   N3        1.0  0.92925  0.11461  0.30887  1.0000
  N   N4        1.0  0.07075  0.88539  0.69113  1.0000
  N   N5        1.0  0.76930  0.66594  0.54004  1.0000
  N   N6        1.0  0.23070  0.33406  0.45996  1.0000
  N   N7        1.0  0.66282  0.87610  0.56614  1.0000
  N   N8        1.0  0.33718  0.12389  0.43386  1.0000
  O   O1        1.0  0.69845  0.95970  0.78605  1.0000
  O   O2        1.0  0.30155  0.04030  0.21395  1.0000
  O   O3        1.0  0.47268  0.01609  0.70155  1.0000
  O   O4        1.0  0.52732  0.98391  0.29845  1.0000
  O   O5        1.0  0.44969  0.94101  0.85887  1.0000
  O   O6        1.0  0.55031  0.05899  0.14113  1.0000
  O   O7        1.0  0.21613  0.20732  0.05435  1.0000
  O   O8        1.0  0.78387  0.79268  0.94565  1.0000
  O   O9        1.0  0.17449  0.31898  0.19250  1.0000
  O   O10       1.0  0.82551  0.68102  0.80750  1.0000
  O   O11       1.0  0.09366  0.88175  0.04629  1.0000
  O   O12       1.0  0.90633  0.11825  0.95371  1.0000
  O   O13       1.0  0.11585  0.78617  0.90000  1.0000
  O   O14       1.0  0.88415  0.21383  0.10000  1.0000
  O   O15       1.0  0.80421  0.90380  0.12891  1.0000
  O   O16       1.0  0.19579  0.09619  0.87109  1.0000
