data_image0
_chemical_formula_structural       Ho2H38C48S2N8O16
_chemical_formula_sum              "Ho2 H38 C48 S2 N8 O16"
_cell_length_a       8.80007
_cell_length_b       8.98294
_cell_length_c       14.5236
_cell_angle_alpha    95.2506
_cell_angle_beta     91.0656
_cell_angle_gamma    98.3175

_space_group_name_H-M_alt    "P 1"
_space_group_IT_number       1

loop_
  _space_group_symop_operation_xyz
  'x, y, z'

loop_
  _atom_site_type_symbol
  _atom_site_label
  _atom_site_symmetry_multiplicity
  _atom_site_fract_x
  _atom_site_fract_y
  _atom_site_fract_z
  _atom_site_occupancy
  Ho  Ho1       1.0  0.94734  0.44049  0.84453  1.0000
  Ho  Ho2       1.0  0.05266  0.55951  0.15547  1.0000
  H   H1        1.0  0.39182  0.55100  0.39804  1.0000
  H   H2        1.0  0.60818  0.44900  0.60196  1.0000
  H   H3        1.0  0.81017  0.76125  0.80818  1.0000
  H   H4        1.0  0.18983  0.23875  0.19182  1.0000
  H   H5        1.0  0.83815  0.97927  0.71109  1.0000
  H   H6        1.0  0.16185  0.02073  0.28891  1.0000
  H   H7        1.0  0.00289  0.96860  0.57260  1.0000
  H   H8        1.0  0.99711  0.03140  0.42739  1.0000
  H   H9        1.0  0.31663  0.31238  0.47729  1.0000
  H   H10       1.0  0.68337  0.68762  0.52271  1.0000
  H   H11       1.0  0.24275  0.10842  0.58081  1.0000
  H   H12       1.0  0.75724  0.89158  0.41919  1.0000
  H   H13       1.0  0.08839  0.16434  0.72038  1.0000
  H   H14       1.0  0.91161  0.83566  0.27962  1.0000
  H   H15       1.0  0.39870  0.05642  0.41972  1.0000
  H   H16       1.0  0.60130  0.94358  0.58028  1.0000
  H   H17       1.0  0.57687  0.21389  0.32330  1.0000
  H   H18       1.0  0.42312  0.78611  0.67670  1.0000
  H   H19       1.0  0.71800  0.08721  0.19852  1.0000
  H   H20       1.0  0.28200  0.91279  0.80149  1.0000
  H   H21       1.0  0.66873  0.80567  0.16781  1.0000
  H   H22       1.0  0.33128  0.19434  0.83219  1.0000
  H   H23       1.0  0.63633  0.96439  0.85321  1.0000
  H   H24       1.0  0.36367  0.03562  0.14679  1.0000
  H   H25       1.0  0.59075  0.05632  0.96083  1.0000
  H   H26       1.0  0.40926  0.94368  0.03917  1.0000
  H   H27       1.0  0.83110  0.00351  0.03433  1.0000
  H   H28       1.0  0.16890  0.99649  0.96567  1.0000
  H   H29       1.0  0.89607  0.93682  0.92632  1.0000
  H   H30       1.0  0.10393  0.06318  0.07368  1.0000
  H   H31       1.0  0.62359  0.78339  0.03029  1.0000
  H   H32       1.0  0.37641  0.21661  0.96971  1.0000
  H   H33       1.0  0.66345  0.72415  0.91495  1.0000
  H   H34       1.0  0.33655  0.27585  0.08505  1.0000
  H   H35       1.0  0.28276  0.54899  0.85833  1.0000
  H   H36       1.0  0.71724  0.45101  0.14167  1.0000
  H   H37       1.0  0.20526  0.64896  0.93435  1.0000
  H   H38       1.0  0.79474  0.35104  0.06565  1.0000
  C   C1        1.0  0.88284  0.76186  0.74845  1.0000
  C   C2        1.0  0.11716  0.23814  0.25155  1.0000
  C   C3        1.0  0.89726  0.88270  0.69298  1.0000
  C   C4        1.0  0.10274  0.11730  0.30702  1.0000
  C   C5        1.0  0.99069  0.87756  0.61764  1.0000
  C   C6        1.0  0.00931  0.12244  0.38236  1.0000
  C   C7        1.0  0.06737  0.75184  0.59826  1.0000
  C   C8        1.0  0.93263  0.24815  0.40174  1.0000
  C   C9        1.0  0.16933  0.73508  0.52366  1.0000
  C   C10       1.0  0.83067  0.26492  0.47634  1.0000
  C   C11       1.0  0.23015  0.59969  0.50498  1.0000
  C   C12       1.0  0.76985  0.40030  0.49502  1.0000
  C   C13       1.0  0.19682  0.47283  0.55713  1.0000
  C   C14       1.0  0.80318  0.52716  0.44287  1.0000
  C   C15       1.0  0.24738  0.33190  0.53753  1.0000
  C   C16       1.0  0.75261  0.66810  0.46247  1.0000
  C   C17       1.0  0.20688  0.21915  0.59480  1.0000
  C   C18       1.0  0.79312  0.78085  0.40520  1.0000
  C   C19       1.0  0.11955  0.24936  0.67249  1.0000
  C   C20       1.0  0.88045  0.75064  0.32751  1.0000
  C   C21       1.0  0.10545  0.49292  0.63595  1.0000
  C   C22       1.0  0.89455  0.50707  0.36405  1.0000
  C   C23       1.0  0.04189  0.63220  0.65659  1.0000
  C   C24       1.0  0.95811  0.36780  0.34341  1.0000
  C   C25       1.0  0.32294  0.76916  0.41103  1.0000
  C   C26       1.0  0.67706  0.23084  0.58897  1.0000
  C   C27       1.0  0.42590  0.84515  0.34614  1.0000
  C   C28       1.0  0.57410  0.15485  0.65386  1.0000
  C   C29       1.0  0.45683  0.00388  0.36262  1.0000
  C   C30       1.0  0.54317  0.99612  0.63738  1.0000
  C   C31       1.0  0.55815  0.09109  0.30959  1.0000
  C   C32       1.0  0.44185  0.90891  0.69041  1.0000
  C   C33       1.0  0.63608  0.02012  0.23941  1.0000
  C   C34       1.0  0.36393  0.97988  0.76060  1.0000
  C   C35       1.0  0.60708  0.86311  0.22122  1.0000
  C   C36       1.0  0.39292  0.13689  0.77878  1.0000
  C   C37       1.0  0.50165  0.77533  0.27229  1.0000
  C   C38       1.0  0.49835  0.22467  0.72771  1.0000
  C   C39       1.0  0.77306  0.17780  0.89044  1.0000
  C   C40       1.0  0.22694  0.82220  0.10956  1.0000
  C   C41       1.0  0.68544  0.03150  0.91652  1.0000
  C   C42       1.0  0.31456  0.96850  0.08348  1.0000
  C   C43       1.0  0.79229  0.94294  0.96684  1.0000
  C   C44       1.0  0.20772  0.05706  0.03316  1.0000
  C   C45       1.0  0.71556  0.78193  0.98038  1.0000
  C   C46       1.0  0.28444  0.21807  0.01961  1.0000
  C   C47       1.0  0.83690  0.69396  0.01331  1.0000
  C   C48       1.0  0.16310  0.30605  0.98669  1.0000
  S   S1        1.0  0.46538  0.57620  0.23466  1.0000
  S   S2        1.0  0.53462  0.42380  0.76534  1.0000
  N   N1        1.0  0.95301  0.64080  0.73160  1.0000
  N   N2        1.0  0.04699  0.35920  0.26840  1.0000
  N   N3        1.0  0.07092  0.38197  0.69314  1.0000
  N   N4        1.0  0.92908  0.61803  0.30686  1.0000
  N   N5        1.0  0.22726  0.83897  0.46493  1.0000
  N   N6        1.0  0.77274  0.16103  0.53507  1.0000
  N   N7        1.0  0.32575  0.62361  0.43290  1.0000
  N   N8        1.0  0.67425  0.37639  0.56710  1.0000
  O   O1        1.0  0.29869  0.54608  0.21270  1.0000
  O   O2        1.0  0.70131  0.45392  0.78731  1.0000
  O   O3        1.0  0.50519  0.49279  0.31244  1.0000
  O   O4        1.0  0.49481  0.50721  0.68756  1.0000
  O   O5        1.0  0.55762  0.55153  0.15385  1.0000
  O   O6        1.0  0.44237  0.44847  0.84615  1.0000
  O   O7        1.0  0.78990  0.29608  0.94837  1.0000
  O   O8        1.0  0.21010  0.70392  0.05163  1.0000
  O   O9        1.0  0.83478  0.18327  0.81179  1.0000
  O   O10       1.0  0.16522  0.81673  0.18821  1.0000
  O   O11       1.0  0.90147  0.61557  0.95205  1.0000
  O   O12       1.0  0.09853  0.38443  0.04795  1.0000
  O   O13       1.0  0.87668  0.70696  0.09837  1.0000
  O   O14       1.0  0.12332  0.29304  0.90163  1.0000
  O   O15       1.0  0.19165  0.60060  0.86956  1.0000
  O   O16       1.0  0.80835  0.39940  0.13044  1.0000
