data_image0
_chemical_formula_structural       FeNiH12C14N8
_chemical_formula_sum              "Fe1 Ni1 H12 C14 N8"
_cell_length_a       6.8571
_cell_length_b       7.01849
_cell_length_c       8.37017
_cell_angle_alpha    96.1597
_cell_angle_beta     114.178
_cell_angle_gamma    90.0003

_space_group_name_H-M_alt    "P 1"
_space_group_IT_number       1

loop_
  _space_group_symop_operation_xyz
  'x, y, z'

loop_
  _atom_site_type_symbol
  _atom_site_label
  _atom_site_symmetry_multiplicity
  _atom_site_fract_x
  _atom_site_fract_y
  _atom_site_fract_z
  _atom_site_occupancy
  Fe  Fe1       1.0  0.00000  0.50000  0.00000  1.0000
  Ni  Ni1       1.0  0.50001  0.00001  0.00000  1.0000
  H   H1        1.0  0.38526  0.05856  0.53195  1.0000
  H   H2        1.0  0.85475  0.94304  0.47331  1.0000
  H   H3        1.0  0.61474  0.94143  0.46804  1.0000
  H   H4        1.0  0.14524  0.05696  0.52670  1.0000
  H   H5        1.0  0.11634  0.20132  0.23280  1.0000
  H   H6        1.0  0.88367  0.79868  0.76720  1.0000
  H   H7        1.0  0.38253  0.48034  0.76571  1.0000
  H   H8        1.0  0.61746  0.51965  0.23428  1.0000
  H   H9        1.0  0.32043  0.79504  0.64115  1.0000
  H   H10       1.0  0.67956  0.20496  0.35885  1.0000
  H   H11       1.0  0.15417  0.79430  0.30853  1.0000
  H   H12       1.0  0.84583  0.20570  0.69147  1.0000
  C   C1        1.0  0.31863  0.81367  0.01193  1.0000
  C   C2        1.0  0.30610  0.18578  0.98803  1.0000
  C   C3        1.0  0.68138  0.18633  0.98808  1.0000
  C   C4        1.0  0.69391  0.81421  0.01197  1.0000
  C   C5        1.0  0.16330  0.33060  0.32677  1.0000
  C   C6        1.0  0.83670  0.66940  0.67323  1.0000
  C   C7        1.0  0.25365  0.31839  0.50779  1.0000
  C   C8        1.0  0.74635  0.68161  0.49221  1.0000
  C   C9        1.0  0.31190  0.48691  0.62399  1.0000
  C   C10       1.0  0.68809  0.51309  0.37601  1.0000
  C   C11       1.0  0.27639  0.66110  0.55279  1.0000
  C   C12       1.0  0.72361  0.33891  0.44722  1.0000
  C   C13       1.0  0.18546  0.66246  0.37080  1.0000
  C   C14       1.0  0.81453  0.33754  0.62919  1.0000
  N   N1        1.0  0.20310  0.69266  0.01598  1.0000
  N   N2        1.0  0.18658  0.30689  0.98403  1.0000
  N   N3        1.0  0.79691  0.30734  0.98402  1.0000
  N   N4        1.0  0.81342  0.69313  0.01598  1.0000
  N   N5        1.0  0.12907  0.49874  0.25821  1.0000
  N   N6        1.0  0.87093  0.50126  0.74179  1.0000
  N   N7        1.0  0.28651  0.13602  0.57497  1.0000
  N   N8        1.0  0.71349  0.86398  0.42503  1.0000
