data_image0
_chemical_formula_structural       ZnH20C24N6O6
_chemical_formula_sum              "Zn1 H20 C24 N6 O6"
_cell_length_a       9.05141
_cell_length_b       10.4692
_cell_length_c       11.3867
_cell_angle_alpha    58.3694
_cell_angle_beta     89.1265
_cell_angle_gamma    63.5053

_space_group_name_H-M_alt    "P 1"
_space_group_IT_number       1

loop_
  _space_group_symop_operation_xyz
  'x, y, z'

loop_
  _atom_site_type_symbol
  _atom_site_label
  _atom_site_symmetry_multiplicity
  _atom_site_fract_x
  _atom_site_fract_y
  _atom_site_fract_z
  _atom_site_occupancy
  Zn  Zn1       1.0  0.50001  0.50000  0.50001  1.0000
  H   H1        1.0  0.27288  0.73963  0.19149  1.0000
  H   H2        1.0  0.72714  0.26036  0.80852  1.0000
  H   H3        1.0  0.13759  0.72640  0.01394  1.0000
  H   H4        1.0  0.86242  0.27360  0.98605  1.0000
  H   H5        1.0  0.28522  0.19614  0.35779  1.0000
  H   H6        1.0  0.71478  0.80386  0.64221  1.0000
  H   H7        1.0  0.41743  0.23116  0.52219  1.0000
  H   H8        1.0  0.58257  0.76883  0.47782  1.0000
  H   H9        1.0  0.23321  0.31880  0.07927  1.0000
  H   H10       1.0  0.76678  0.68120  0.92072  1.0000
  H   H11       1.0  0.70897  0.21857  0.45085  1.0000
  H   H12       1.0  0.29102  0.78143  0.54916  1.0000
  H   H13       1.0  0.88189  0.18111  0.28700  1.0000
  H   H14       1.0  0.11811  0.81888  0.71301  1.0000
  H   H15       1.0  0.85481  0.66582  0.14247  1.0000
  H   H16       1.0  0.14519  0.33418  0.85754  1.0000
  H   H17       1.0  0.68987  0.67983  0.31559  1.0000
  H   H18       1.0  0.31014  0.32015  0.68443  1.0000
  H   H19       1.0  0.00458  0.28348  0.10859  1.0000
  H   H20       1.0  0.99542  0.71651  0.89141  1.0000
  C   C1        1.0  0.27255  0.62145  0.22433  1.0000
  C   C2        1.0  0.72746  0.37854  0.77567  1.0000
  C   C3        1.0  0.19815  0.61185  0.12527  1.0000
  C   C4        1.0  0.80184  0.38817  0.87473  1.0000
  C   C5        1.0  0.20148  0.45776  0.17010  1.0000
  C   C6        1.0  0.79850  0.54226  0.82989  1.0000
  C   C7        1.0  0.27895  0.31932  0.31679  1.0000
  C   C8        1.0  0.72102  0.68069  0.68321  1.0000
  C   C9        1.0  0.35053  0.33864  0.40907  1.0000
  C   C10       1.0  0.64946  0.66136  0.59092  1.0000
  C   C11       1.0  0.12898  0.43367  0.07057  1.0000
  C   C12       1.0  0.87101  0.56633  0.92943  1.0000
  C   C13       1.0  0.74475  0.31449  0.38132  1.0000
  C   C14       1.0  0.25526  0.68549  0.61870  1.0000
  C   C15       1.0  0.84017  0.29472  0.28923  1.0000
  C   C16       1.0  0.15983  0.70527  0.71078  1.0000
  C   C17       1.0  0.88046  0.42208  0.19778  1.0000
  C   C18       1.0  0.11953  0.57792  0.80222  1.0000
  C   C19       1.0  0.82723  0.56215  0.20928  1.0000
  C   C20       1.0  0.17276  0.43785  0.79071  1.0000
  C   C21       1.0  0.73505  0.57111  0.30614  1.0000
  C   C22       1.0  0.26495  0.42888  0.69387  1.0000
  C   C23       1.0  0.96863  0.40875  0.08958  1.0000
  C   C24       1.0  0.03136  0.59125  0.91041  1.0000
  N   N1        1.0  0.34894  0.48702  0.36446  1.0000
  N   N2        1.0  0.65107  0.51297  0.63554  1.0000
  N   N3        1.0  0.73406  0.06355  0.72668  1.0000
  N   N4        1.0  0.26596  0.93646  0.27329  1.0000
  N   N5        1.0  0.69110  0.45143  0.38955  1.0000
  N   N6        1.0  0.30891  0.54856  0.61047  1.0000
  O   O1        1.0  0.59933  0.21437  0.67754  1.0000
  O   O2        1.0  0.40068  0.78563  0.32247  1.0000
  O   O3        1.0  0.74960  0.99470  0.66026  1.0000
  O   O4        1.0  0.25037  0.00531  0.33973  1.0000
  O   O5        1.0  0.84516  0.98818  0.84091  1.0000
  O   O6        1.0  0.15494  0.01187  0.15901  1.0000
