data_image0
_chemical_formula_structural       Mo8H44C36N28O32
_chemical_formula_sum              "Mo8 H44 C36 N28 O32"
_cell_length_a       7.6763
_cell_length_b       9.31227
_cell_length_c       21.962
_cell_angle_alpha    90.0001
_cell_angle_beta     90.0001
_cell_angle_gamma    99.9526

_space_group_name_H-M_alt    "P 1"
_space_group_IT_number       1

loop_
  _space_group_symop_operation_xyz
  'x, y, z'

loop_
  _atom_site_type_symbol
  _atom_site_label
  _atom_site_symmetry_multiplicity
  _atom_site_fract_x
  _atom_site_fract_y
  _atom_site_fract_z
  _atom_site_occupancy
  Mo  Mo1       1.0  0.49895  0.85228  0.79025  1.0000
  Mo  Mo2       1.0  0.00105  0.64772  0.29025  1.0000
  Mo  Mo3       1.0  0.50105  0.14772  0.20975  1.0000
  Mo  Mo4       1.0  0.99894  0.35228  0.70975  1.0000
  Mo  Mo5       1.0  0.76650  0.57127  0.79726  1.0000
  Mo  Mo6       1.0  0.73349  0.92873  0.29726  1.0000
  Mo  Mo7       1.0  0.23349  0.42873  0.20274  1.0000
  Mo  Mo8       1.0  0.26650  0.07127  0.70274  1.0000
  H   H1        1.0  0.28321  0.64958  0.86706  1.0000
  H   H2        1.0  0.21678  0.85042  0.36706  1.0000
  H   H3        1.0  0.71678  0.35042  0.13294  1.0000
  H   H4        1.0  0.78321  0.14958  0.63294  1.0000
  H   H5        1.0  0.21342  0.61344  0.79987  1.0000
  H   H6        1.0  0.28658  0.88656  0.29987  1.0000
  H   H7        1.0  0.78658  0.38656  0.20013  1.0000
  H   H8        1.0  0.71341  0.11344  0.70013  1.0000
  H   H9        1.0  0.45181  0.39542  0.86272  1.0000
  H   H10       1.0  0.04819  0.10458  0.36272  1.0000
  H   H11       1.0  0.54819  0.60458  0.13728  1.0000
  H   H12       1.0  0.95181  0.89542  0.63728  1.0000
  H   H13       1.0  0.48946  0.31849  0.79932  1.0000
  H   H14       1.0  0.01054  0.18151  0.29932  1.0000
  H   H15       1.0  0.51054  0.68151  0.20068  1.0000
  H   H16       1.0  0.98946  0.81849  0.70068  1.0000
  H   H17       1.0  0.32237  0.04004  0.56607  1.0000
  H   H18       1.0  0.17763  0.45996  0.06607  1.0000
  H   H19       1.0  0.67763  0.95996  0.43394  1.0000
  H   H20       1.0  0.82238  0.54004  0.93394  1.0000
  H   H21       1.0  0.27145  0.71938  0.64933  1.0000
  H   H22       1.0  0.22855  0.78062  0.14933  1.0000
  H   H23       1.0  0.72854  0.28062  0.35067  1.0000
  H   H24       1.0  0.77146  0.21939  0.85067  1.0000
  H   H25       1.0  0.59521  0.39020  0.65465  1.0000
  H   H26       1.0  0.90478  0.10979  0.15465  1.0000
  H   H27       1.0  0.40478  0.60980  0.34535  1.0000
  H   H28       1.0  0.09522  0.89020  0.84535  1.0000
  H   H29       1.0  0.37033  0.26640  0.58854  1.0000
  H   H30       1.0  0.12967  0.23360  0.08854  1.0000
  H   H31       1.0  0.62967  0.73361  0.41146  1.0000
  H   H32       1.0  0.87034  0.76640  0.91146  1.0000
  H   H33       1.0  0.12794  0.35917  0.41801  1.0000
  H   H34       1.0  0.37207  0.14083  0.91801  1.0000
  H   H35       1.0  0.87207  0.64083  0.58199  1.0000
  H   H36       1.0  0.62793  0.85917  0.08199  1.0000
  H   H37       1.0  0.16092  0.61734  0.44705  1.0000
  H   H38       1.0  0.33909  0.88265  0.94705  1.0000
  H   H39       1.0  0.83910  0.38266  0.55294  1.0000
  H   H40       1.0  0.66090  0.11734  0.05294  1.0000
  H   H41       1.0  0.29965  0.70438  0.54464  1.0000
  H   H42       1.0  0.20035  0.79562  0.04464  1.0000
  H   H43       1.0  0.70035  0.29563  0.45536  1.0000
  H   H44       1.0  0.79965  0.20438  0.95536  1.0000
  C   C1        1.0  0.37049  0.65486  0.66235  1.0000
  C   C2        1.0  0.12951  0.84514  0.16235  1.0000
  C   C3        1.0  0.62951  0.34514  0.33765  1.0000
  C   C4        1.0  0.87049  0.15486  0.83765  1.0000
  C   C5        1.0  0.53425  0.48419  0.66537  1.0000
  C   C6        1.0  0.96575  0.01580  0.16537  1.0000
  C   C7        1.0  0.46575  0.51581  0.33463  1.0000
  C   C8        1.0  0.03426  0.98420  0.83463  1.0000
  C   C9        1.0  0.23618  0.14333  0.48357  1.0000
  C   C10       1.0  0.26381  0.35667  0.98357  1.0000
  C   C11       1.0  0.76382  0.85668  0.51644  1.0000
  C   C12       1.0  0.73618  0.64332  0.01643  1.0000
  C   C13       1.0  0.34068  0.48909  0.57281  1.0000
  C   C14       1.0  0.15932  0.01091  0.07281  1.0000
  C   C15       1.0  0.65932  0.51092  0.42719  1.0000
  C   C16       1.0  0.84068  0.98909  0.92719  1.0000
  C   C17       1.0  0.32610  0.34303  0.55708  1.0000
  C   C18       1.0  0.17390  0.15697  0.05708  1.0000
  C   C19       1.0  0.67390  0.65697  0.44292  1.0000
  C   C20       1.0  0.82610  0.84303  0.94292  1.0000
  C   C21       1.0  0.25062  0.29585  0.50075  1.0000
  C   C22       1.0  0.24938  0.20414  0.00075  1.0000
  C   C23       1.0  0.74939  0.70415  0.49925  1.0000
  C   C24       1.0  0.75062  0.79585  0.99925  1.0000
  C   C25       1.0  0.19022  0.39503  0.46123  1.0000
  C   C26       1.0  0.30978  0.10497  0.96123  1.0000
  C   C27       1.0  0.80979  0.60497  0.53877  1.0000
  C   C28       1.0  0.69021  0.89503  0.03877  1.0000
  C   C29       1.0  0.20849  0.54108  0.47780  1.0000
  C   C30       1.0  0.29151  0.95892  0.97780  1.0000
  C   C31       1.0  0.79152  0.45893  0.52219  1.0000
  C   C32       1.0  0.70848  0.04108  0.02219  1.0000
  C   C33       1.0  0.28469  0.58923  0.53324  1.0000
  C   C34       1.0  0.21531  0.91077  0.03324  1.0000
  C   C35       1.0  0.71532  0.41078  0.46676  1.0000
  C   C36       1.0  0.78468  0.08923  0.96676  1.0000
  N   N1        1.0  0.46363  0.67108  0.71281  1.0000
  N   N2        1.0  0.03637  0.82891  0.21281  1.0000
  N   N3        1.0  0.53636  0.32892  0.28719  1.0000
  N   N4        1.0  0.96364  0.17109  0.78719  1.0000
  N   N5        1.0  0.56596  0.56480  0.71483  1.0000
  N   N6        1.0  0.93404  0.93519  0.21483  1.0000
  N   N7        1.0  0.43404  0.43519  0.28517  1.0000
  N   N8        1.0  0.06596  0.06481  0.78517  1.0000
  N   N9        1.0  0.41214  0.53861  0.63057  1.0000
  N   N10       1.0  0.08786  0.96138  0.13057  1.0000
  N   N11       1.0  0.58786  0.46139  0.36942  1.0000
  N   N12       1.0  0.91214  0.03862  0.86942  1.0000
  N   N13       1.0  0.28005  0.03678  0.51929  1.0000
  N   N14       1.0  0.21995  0.46322  0.01929  1.0000
  N   N15       1.0  0.71995  0.96323  0.48072  1.0000
  N   N16       1.0  0.78005  0.53678  0.98071  1.0000
  N   N17       1.0  0.25502  0.91106  0.48833  1.0000
  N   N18       1.0  0.24498  0.58893  0.98833  1.0000
  N   N19       1.0  0.74497  0.08894  0.51168  1.0000
  N   N20       1.0  0.75502  0.41106  0.01168  1.0000
  N   N21       1.0  0.19641  0.93998  0.43477  1.0000
  N   N22       1.0  0.30359  0.56002  0.93477  1.0000
  N   N23       1.0  0.80358  0.06002  0.56523  1.0000
  N   N24       1.0  0.69641  0.43998  0.06523  1.0000
  N   N25       1.0  0.18275  0.08215  0.42989  1.0000
  N   N26       1.0  0.31725  0.41785  0.92989  1.0000
  N   N27       1.0  0.81725  0.91785  0.57011  1.0000
  N   N28       1.0  0.68275  0.58215  0.07011  1.0000
  O   O1        1.0  0.61213  0.69880  0.82290  1.0000
  O   O2        1.0  0.88787  0.80120  0.32290  1.0000
  O   O3        1.0  0.38787  0.30120  0.17710  1.0000
  O   O4        1.0  0.11213  0.19880  0.67710  1.0000
  O   O5        1.0  0.30341  0.90054  0.74462  1.0000
  O   O6        1.0  0.19659  0.59946  0.24462  1.0000
  O   O7        1.0  0.69659  0.09946  0.25538  1.0000
  O   O8        1.0  0.80341  0.40054  0.75538  1.0000
  O   O9        1.0  0.66902  0.94552  0.74637  1.0000
  O   O10       1.0  0.83098  0.55448  0.24637  1.0000
  O   O11       1.0  0.33098  0.05448  0.25363  1.0000
  O   O12       1.0  0.16902  0.44552  0.75363  1.0000
  O   O13       1.0  0.49462  0.95776  0.85442  1.0000
  O   O14       1.0  0.00538  0.54224  0.35442  1.0000
  O   O15       1.0  0.50538  0.04224  0.14558  1.0000
  O   O16       1.0  0.99462  0.45776  0.64558  1.0000
  O   O17       1.0  0.25622  0.69557  0.82774  1.0000
  O   O18       1.0  0.24377  0.80443  0.32774  1.0000
  O   O19       1.0  0.74377  0.30443  0.17227  1.0000
  O   O20       1.0  0.75622  0.19557  0.67227  1.0000
  O   O21       1.0  0.91291  0.69755  0.75713  1.0000
  O   O22       1.0  0.58708  0.80245  0.25712  1.0000
  O   O23       1.0  0.08708  0.30245  0.24288  1.0000
  O   O24       1.0  0.41292  0.19755  0.74288  1.0000
  O   O25       1.0  0.87368  0.55282  0.86683  1.0000
  O   O26       1.0  0.62632  0.94718  0.36683  1.0000
  O   O27       1.0  0.12632  0.44718  0.13318  1.0000
  O   O28       1.0  0.37369  0.05282  0.63317  1.0000
  O   O29       1.0  0.54429  0.38513  0.83214  1.0000
  O   O30       1.0  0.95571  0.11487  0.33214  1.0000
  O   O31       1.0  0.45571  0.61487  0.16786  1.0000
  O   O32       1.0  0.04429  0.88512  0.66786  1.0000
