data_image0
_chemical_formula_structural       Mo4H36C28N12O12
_chemical_formula_sum              "Mo4 H36 C28 N12 O12"
_cell_length_a       10.5899
_cell_length_b       10.5899
_cell_length_c       10.7452
_cell_angle_alpha    109.771
_cell_angle_beta     109.771
_cell_angle_gamma    108.274

_space_group_name_H-M_alt    "P 1"
_space_group_IT_number       1

loop_
  _space_group_symop_operation_xyz
  'x, y, z'

loop_
  _atom_site_type_symbol
  _atom_site_label
  _atom_site_symmetry_multiplicity
  _atom_site_fract_x
  _atom_site_fract_y
  _atom_site_fract_z
  _atom_site_occupancy
  Mo  Mo1       1.0  0.52075  0.52075  0.33670  1.0000
  Mo  Mo2       1.0  0.81595  0.81595  0.33670  1.0000
  Mo  Mo3       1.0  0.47925  0.47925  0.66330  1.0000
  Mo  Mo4       1.0  0.18405  0.18405  0.66330  1.0000
  H   H1        1.0  0.53713  0.79420  0.67385  1.0000
  H   H2        1.0  0.13672  0.87965  0.67385  1.0000
  H   H3        1.0  0.20580  0.46287  0.32615  1.0000
  H   H4        1.0  0.12035  0.86328  0.32615  1.0000
  H   H5        1.0  0.46287  0.20580  0.32615  1.0000
  H   H6        1.0  0.86328  0.12035  0.32615  1.0000
  H   H7        1.0  0.79420  0.53713  0.67385  1.0000
  H   H8        1.0  0.87965  0.13672  0.67385  1.0000
  H   H9        1.0  0.54372  0.96604  0.85727  1.0000
  H   H10       1.0  0.31355  0.89123  0.85727  1.0000
  H   H11       1.0  0.03396  0.45628  0.14273  1.0000
  H   H12       1.0  0.10877  0.68645  0.14272  1.0000
  H   H13       1.0  0.45628  0.03396  0.14273  1.0000
  H   H14       1.0  0.68645  0.10877  0.14273  1.0000
  H   H15       1.0  0.96604  0.54372  0.85727  1.0000
  H   H16       1.0  0.89123  0.31355  0.85727  1.0000
  H   H17       1.0  0.48947  0.05935  0.75489  1.0000
  H   H18       1.0  0.26542  0.69554  0.75489  1.0000
  H   H19       1.0  0.94065  0.51053  0.24511  1.0000
  H   H20       1.0  0.30446  0.73458  0.24511  1.0000
  H   H21       1.0  0.51053  0.94065  0.24511  1.0000
  H   H22       1.0  0.73458  0.30446  0.24511  1.0000
  H   H23       1.0  0.05935  0.48947  0.75489  1.0000
  H   H24       1.0  0.69554  0.26542  0.75489  1.0000
  H   H25       1.0  0.49062  0.16441  1.00000  1.0000
  H   H26       1.0  0.50938  0.83559  0.00000  1.0000
  H   H27       1.0  0.83559  0.50938  1.00000  1.0000
  H   H28       1.0  0.16441  0.49062  1.00000  1.0000
  H   H29       1.0  0.56006  0.33943  0.89950  1.0000
  H   H30       1.0  0.33944  0.56006  0.89950  1.0000
  H   H31       1.0  0.66056  0.43994  0.10050  1.0000
  H   H32       1.0  0.43994  0.66057  0.10050  1.0000
  H   H33       1.0  0.82125  0.03449  0.00000  1.0000
  H   H34       1.0  0.17875  0.96551  0.00000  1.0000
  H   H35       1.0  0.96551  0.17875  1.00000  1.0000
  H   H36       1.0  0.03449  0.82125  1.00000  1.0000
  C   C1        1.0  0.60929  0.85323  0.63810  1.0000
  C   C2        1.0  0.02881  0.78487  0.63810  1.0000
  C   C3        1.0  0.14677  0.39071  0.36190  1.0000
  C   C4        1.0  0.21513  0.97119  0.36190  1.0000
  C   C5        1.0  0.39071  0.14677  0.36190  1.0000
  C   C6        1.0  0.97119  0.21513  0.36190  1.0000
  C   C7        1.0  0.85323  0.60929  0.63810  1.0000
  C   C8        1.0  0.78487  0.02881  0.63810  1.0000
  C   C9        1.0  0.73165  0.12544  0.85709  1.0000
  C   C10       1.0  0.12544  0.73165  0.85709  1.0000
  C   C11       1.0  0.87456  0.26835  0.14291  1.0000
  C   C12       1.0  0.26835  0.87456  0.14291  1.0000
  C   C13       1.0  0.57929  0.07562  0.85754  1.0000
  C   C14       1.0  0.27825  0.78193  0.85755  1.0000
  C   C15       1.0  0.92438  0.42071  0.14246  1.0000
  C   C16       1.0  0.21807  0.72175  0.14246  1.0000
  C   C17       1.0  0.42071  0.92438  0.14246  1.0000
  C   C18       1.0  0.72175  0.21807  0.14245  1.0000
  C   C19       1.0  0.07562  0.57929  0.85754  1.0000
  C   C20       1.0  0.78193  0.27825  0.85755  1.0000
  C   C21       1.0  0.59967  0.19944  0.00000  1.0000
  C   C22       1.0  0.40033  0.80056  1.00000  1.0000
  C   C23       1.0  0.80056  0.40033  1.00000  1.0000
  C   C24       1.0  0.19944  0.59967  0.00000  1.0000
  C   C25       1.0  0.64843  0.35157  0.00000  1.0000
  C   C26       1.0  0.35157  0.64843  1.00000  1.0000
  C   C27       1.0  0.85596  0.14404  1.00000  1.0000
  C   C28       1.0  0.14404  0.85596  1.00000  1.0000
  N   N1        1.0  0.62069  0.78609  0.51722  1.0000
  N   N2        1.0  0.89653  0.73113  0.51722  1.0000
  N   N3        1.0  0.21391  0.37931  0.48278  1.0000
  N   N4        1.0  0.26887  0.10347  0.48278  1.0000
  N   N5        1.0  0.37931  0.21391  0.48278  1.0000
  N   N6        1.0  0.10347  0.26887  0.48278  1.0000
  N   N7        1.0  0.78609  0.62069  0.51722  1.0000
  N   N8        1.0  0.73113  0.89653  0.51722  1.0000
  N   N9        1.0  0.71047  0.00658  0.71705  1.0000
  N   N10       1.0  0.00658  0.71047  0.71705  1.0000
  N   N11       1.0  0.99342  0.28953  0.28294  1.0000
  N   N12       1.0  0.28953  0.99342  0.28294  1.0000
  O   O1        1.0  0.63612  0.63612  0.27224  1.0000
  O   O2        1.0  0.36388  0.36388  0.72776  1.0000
  O   O3        1.0  0.50000  0.50000  0.50000  1.0000
  O   O4        1.0  0.00000  0.00000  0.50000  1.0000
  O   O5        1.0  0.34423  0.50509  0.23856  1.0000
  O   O6        1.0  0.89433  0.73347  0.23856  1.0000
  O   O7        1.0  0.49491  0.65577  0.76144  1.0000
  O   O8        1.0  0.26653  0.10568  0.76144  1.0000
  O   O9        1.0  0.65577  0.49491  0.76144  1.0000
  O   O10       1.0  0.10568  0.26653  0.76144  1.0000
  O   O11       1.0  0.50509  0.34423  0.23856  1.0000
  O   O12       1.0  0.73347  0.89433  0.23856  1.0000
