data_image0
_chemical_formula_structural       Mo4H14C18N14O12
_chemical_formula_sum              "Mo4 H14 C18 N14 O12"
_cell_length_a       7.34059
_cell_length_b       7.25737
_cell_length_c       13.297
_cell_angle_alpha    87.9481
_cell_angle_beta     80.4479
_cell_angle_gamma    86.8355

_space_group_name_H-M_alt    "P 1"
_space_group_IT_number       1

loop_
  _space_group_symop_operation_xyz
  'x, y, z'

loop_
  _atom_site_type_symbol
  _atom_site_label
  _atom_site_symmetry_multiplicity
  _atom_site_fract_x
  _atom_site_fract_y
  _atom_site_fract_z
  _atom_site_occupancy
  Mo  Mo1       1.0  0.79519  0.88342  0.54002  1.0000
  Mo  Mo2       1.0  0.20482  0.11657  0.45998  1.0000
  Mo  Mo3       1.0  0.18654  0.61822  0.43061  1.0000
  Mo  Mo4       1.0  0.81344  0.38179  0.56940  1.0000
  H   H1        1.0  0.62170  0.88654  0.32391  1.0000
  H   H2        1.0  0.37830  0.11346  0.67610  1.0000
  H   H3        1.0  0.94057  0.90839  0.80365  1.0000
  H   H4        1.0  0.05943  0.09161  0.19635  1.0000
  H   H5        1.0  0.38205  0.54378  0.67156  1.0000
  H   H6        1.0  0.61795  0.45622  0.32844  1.0000
  H   H7        1.0  0.01347  0.76488  0.96949  1.0000
  H   H8        1.0  0.98652  0.23511  0.03051  1.0000
  H   H9        1.0  0.17330  0.78928  0.11640  1.0000
  H   H10       1.0  0.82669  0.21072  0.88360  1.0000
  H   H11       1.0  0.70006  0.69475  0.92310  1.0000
  H   H12       1.0  0.29994  0.30525  0.07690  1.0000
  H   H13       1.0  0.54383  0.67528  0.77400  1.0000
  H   H14       1.0  0.45617  0.32472  0.22600  1.0000
  C   C1        1.0  0.02928  0.81884  0.75084  1.0000
  C   C2        1.0  0.97072  0.18116  0.24916  1.0000
  C   C3        1.0  0.25856  0.63487  0.68307  1.0000
  C   C4        1.0  0.74145  0.36513  0.31693  1.0000
  C   C5        1.0  0.55055  0.78131  0.11157  1.0000
  C   C6        1.0  0.44945  0.21869  0.88843  1.0000
  C   C7        1.0  0.26940  0.72383  0.86112  1.0000
  C   C8        1.0  0.73061  0.27617  0.13888  1.0000
  C   C9        1.0  0.16434  0.75427  0.95730  1.0000
  C   C10       1.0  0.83566  0.24573  0.04270  1.0000
  C   C11       1.0  0.25473  0.76882  0.04088  1.0000
  C   C12       1.0  0.74527  0.23118  0.95913  1.0000
  C   C13       1.0  0.44869  0.75334  0.02853  1.0000
  C   C14       1.0  0.55130  0.24666  0.97147  1.0000
  C   C15       1.0  0.55012  0.71299  0.93222  1.0000
  C   C16       1.0  0.44988  0.28701  0.06778  1.0000
  C   C17       1.0  0.46193  0.69838  0.84876  1.0000
  C   C18       1.0  0.53807  0.30162  0.15124  1.0000
  N   N1        1.0  0.01057  0.79241  0.65558  1.0000
  N   N2        1.0  0.98943  0.20759  0.34442  1.0000
  N   N3        1.0  0.15515  0.67769  0.61323  1.0000
  N   N4        1.0  0.84485  0.32232  0.38676  1.0000
  N   N5        1.0  0.18481  0.72126  0.77166  1.0000
  N   N6        1.0  0.81519  0.27874  0.22834  1.0000
  N   N7        1.0  0.47559  0.83428  0.20584  1.0000
  N   N8        1.0  0.52440  0.16572  0.79416  1.0000
  N   N9        1.0  0.62424  0.84657  0.24919  1.0000
  N   N10       1.0  0.37575  0.15343  0.75081  1.0000
  N   N11       1.0  0.78355  0.80571  0.18865  1.0000
  N   N12       1.0  0.21644  0.19429  0.81136  1.0000
  N   N13       1.0  0.73930  0.76374  0.10037  1.0000
  N   N14       1.0  0.26069  0.23626  0.89963  1.0000
  O   O1        1.0  0.86936  0.62740  0.50735  1.0000
  O   O2        1.0  0.13065  0.37260  0.49265  1.0000
  O   O3        1.0  0.10305  0.87943  0.44180  1.0000
  O   O4        1.0  0.89696  0.12057  0.55819  1.0000
  O   O5        1.0  0.69150  0.93928  0.43552  1.0000
  O   O6        1.0  0.30851  0.06072  0.56448  1.0000
  O   O7        1.0  0.61791  0.86199  0.63892  1.0000
  O   O8        1.0  0.38209  0.13801  0.36108  1.0000
  O   O9        1.0  0.15267  0.57888  0.30956  1.0000
  O   O10       1.0  0.84734  0.42112  0.69044  1.0000
  O   O11       1.0  0.42076  0.62146  0.42273  1.0000
  O   O12       1.0  0.57925  0.37854  0.57727  1.0000
