data_image0
_chemical_formula_structural       Ni2H20C24N4O8
_chemical_formula_sum              "Ni2 H20 C24 N4 O8"
_cell_length_a       7.91194
_cell_length_b       7.91194
_cell_length_c       10.4117
_cell_angle_alpha    112.34
_cell_angle_beta     112.34
_cell_angle_gamma    90.0007

_space_group_name_H-M_alt    "P 1"
_space_group_IT_number       1

loop_
  _space_group_symop_operation_xyz
  'x, y, z'

loop_
  _atom_site_type_symbol
  _atom_site_label
  _atom_site_symmetry_multiplicity
  _atom_site_fract_x
  _atom_site_fract_y
  _atom_site_fract_z
  _atom_site_occupancy
  Ni  Ni1       1.0  0.99997  0.00003  0.00000  1.0000
  Ni  Ni2       1.0  0.25002  0.74998  0.50000  1.0000
  H   H1        1.0  0.19629  0.87511  0.25000  1.0000
  H   H2        1.0  0.62498  0.94628  0.75002  1.0000
  H   H3        1.0  0.05373  0.37502  0.24998  1.0000
  H   H4        1.0  0.12490  0.80371  0.75000  1.0000
  H   H5        1.0  0.69347  0.07670  0.10136  1.0000
  H   H6        1.0  0.27486  0.44360  0.60147  1.0000
  H   H7        1.0  0.40785  0.02482  0.10144  1.0000
  H   H8        1.0  0.32670  0.15782  0.60136  1.0000
  H   H9        1.0  0.55640  0.72514  0.39853  1.0000
  H   H10       1.0  0.97517  0.59215  0.89856  1.0000
  H   H11       1.0  0.84218  0.67330  0.39864  1.0000
  H   H12       1.0  0.92330  0.30652  0.89864  1.0000
  H   H13       1.0  0.45443  0.28785  0.09728  1.0000
  H   H14       1.0  0.05961  0.20449  0.59740  1.0000
  H   H15       1.0  0.64283  0.80954  0.09734  1.0000
  H   H16       1.0  0.53794  0.39282  0.59733  1.0000
  H   H17       1.0  0.79551  0.94039  0.40260  1.0000
  H   H18       1.0  0.19045  0.35717  0.90265  1.0000
  H   H19       1.0  0.60718  0.46206  0.40267  1.0000
  H   H20       1.0  0.71215  0.54557  0.90272  1.0000
  C   C1        1.0  0.56576  0.43424  0.00000  1.0000
  C   C2        1.0  0.81590  0.31578  0.50003  1.0000
  C   C3        1.0  0.43413  0.56587  1.00000  1.0000
  C   C4        1.0  0.68422  0.18410  0.49997  1.0000
  C   C5        1.0  0.05694  0.87505  0.25003  1.0000
  C   C6        1.0  0.62502  0.80692  0.75004  1.0000
  C   C7        1.0  0.19308  0.37498  0.24996  1.0000
  C   C8        1.0  0.12495  0.94306  0.74998  1.0000
  C   C9        1.0  0.68729  0.17926  0.05457  1.0000
  C   C10       1.0  0.12550  0.43736  0.55470  1.0000
  C   C11       1.0  0.36723  0.87548  0.05461  1.0000
  C   C12       1.0  0.42929  0.11723  0.55460  1.0000
  C   C13       1.0  0.56264  0.87450  0.44530  1.0000
  C   C14       1.0  0.12452  0.63277  0.94539  1.0000
  C   C15       1.0  0.88277  0.57071  0.44540  1.0000
  C   C16       1.0  0.82074  0.31271  0.94543  1.0000
  C   C17       1.0  0.55793  0.29792  0.05358  1.0000
  C   C18       1.0  0.00585  0.30804  0.55375  1.0000
  C   C19       1.0  0.49559  0.75581  0.05366  1.0000
  C   C20       1.0  0.54800  0.24559  0.55366  1.0000
  C   C21       1.0  0.69196  0.99415  0.44625  1.0000
  C   C22       1.0  0.24418  0.50440  0.94634  1.0000
  C   C23       1.0  0.75441  0.45200  0.44634  1.0000
  C   C24       1.0  0.70208  0.44207  0.94642  1.0000
  N   N1        1.0  0.81591  0.18409  0.00000  1.0000
  N   N2        1.0  0.06601  0.56591  0.50003  1.0000
  N   N3        1.0  0.18400  0.81600  1.00000  1.0000
  N   N4        1.0  0.43409  0.93399  0.49997  1.0000
  O   O1        1.0  0.93940  0.93753  0.16407  1.0000
  O   O2        1.0  0.47653  0.68945  0.66407  1.0000
  O   O3        1.0  0.22451  0.22643  0.16399  1.0000
  O   O4        1.0  0.18750  0.97445  0.66401  1.0000
  O   O5        1.0  0.31056  0.52347  0.33593  1.0000
  O   O6        1.0  0.77357  0.77549  0.83601  1.0000
  O   O7        1.0  0.02555  0.81250  0.33599  1.0000
  O   O8        1.0  0.06247  0.06060  0.83593  1.0000
