data_image0
_chemical_formula_structural       K4H68C36S8O20
_chemical_formula_sum              "K4 H68 C36 S8 O20"
_cell_length_a       9.06606
_cell_length_b       11.5568
_cell_length_c       13.7356
_cell_angle_alpha    90
_cell_angle_beta     104.641
_cell_angle_gamma    90

_space_group_name_H-M_alt    "P 1"
_space_group_IT_number       1

loop_
  _space_group_symop_operation_xyz
  'x, y, z'

loop_
  _atom_site_type_symbol
  _atom_site_label
  _atom_site_symmetry_multiplicity
  _atom_site_fract_x
  _atom_site_fract_y
  _atom_site_fract_z
  _atom_site_occupancy
  K   K1        1.0  0.77006  0.53350  0.51370  1.0000
  K   K2        1.0  0.77006  0.96649  0.01370  1.0000
  K   K3        1.0  0.22994  0.46649  0.48630  1.0000
  K   K4        1.0  0.22995  0.03350  0.98630  1.0000
  H   H1        1.0  0.76282  0.28067  0.66017  1.0000
  H   H2        1.0  0.76282  0.21933  0.16017  1.0000
  H   H3        1.0  0.23718  0.71933  0.33983  1.0000
  H   H4        1.0  0.23718  0.78067  0.83983  1.0000
  H   H5        1.0  0.95677  0.63672  0.22553  1.0000
  H   H6        1.0  0.95677  0.86328  0.72553  1.0000
  H   H7        1.0  0.04323  0.36328  0.77447  1.0000
  H   H8        1.0  0.04323  0.13672  0.27447  1.0000
  H   H9        1.0  0.75786  0.62979  0.21964  1.0000
  H   H10       1.0  0.75786  0.87021  0.71964  1.0000
  H   H11       1.0  0.24214  0.37021  0.78036  1.0000
  H   H12       1.0  0.24214  0.12979  0.28036  1.0000
  H   H13       1.0  0.99902  0.73174  0.39811  1.0000
  H   H14       1.0  0.99901  0.76826  0.89811  1.0000
  H   H15       1.0  0.00099  0.26825  0.60189  1.0000
  H   H16       1.0  0.00099  0.23174  0.10189  1.0000
  H   H17       1.0  0.89426  0.81620  0.29499  1.0000
  H   H18       1.0  0.89426  0.68380  0.79499  1.0000
  H   H19       1.0  0.10574  0.18380  0.70501  1.0000
  H   H20       1.0  0.10574  0.31620  0.20501  1.0000
  H   H21       1.0  0.87147  0.83336  0.51308  1.0000
  H   H22       1.0  0.87147  0.66664  0.01308  1.0000
  H   H23       1.0  0.12853  0.16664  0.48692  1.0000
  H   H24       1.0  0.12853  0.33336  0.98692  1.0000
  H   H25       1.0  0.77665  0.91893  0.40719  1.0000
  H   H26       1.0  0.77665  0.58107  0.90719  1.0000
  H   H27       1.0  0.22335  0.08107  0.59281  1.0000
  H   H28       1.0  0.22335  0.41893  0.09281  1.0000
  H   H29       1.0  0.62309  0.92014  0.52746  1.0000
  H   H30       1.0  0.62309  0.57986  0.02745  1.0000
  H   H31       1.0  0.37691  0.07986  0.47254  1.0000
  H   H32       1.0  0.37690  0.42014  0.97254  1.0000
  H   H33       1.0  0.52474  0.83596  0.42064  1.0000
  H   H34       1.0  0.52474  0.66404  0.92064  1.0000
  H   H35       1.0  0.47526  0.16404  0.57936  1.0000
  H   H36       1.0  0.47526  0.33596  0.07936  1.0000
  H   H37       1.0  0.47477  0.82381  0.61718  1.0000
  H   H38       1.0  0.47477  0.67619  0.11718  1.0000
  H   H39       1.0  0.52523  0.17619  0.38282  1.0000
  H   H40       1.0  0.52523  0.32381  0.88282  1.0000
  H   H41       1.0  0.39232  0.71851  0.52402  1.0000
  H   H42       1.0  0.39232  0.78149  0.02402  1.0000
  H   H43       1.0  0.60768  0.28149  0.47598  1.0000
  H   H44       1.0  0.60768  0.21851  0.97598  1.0000
  H   H45       1.0  0.62431  0.66223  0.72254  1.0000
  H   H46       1.0  0.62431  0.83777  0.22254  1.0000
  H   H47       1.0  0.37569  0.33777  0.27746  1.0000
  H   H48       1.0  0.37569  0.16223  0.77746  1.0000
  H   H49       1.0  0.42302  0.66113  0.70897  1.0000
  H   H50       1.0  0.42302  0.83887  0.20897  1.0000
  H   H51       1.0  0.57698  0.33887  0.29103  1.0000
  H   H52       1.0  0.57698  0.16113  0.79103  1.0000
  H   H53       1.0  0.50264  0.47691  0.76953  1.0000
  H   H54       1.0  0.50264  0.02309  0.26953  1.0000
  H   H55       1.0  0.49736  0.52309  0.23047  1.0000
  H   H56       1.0  0.49736  0.97691  0.73047  1.0000
  H   H57       1.0  0.47297  0.37055  0.67231  1.0000
  H   H58       1.0  0.47297  0.12945  0.17231  1.0000
  H   H59       1.0  0.52703  0.62945  0.32769  1.0000
  H   H60       1.0  0.52703  0.87055  0.82769  1.0000
  H   H61       1.0  0.77688  0.49768  0.75180  1.0000
  H   H62       1.0  0.77688  0.00231  0.25180  1.0000
  H   H63       1.0  0.22312  0.50231  0.24820  1.0000
  H   H64       1.0  0.22312  0.99769  0.74820  1.0000
  H   H65       1.0  0.73522  0.36054  0.79667  1.0000
  H   H66       1.0  0.73522  0.13946  0.29667  1.0000
  H   H67       1.0  0.26478  0.63946  0.20333  1.0000
  H   H68       1.0  0.26478  0.86054  0.70333  1.0000
  C   C1        1.0  0.86229  0.42379  0.29499  1.0000
  C   C2        1.0  0.86229  0.07621  0.79499  1.0000
  C   C3        1.0  0.13771  0.57621  0.70501  1.0000
  C   C4        1.0  0.13771  0.92379  0.20501  1.0000
  C   C5        1.0  0.87255  0.63378  0.27061  1.0000
  C   C6        1.0  0.87255  0.86622  0.77061  1.0000
  C   C7        1.0  0.12745  0.36622  0.72939  1.0000
  C   C8        1.0  0.12745  0.13378  0.22939  1.0000
  C   C9        1.0  0.89085  0.73691  0.33938  1.0000
  C   C10       1.0  0.89085  0.76309  0.83938  1.0000
  C   C11       1.0  0.10915  0.26309  0.66062  1.0000
  C   C12       1.0  0.10914  0.23691  0.16062  1.0000
  C   C13       1.0  0.76978  0.83791  0.44873  1.0000
  C   C14       1.0  0.76978  0.66209  0.94873  1.0000
  C   C15       1.0  0.23022  0.16209  0.55127  1.0000
  C   C16       1.0  0.23022  0.33791  0.05127  1.0000
  C   C17       1.0  0.62648  0.83916  0.48510  1.0000
  C   C18       1.0  0.62648  0.66084  0.98510  1.0000
  C   C19       1.0  0.37352  0.16084  0.51490  1.0000
  C   C20       1.0  0.37352  0.33916  0.01490  1.0000
  C   C21       1.0  0.49313  0.73836  0.58602  1.0000
  C   C22       1.0  0.49313  0.76164  0.08602  1.0000
  C   C23       1.0  0.50687  0.26164  0.41398  1.0000
  C   C24       1.0  0.50687  0.23836  0.91398  1.0000
  C   C25       1.0  0.51283  0.64966  0.66843  1.0000
  C   C26       1.0  0.51283  0.85034  0.16843  1.0000
  C   C27       1.0  0.48717  0.35034  0.33158  1.0000
  C   C28       1.0  0.48717  0.14966  0.83158  1.0000
  C   C29       1.0  0.53969  0.44774  0.70279  1.0000
  C   C30       1.0  0.53969  0.05226  0.20279  1.0000
  C   C31       1.0  0.46031  0.55226  0.29721  1.0000
  C   C32       1.0  0.46031  0.94774  0.79721  1.0000
  C   C33       1.0  0.70813  0.41836  0.73065  1.0000
  C   C34       1.0  0.70813  0.08164  0.23065  1.0000
  C   C35       1.0  0.29187  0.58164  0.26935  1.0000
  C   C36       1.0  0.29187  0.91836  0.76935  1.0000
  S   S1        1.0  0.90808  0.31904  0.38349  1.0000
  S   S2        1.0  0.90808  0.18096  0.88349  1.0000
  S   S3        1.0  0.09192  0.68096  0.61651  1.0000
  S   S4        1.0  0.09192  0.81904  0.11651  1.0000
  S   S5        1.0  0.77935  0.40715  0.17120  1.0000
  S   S6        1.0  0.77935  0.09285  0.67120  1.0000
  S   S7        1.0  0.22065  0.59285  0.82880  1.0000
  S   S8        1.0  0.22065  0.90715  0.32880  1.0000
  O   O1        1.0  0.89826  0.53211  0.33480  1.0000
  O   O2        1.0  0.89826  0.96789  0.83480  1.0000
  O   O3        1.0  0.10174  0.46789  0.66520  1.0000
  O   O4        1.0  0.10174  0.03211  0.16520  1.0000
  O   O5        1.0  0.76448  0.73997  0.38425  1.0000
  O   O6        1.0  0.76448  0.76003  0.88425  1.0000
  O   O7        1.0  0.23552  0.26003  0.61575  1.0000
  O   O8        1.0  0.23552  0.23997  0.11575  1.0000
  O   O9        1.0  0.62771  0.74168  0.54964  1.0000
  O   O10       1.0  0.62771  0.75832  0.04964  1.0000
  O   O11       1.0  0.37229  0.25832  0.45036  1.0000
  O   O12       1.0  0.37229  0.24168  0.95036  1.0000
  O   O13       1.0  0.50208  0.53539  0.62575  1.0000
  O   O14       1.0  0.50208  0.96461  0.12575  1.0000
  O   O15       1.0  0.49792  0.46461  0.37425  1.0000
  O   O16       1.0  0.49792  0.03539  0.87425  1.0000
  O   O17       1.0  0.75377  0.36595  0.64850  1.0000
  O   O18       1.0  0.75377  0.13405  0.14850  1.0000
  O   O19       1.0  0.24623  0.63405  0.35150  1.0000
  O   O20       1.0  0.24623  0.86595  0.85150  1.0000
