data_image0
_chemical_formula_structural       Cu2H20C28N16O6
_chemical_formula_sum              "Cu2 H20 C28 N16 O6"
_cell_length_a       8.29427
_cell_length_b       8.87649
_cell_length_c       12.1167
_cell_angle_alpha    69.0599
_cell_angle_beta     70.1745
_cell_angle_gamma    78.4514

_space_group_name_H-M_alt    "P 1"
_space_group_IT_number       1

loop_
  _space_group_symop_operation_xyz
  'x, y, z'

loop_
  _atom_site_type_symbol
  _atom_site_label
  _atom_site_symmetry_multiplicity
  _atom_site_fract_x
  _atom_site_fract_y
  _atom_site_fract_z
  _atom_site_occupancy
  Cu  Cu1       1.0  0.23264  0.77191  0.16697  1.0000
  Cu  Cu2       1.0  0.76735  0.22809  0.83304  1.0000
  H   H1        1.0  0.18408  0.44480  0.23149  1.0000
  H   H2        1.0  0.81592  0.55519  0.76851  1.0000
  H   H3        1.0  0.24973  0.45503  0.33695  1.0000
  H   H4        1.0  0.75028  0.54497  0.66305  1.0000
  H   H5        1.0  0.21328  0.08925  0.31094  1.0000
  H   H6        1.0  0.78671  0.91074  0.68906  1.0000
  H   H7        1.0  0.31029  0.06308  0.49235  1.0000
  H   H8        1.0  0.68972  0.93692  0.50764  1.0000
  H   H9        1.0  0.11037  0.59010  0.66581  1.0000
  H   H10       1.0  0.88964  0.40989  0.33419  1.0000
  H   H11       1.0  0.02239  0.63959  0.47746  1.0000
  H   H12       1.0  0.97761  0.36041  0.52255  1.0000
  H   H13       1.0  0.25376  0.05299  0.68891  1.0000
  H   H14       1.0  0.74624  0.94700  0.31109  1.0000
  H   H15       1.0  0.35112  0.99853  0.87623  1.0000
  H   H16       1.0  0.64888  0.00148  0.12377  1.0000
  H   H17       1.0  0.39595  0.50202  0.94546  1.0000
  H   H18       1.0  0.60405  0.49799  0.05455  1.0000
  H   H19       1.0  0.30452  0.53468  0.76072  1.0000
  H   H20       1.0  0.69548  0.46532  0.23929  1.0000
  C   C1        1.0  0.19736  0.98271  0.39302  1.0000
  C   C2        1.0  0.80264  0.01728  0.60699  1.0000
  C   C3        1.0  0.24876  0.96383  0.49464  1.0000
  C   C4        1.0  0.75124  0.03616  0.50536  1.0000
  C   C5        1.0  0.22208  0.82132  0.59664  1.0000
  C   C6        1.0  0.77793  0.17867  0.40336  1.0000
  C   C7        1.0  0.14086  0.70144  0.58980  1.0000
  C   C8        1.0  0.85915  0.29856  0.41020  1.0000
  C   C9        1.0  0.08932  0.72483  0.48767  1.0000
  C   C10       1.0  0.91068  0.27517  0.51234  1.0000
  C   C11       1.0  0.27478  0.79777  0.70588  1.0000
  C   C12       1.0  0.72523  0.20223  0.29412  1.0000
  C   C13       1.0  0.28967  0.92933  0.73956  1.0000
  C   C14       1.0  0.71033  0.07067  0.26044  1.0000
  C   C15       1.0  0.33969  0.90365  0.84292  1.0000
  C   C16       1.0  0.66030  0.09636  0.15708  1.0000
  C   C17       1.0  0.36230  0.61959  0.88457  1.0000
  C   C18       1.0  0.63769  0.38041  0.11543  1.0000
  C   C19       1.0  0.31188  0.64153  0.78219  1.0000
  C   C20       1.0  0.68813  0.35847  0.21781  1.0000
  C   C21       1.0  0.95328  0.79402  0.05008  1.0000
  C   C22       1.0  0.04671  0.20599  0.94991  1.0000
  C   C23       1.0  0.83317  0.73453  0.92535  1.0000
  C   C24       1.0  0.16683  0.26548  0.07465  1.0000
  C   C25       1.0  0.51770  0.72027  0.28489  1.0000
  C   C26       1.0  0.48230  0.27973  0.71511  1.0000
  C   C27       1.0  0.64219  0.66284  0.44215  1.0000
  C   C28       1.0  0.35780  0.33715  0.55785  1.0000
  N   N1        1.0  0.11753  0.86407  0.39089  1.0000
  N   N2        1.0  0.88247  0.13592  0.60912  1.0000
  N   N3        1.0  0.37566  0.75025  0.91386  1.0000
  N   N4        1.0  0.62434  0.24975  0.08614  1.0000
  N   N5        1.0  0.82743  0.78789  0.01327  1.0000
  N   N6        1.0  0.17257  0.21213  0.98672  1.0000
  N   N7        1.0  0.05618  0.81155  0.09077  1.0000
  N   N8        1.0  0.94382  0.18846  0.90922  1.0000
  N   N9        1.0  0.82195  0.68808  0.84852  1.0000
  N   N10       1.0  0.17804  0.31192  0.15147  1.0000
  N   N11       1.0  0.64182  0.66889  0.33373  1.0000
  N   N12       1.0  0.35818  0.33111  0.66627  1.0000
  N   N13       1.0  0.41906  0.76855  0.22658  1.0000
  N   N14       1.0  0.58093  0.23145  0.77342  1.0000
  N   N15       1.0  0.65991  0.65398  0.53699  1.0000
  N   N16       1.0  0.34009  0.34600  0.46302  1.0000
  O   O1        1.0  0.17832  0.51512  0.28100  1.0000
  O   O2        1.0  0.82169  0.48488  0.71900  1.0000
  O   O3        1.0  0.06732  0.88424  0.29356  1.0000
  O   O4        1.0  0.93267  0.11575  0.70645  1.0000
  O   O5        1.0  0.42111  0.72790  0.01338  1.0000
  O   O6        1.0  0.57889  0.27211  0.98662  1.0000
