data_image0
_chemical_formula_structural       Zn8H32C8S8N8
_chemical_formula_sum              "Zn8 H32 C8 S8 N8"
_cell_length_a       6.16701
_cell_length_b       6.29554
_cell_length_c       17.0843
_cell_angle_alpha    90.0001
_cell_angle_beta     90.0006
_cell_angle_gamma    90.0002

_space_group_name_H-M_alt    "P 1"
_space_group_IT_number       1

loop_
  _space_group_symop_operation_xyz
  'x, y, z'

loop_
  _atom_site_type_symbol
  _atom_site_label
  _atom_site_symmetry_multiplicity
  _atom_site_fract_x
  _atom_site_fract_y
  _atom_site_fract_z
  _atom_site_occupancy
  Zn  Zn1       1.0  0.32165  0.90258  0.20393  1.0000
  Zn  Zn2       1.0  0.32165  0.40258  0.29607  1.0000
  Zn  Zn3       1.0  0.82165  0.59742  0.20393  1.0000
  Zn  Zn4       1.0  0.17834  0.90258  0.70393  1.0000
  Zn  Zn5       1.0  0.67835  0.09742  0.79607  1.0000
  Zn  Zn6       1.0  0.67835  0.59742  0.70394  1.0000
  Zn  Zn7       1.0  0.17834  0.40257  0.79607  1.0000
  Zn  Zn8       1.0  0.82165  0.09742  0.29607  1.0000
  H   H1        1.0  0.63708  0.03389  0.12282  1.0000
  H   H2        1.0  0.63710  0.53389  0.37718  1.0000
  H   H3        1.0  0.13709  0.46612  0.12282  1.0000
  H   H4        1.0  0.86289  0.03388  0.62282  1.0000
  H   H5        1.0  0.36289  0.96611  0.87718  1.0000
  H   H6        1.0  0.36289  0.46611  0.62282  1.0000
  H   H7        1.0  0.86290  0.53388  0.87718  1.0000
  H   H8        1.0  0.13709  0.96611  0.37718  1.0000
  H   H9        1.0  0.44759  0.21766  0.11156  1.0000
  H   H10       1.0  0.44760  0.71766  0.38844  1.0000
  H   H11       1.0  0.94759  0.28235  0.11156  1.0000
  H   H12       1.0  0.05240  0.21767  0.61156  1.0000
  H   H13       1.0  0.55240  0.78235  0.88843  1.0000
  H   H14       1.0  0.55240  0.28234  0.61156  1.0000
  H   H15       1.0  0.05240  0.71765  0.88844  1.0000
  H   H16       1.0  0.94760  0.78236  0.38844  1.0000
  H   H17       1.0  0.25526  0.00013  0.01791  1.0000
  H   H18       1.0  0.25525  0.50014  0.48209  1.0000
  H   H19       1.0  0.75524  0.49989  0.01792  1.0000
  H   H20       1.0  0.24478  0.00013  0.51792  1.0000
  H   H21       1.0  0.74477  0.99986  0.98208  1.0000
  H   H22       1.0  0.74476  0.49986  0.51792  1.0000
  H   H23       1.0  0.24476  0.50012  0.98209  1.0000
  H   H24       1.0  0.75526  0.99989  0.48208  1.0000
  H   H25       1.0  0.43525  0.78889  0.03905  1.0000
  H   H26       1.0  0.43525  0.28891  0.46094  1.0000
  H   H27       1.0  0.93527  0.71111  0.03906  1.0000
  H   H28       1.0  0.06474  0.78890  0.53906  1.0000
  H   H29       1.0  0.56476  0.21109  0.96094  1.0000
  H   H30       1.0  0.56476  0.71110  0.53906  1.0000
  H   H31       1.0  0.06473  0.28889  0.96094  1.0000
  H   H32       1.0  0.93527  0.21110  0.46094  1.0000
  C   C1        1.0  0.42479  0.96271  0.03269  1.0000
  C   C2        1.0  0.42479  0.46271  0.46731  1.0000
  C   C3        1.0  0.92479  0.53731  0.03270  1.0000
  C   C4        1.0  0.07520  0.96271  0.53269  1.0000
  C   C5        1.0  0.57520  0.03731  0.96730  1.0000
  C   C6        1.0  0.57521  0.53730  0.53269  1.0000
  C   C7        1.0  0.07521  0.46270  0.96731  1.0000
  C   C8        1.0  0.92479  0.03731  0.46730  1.0000
  S   S1        1.0  0.95170  0.94209  0.18238  1.0000
  S   S2        1.0  0.95170  0.44209  0.31762  1.0000
  S   S3        1.0  0.45170  0.55792  0.18239  1.0000
  S   S4        1.0  0.54829  0.94208  0.68238  1.0000
  S   S5        1.0  0.04830  0.05791  0.81762  1.0000
  S   S6        1.0  0.04829  0.55791  0.68238  1.0000
  S   S7        1.0  0.54829  0.44208  0.81762  1.0000
  S   S8        1.0  0.45170  0.05792  0.31761  1.0000
  N   N1        1.0  0.47498  0.05629  0.10933  1.0000
  N   N2        1.0  0.47496  0.55631  0.39066  1.0000
  N   N3        1.0  0.97495  0.44370  0.10934  1.0000
  N   N4        1.0  0.02505  0.05630  0.60935  1.0000
  N   N5        1.0  0.52507  0.94367  0.89065  1.0000
  N   N6        1.0  0.52505  0.44369  0.60935  1.0000
  N   N7        1.0  0.02504  0.55629  0.89066  1.0000
  N   N8        1.0  0.97497  0.94369  0.39067  1.0000
