data_image0
_chemical_formula_structural       Zn2H30C54N8O8F2
_chemical_formula_sum              "Zn2 H30 C54 N8 O8 F2"
_cell_length_a       9.69825
_cell_length_b       10.6677
_cell_length_c       11.9721
_cell_angle_alpha    63.6017
_cell_angle_beta     69.3356
_cell_angle_gamma    81.067

_space_group_name_H-M_alt    "P 1"
_space_group_IT_number       1

loop_
  _space_group_symop_operation_xyz
  'x, y, z'

loop_
  _atom_site_type_symbol
  _atom_site_label
  _atom_site_symmetry_multiplicity
  _atom_site_fract_x
  _atom_site_fract_y
  _atom_site_fract_z
  _atom_site_occupancy
  Zn  Zn1       1.0  0.50927  0.10872  0.85351  1.0000
  Zn  Zn2       1.0  0.49073  0.89128  0.14649  1.0000
  H   H1        1.0  0.84362  0.92802  0.91244  1.0000
  H   H2        1.0  0.15638  0.07197  0.08756  1.0000
  H   H3        1.0  0.91034  0.18547  0.08083  1.0000
  H   H4        1.0  0.08967  0.81452  0.91917  1.0000
  H   H5        1.0  0.47472  0.32480  0.97547  1.0000
  H   H6        1.0  0.52528  0.67520  0.02453  1.0000
  H   H7        1.0  0.29166  0.51794  0.99705  1.0000
  H   H8        1.0  0.70834  0.48206  0.00295  1.0000
  H   H9        1.0  0.09286  0.57250  0.89465  1.0000
  H   H10       1.0  0.90714  0.42750  0.10535  1.0000
  H   H11       1.0  0.48508  0.99370  0.65667  1.0000
  H   H12       1.0  0.51492  0.00630  0.34333  1.0000
  H   H13       1.0  0.29363  0.01123  0.55190  1.0000
  H   H14       1.0  0.70636  0.98877  0.44810  1.0000
  H   H15       1.0  0.08354  0.17495  0.57258  1.0000
  H   H16       1.0  0.91646  0.82506  0.42742  1.0000
  H   H17       1.0  0.70209  0.66479  0.80480  1.0000
  H   H18       1.0  0.29791  0.33521  0.19520  1.0000
  H   H19       1.0  0.46128  0.77609  0.78526  1.0000
  H   H20       1.0  0.53872  0.22391  0.21474  1.0000
  H   H21       1.0  0.46740  0.58666  0.53301  1.0000
  H   H22       1.0  0.53260  0.41334  0.46699  1.0000
  H   H23       1.0  0.70137  0.46221  0.56342  1.0000
  H   H24       1.0  0.29863  0.53779  0.43658  1.0000
  H   H25       1.0  0.90711  0.24451  0.42231  1.0000
  H   H26       1.0  0.09289  0.75550  0.57769  1.0000
  H   H27       1.0  0.88155  0.82622  0.72885  1.0000
  H   H28       1.0  0.11845  0.17378  0.27115  1.0000
  H   H29       1.0  0.86821  0.32352  0.64583  1.0000
  H   H30       1.0  0.13179  0.67648  0.35417  1.0000
  C   C1        1.0  0.71627  0.13373  0.99214  1.0000
  C   C2        1.0  0.28374  0.86626  0.00786  1.0000
  C   C3        1.0  0.86247  0.06369  0.99633  1.0000
  C   C4        1.0  0.13754  0.93630  0.00367  1.0000
  C   C5        1.0  0.91292  0.95894  0.95060  1.0000
  C   C6        1.0  0.08708  0.04105  0.04940  1.0000
  C   C7        1.0  0.95083  0.10408  0.04562  1.0000
  C   C8        1.0  0.04918  0.89591  0.95438  1.0000
  C   C9        1.0  0.38539  0.35332  0.93282  1.0000
  C   C10       1.0  0.61461  0.64668  0.06718  1.0000
  C   C11       1.0  0.28358  0.45981  0.94442  1.0000
  C   C12       1.0  0.71642  0.54019  0.05558  1.0000
  C   C13       1.0  0.17336  0.49063  0.88773  1.0000
  C   C14       1.0  0.82664  0.50937  0.11227  1.0000
  C   C15       1.0  0.16494  0.41519  0.81924  1.0000
  C   C16       1.0  0.83505  0.58481  0.18076  1.0000
  C   C17       1.0  0.27286  0.31045  0.81048  1.0000
  C   C18       1.0  0.72714  0.68955  0.18952  1.0000
  C   C19       1.0  0.27145  0.22921  0.74076  1.0000
  C   C20       1.0  0.72855  0.77079  0.25924  1.0000
  C   C21       1.0  0.39070  0.06336  0.66319  1.0000
  C   C22       1.0  0.60931  0.93664  0.33681  1.0000
  C   C23       1.0  0.28409  0.07410  0.60509  1.0000
  C   C24       1.0  0.71591  0.92590  0.39491  1.0000
  C   C25       1.0  0.16686  0.16443  0.61761  1.0000
  C   C26       1.0  0.83314  0.83557  0.38239  1.0000
  C   C27       1.0  0.15745  0.24499  0.68658  1.0000
  C   C28       1.0  0.84255  0.75501  0.31342  1.0000
  C   C29       1.0  0.04647  0.34496  0.70396  1.0000
  C   C30       1.0  0.95353  0.65504  0.29604  1.0000
  C   C31       1.0  0.05203  0.43206  0.76231  1.0000
  C   C32       1.0  0.94797  0.56795  0.23769  1.0000
  C   C33       1.0  0.85607  0.48900  0.70523  1.0000
  C   C34       1.0  0.14393  0.51100  0.29477  1.0000
  C   C35       1.0  0.71850  0.55613  0.68600  1.0000
  C   C36       1.0  0.28150  0.44387  0.31400  1.0000
  C   C37       1.0  0.65047  0.64711  0.74585  1.0000
  C   C38       1.0  0.34953  0.35290  0.25415  1.0000
  C   C39       1.0  0.51810  0.71255  0.73238  1.0000
  C   C40       1.0  0.48189  0.28746  0.26762  1.0000
  C   C41       1.0  0.45673  0.68877  0.65474  1.0000
  C   C42       1.0  0.54327  0.31123  0.34526  1.0000
  C   C43       1.0  0.52037  0.60046  0.59322  1.0000
  C   C44       1.0  0.47963  0.39955  0.40678  1.0000
  C   C45       1.0  0.65133  0.53294  0.61008  1.0000
  C   C46       1.0  0.34867  0.46706  0.38991  1.0000
  C   C47       1.0  0.75456  0.08339  0.67621  1.0000
  C   C48       1.0  0.24544  0.91661  0.32379  1.0000
  C   C49       1.0  0.88066  0.03994  0.58515  1.0000
  C   C50       1.0  0.11934  0.96007  0.41485  1.0000
  C   C51       1.0  0.94785  0.13748  0.45596  1.0000
  C   C52       1.0  0.05215  0.86253  0.54403  1.0000
  C   C53       1.0  0.93349  0.90214  0.62862  1.0000
  C   C54       1.0  0.06651  0.09786  0.37138  1.0000
  N   N1        1.0  0.38320  0.13816  0.72939  1.0000
  N   N2        1.0  0.61679  0.86184  0.27061  1.0000
  N   N3        1.0  0.37996  0.28169  0.86707  1.0000
  N   N4        1.0  0.62004  0.71831  0.13293  1.0000
  N   N5        1.0  0.93449  0.52216  0.76072  1.0000
  N   N6        1.0  0.06551  0.47784  0.23928  1.0000
  N   N7        1.0  0.92095  0.38275  0.66834  1.0000
  N   N8        1.0  0.07905  0.61725  0.33166  1.0000
  O   O1        1.0  0.62113  0.06283  0.98622  1.0000
  O   O2        1.0  0.37887  0.93717  0.01377  1.0000
  O   O3        1.0  0.69135  0.25049  0.99440  1.0000
  O   O4        1.0  0.30866  0.74951  0.00561  1.0000
  O   O5        1.0  0.66142  0.98909  0.76851  1.0000
  O   O6        1.0  0.33858  0.01091  0.23148  1.0000
  O   O7        1.0  0.74170  0.21049  0.66024  1.0000
  O   O8        1.0  0.25830  0.78951  0.33975  1.0000
  F   F1        1.0  0.32721  0.75382  0.63916  1.0000
  F   F2        1.0  0.67279  0.24618  0.36084  1.0000
