data_image0
_chemical_formula_structural       Zn8H40C64Br4N12O20
_chemical_formula_sum              "Zn8 H40 C64 Br4 N12 O20"
_cell_length_a       12.0954
_cell_length_b       12.0955
_cell_length_c       14.9897
_cell_angle_alpha    66.7036
_cell_angle_beta     66.7037
_cell_angle_gamma    68.5179

_space_group_name_H-M_alt    "P 1"
_space_group_IT_number       1

loop_
  _space_group_symop_operation_xyz
  'x, y, z'

loop_
  _atom_site_type_symbol
  _atom_site_label
  _atom_site_symmetry_multiplicity
  _atom_site_fract_x
  _atom_site_fract_y
  _atom_site_fract_z
  _atom_site_occupancy
  Zn  Zn1       1.0  0.94736  0.67257  0.84330  1.0000
  Zn  Zn2       1.0  0.32743  0.05264  0.65670  1.0000
  Zn  Zn3       1.0  0.05264  0.32743  0.15670  1.0000
  Zn  Zn4       1.0  0.67257  0.94736  0.34330  1.0000
  Zn  Zn5       1.0  0.30136  0.93525  0.50275  1.0000
  Zn  Zn6       1.0  0.06475  0.69864  0.99725  1.0000
  Zn  Zn7       1.0  0.69864  0.06475  0.49725  1.0000
  Zn  Zn8       1.0  0.93525  0.30136  0.00275  1.0000
  H   H1        1.0  0.16530  0.53759  0.75996  1.0000
  H   H2        1.0  0.46241  0.83470  0.74004  1.0000
  H   H3        1.0  0.83470  0.46241  0.24004  1.0000
  H   H4        1.0  0.53759  0.16530  0.25996  1.0000
  H   H5        1.0  0.36909  0.38299  0.73708  1.0000
  H   H6        1.0  0.61701  0.63091  0.76292  1.0000
  H   H7        1.0  0.63091  0.61701  0.26292  1.0000
  H   H8        1.0  0.38299  0.36909  0.23707  1.0000
  H   H9        1.0  0.55947  0.45354  0.60944  1.0000
  H   H10       1.0  0.54646  0.44053  0.89056  1.0000
  H   H11       1.0  0.44053  0.54646  0.39056  1.0000
  H   H12       1.0  0.45354  0.55947  0.10944  1.0000
  H   H13       1.0  0.53280  0.67883  0.50634  1.0000
  H   H14       1.0  0.32117  0.46720  0.99366  1.0000
  H   H15       1.0  0.46720  0.32117  0.49366  1.0000
  H   H16       1.0  0.67883  0.53281  0.00634  1.0000
  H   H17       1.0  0.07962  0.50504  0.95468  1.0000
  H   H18       1.0  0.49495  0.92039  0.54532  1.0000
  H   H19       1.0  0.92039  0.49495  0.04531  1.0000
  H   H20       1.0  0.50504  0.07962  0.45468  1.0000
  H   H21       1.0  0.89202  0.29694  0.73052  1.0000
  H   H22       1.0  0.70306  0.10798  0.76948  1.0000
  H   H23       1.0  0.10798  0.70306  0.26948  1.0000
  H   H24       1.0  0.29694  0.89203  0.23052  1.0000
  H   H25       1.0  0.78706  0.57331  0.46803  1.0000
  H   H26       1.0  0.42669  0.21294  0.03196  1.0000
  H   H27       1.0  0.21294  0.42669  0.53197  1.0000
  H   H28       1.0  0.57331  0.78706  0.96804  1.0000
  H   H29       1.0  0.85360  0.68537  0.67692  1.0000
  H   H30       1.0  0.31463  0.14640  0.82308  1.0000
  H   H31       1.0  0.14640  0.31463  0.32308  1.0000
  H   H32       1.0  0.68537  0.85360  0.17692  1.0000
  H   H33       1.0  0.99356  0.07899  0.57085  1.0000
  H   H34       1.0  0.92101  0.00644  0.92916  1.0000
  H   H35       1.0  0.00644  0.92101  0.42915  1.0000
  H   H36       1.0  0.07899  0.99356  0.07084  1.0000
  H   H37       1.0  0.83886  0.92917  0.71919  1.0000
  H   H38       1.0  0.07083  0.16114  0.78082  1.0000
  H   H39       1.0  0.16114  0.07083  0.28081  1.0000
  H   H40       1.0  0.92917  0.83886  0.21919  1.0000
  C   C1        1.0  0.24160  0.69085  0.64598  1.0000
  C   C2        1.0  0.30915  0.75840  0.85402  1.0000
  C   C3        1.0  0.75840  0.30915  0.35402  1.0000
  C   C4        1.0  0.69085  0.24160  0.14598  1.0000
  C   C5        1.0  0.24811  0.56634  0.70454  1.0000
  C   C6        1.0  0.43366  0.75189  0.79546  1.0000
  C   C7        1.0  0.75189  0.43366  0.29546  1.0000
  C   C8        1.0  0.56634  0.24811  0.20454  1.0000
  C   C9        1.0  0.36260  0.47997  0.69178  1.0000
  C   C10       1.0  0.52003  0.63739  0.80822  1.0000
  C   C11       1.0  0.63740  0.52003  0.30822  1.0000
  C   C12       1.0  0.47997  0.36260  0.19178  1.0000
  C   C13       1.0  0.46832  0.51859  0.62102  1.0000
  C   C14       1.0  0.48141  0.53168  0.87898  1.0000
  C   C15       1.0  0.53168  0.48141  0.37898  1.0000
  C   C16       1.0  0.51859  0.46832  0.12102  1.0000
  C   C17       1.0  0.45408  0.64333  0.56399  1.0000
  C   C18       1.0  0.35667  0.54592  0.93601  1.0000
  C   C19       1.0  0.54592  0.35667  0.43601  1.0000
  C   C20       1.0  0.64333  0.45408  0.06399  1.0000
  C   C21       1.0  0.90305  0.45371  0.81201  1.0000
  C   C22       1.0  0.54629  0.09695  0.68799  1.0000
  C   C23       1.0  0.09695  0.54629  0.18799  1.0000
  C   C24       1.0  0.45371  0.90305  0.31201  1.0000
  C   C25       1.0  0.87927  0.48703  0.71271  1.0000
  C   C26       1.0  0.51297  0.12073  0.78729  1.0000
  C   C27       1.0  0.12073  0.51297  0.28729  1.0000
  C   C28       1.0  0.48703  0.87927  0.21271  1.0000
  C   C29       1.0  0.87381  0.39291  0.68332  1.0000
  C   C30       1.0  0.60709  0.12620  0.81668  1.0000
  C   C31       1.0  0.12620  0.60709  0.31668  1.0000
  C   C32       1.0  0.39291  0.87380  0.18332  1.0000
  C   C33       1.0  0.84003  0.42543  0.59596  1.0000
  C   C34       1.0  0.57457  0.15997  0.90404  1.0000
  C   C35       1.0  0.15997  0.57457  0.40404  1.0000
  C   C36       1.0  0.42543  0.84003  0.09596  1.0000
  C   C37       1.0  0.81392  0.54829  0.53614  1.0000
  C   C38       1.0  0.45171  0.18608  0.96385  1.0000
  C   C39       1.0  0.18608  0.45171  0.46385  1.0000
  C   C40       1.0  0.54829  0.81392  0.03615  1.0000
  C   C41       1.0  0.81914  0.64197  0.56599  1.0000
  C   C42       1.0  0.35803  0.18086  0.93401  1.0000
  C   C43       1.0  0.18086  0.35803  0.43401  1.0000
  C   C44       1.0  0.64197  0.81914  0.06599  1.0000
  C   C45       1.0  0.85196  0.61128  0.65399  1.0000
  C   C46       1.0  0.38872  0.14804  0.84601  1.0000
  C   C47       1.0  0.14804  0.38872  0.34601  1.0000
  C   C48       1.0  0.61128  0.85196  0.15399  1.0000
  C   C49       1.0  0.77923  0.77582  0.50678  1.0000
  C   C50       1.0  0.22418  0.22078  0.99322  1.0000
  C   C51       1.0  0.22077  0.22418  0.49322  1.0000
  C   C52       1.0  0.77582  0.77922  0.00678  1.0000
  C   C53       1.0  0.01522  0.98073  0.61040  1.0000
  C   C54       1.0  0.01927  0.98478  0.88960  1.0000
  C   C55       1.0  0.98478  0.01927  0.38960  1.0000
  C   C56       1.0  0.98073  0.01522  0.11040  1.0000
  C   C57       1.0  0.93860  0.90640  0.68471  1.0000
  C   C58       1.0  0.09359  0.06140  0.81529  1.0000
  C   C59       1.0  0.06140  0.09359  0.31529  1.0000
  C   C60       1.0  0.90641  0.93860  0.18471  1.0000
  C   C61       1.0  0.12879  0.79157  0.65199  1.0000
  C   C62       1.0  0.20843  0.87121  0.84802  1.0000
  C   C63       1.0  0.87121  0.20843  0.34801  1.0000
  C   C64       1.0  0.79158  0.12879  0.15198  1.0000
  Br  Br1       1.0  0.82015  0.30042  0.56066  1.0000
  Br  Br2       1.0  0.69958  0.17985  0.93934  1.0000
  Br  Br3       1.0  0.17985  0.69958  0.43934  1.0000
  Br  Br4       1.0  0.30042  0.82015  0.06066  1.0000
  N   N1        1.0  0.34420  0.72684  0.57538  1.0000
  N   N2        1.0  0.27316  0.65580  0.92462  1.0000
  N   N3        1.0  0.65580  0.27316  0.42462  1.0000
  N   N4        1.0  0.72684  0.34420  0.07538  1.0000
  N   N5        1.0  0.13367  0.90808  0.59044  1.0000
  N   N6        1.0  0.09192  0.86633  0.90956  1.0000
  N   N7        1.0  0.86633  0.09192  0.40956  1.0000
  N   N8        1.0  0.90808  0.13367  0.09043  1.0000
  N   N9        1.0  0.01070  0.78706  0.71124  1.0000
  N   N10       1.0  0.21294  0.98930  0.78876  1.0000
  N   N11       1.0  0.98930  0.21294  0.28876  1.0000
  N   N12       1.0  0.78706  0.01070  0.21123  1.0000
  O   O1        1.0  0.93469  0.33894  0.85917  1.0000
  O   O2        1.0  0.66106  0.06531  0.64083  1.0000
  O   O3        1.0  0.06531  0.66106  0.14083  1.0000
  O   O4        1.0  0.33894  0.93469  0.35917  1.0000
  O   O5        1.0  0.88370  0.54001  0.84895  1.0000
  O   O6        1.0  0.45999  0.11630  0.65105  1.0000
  O   O7        1.0  0.11630  0.45999  0.15105  1.0000
  O   O8        1.0  0.54001  0.88370  0.34895  1.0000
  O   O9        1.0  0.76333  0.79177  0.42218  1.0000
  O   O10       1.0  0.20823  0.23668  0.07781  1.0000
  O   O11       1.0  0.23667  0.20823  0.57782  1.0000
  O   O12       1.0  0.79177  0.76332  0.92219  1.0000
  O   O13       1.0  0.76148  0.85905  0.54515  1.0000
  O   O14       1.0  0.14095  0.23852  0.95485  1.0000
  O   O15       1.0  0.23852  0.14095  0.45485  1.0000
  O   O16       1.0  0.85905  0.76148  0.04515  1.0000
  O   O17       1.0  0.06010  0.59480  0.92543  1.0000
  O   O18       1.0  0.40520  0.93990  0.57457  1.0000
  O   O19       1.0  0.93989  0.40520  0.07458  1.0000
  O   O20       1.0  0.59480  0.06010  0.42543  1.0000
