data_image0
_chemical_formula_structural       Zn4H40C56N8O16
_chemical_formula_sum              "Zn4 H40 C56 N8 O16"
_cell_length_a       7.43673
_cell_length_b       10.2284
_cell_length_c       16.3549
_cell_angle_alpha    89.9999
_cell_angle_beta     92.6362
_cell_angle_gamma    90.0004

_space_group_name_H-M_alt    "P 1"
_space_group_IT_number       1

loop_
  _space_group_symop_operation_xyz
  'x, y, z'

loop_
  _atom_site_type_symbol
  _atom_site_label
  _atom_site_symmetry_multiplicity
  _atom_site_fract_x
  _atom_site_fract_y
  _atom_site_fract_z
  _atom_site_occupancy
  Zn  Zn1       1.0  0.13375  0.16934  0.49654  1.0000
  Zn  Zn2       1.0  0.36624  0.66934  0.00346  1.0000
  Zn  Zn3       1.0  0.86624  0.83066  0.50346  1.0000
  Zn  Zn4       1.0  0.63376  0.33066  0.99654  1.0000
  H   H1        1.0  0.79763  0.10800  0.64581  1.0000
  H   H2        1.0  0.70238  0.60800  0.85419  1.0000
  H   H3        1.0  0.20237  0.89201  0.35419  1.0000
  H   H4        1.0  0.29762  0.39201  0.14581  1.0000
  H   H5        1.0  0.18170  0.79481  0.72932  1.0000
  H   H6        1.0  0.31830  0.29481  0.77069  1.0000
  H   H7        1.0  0.81830  0.20519  0.27068  1.0000
  H   H8        1.0  0.68170  0.70519  0.22932  1.0000
  H   H9        1.0  0.69158  0.92354  0.83230  1.0000
  H   H10       1.0  0.80843  0.42354  0.66771  1.0000
  H   H11       1.0  0.30842  0.07646  0.16771  1.0000
  H   H12       1.0  0.19158  0.57646  0.33229  1.0000
  H   H13       1.0  0.51596  0.04239  0.58717  1.0000
  H   H14       1.0  0.98404  0.54239  0.91283  1.0000
  H   H15       1.0  0.48403  0.95761  0.41283  1.0000
  H   H16       1.0  0.01596  0.45761  0.08717  1.0000
  H   H17       1.0  0.05466  0.07425  0.71798  1.0000
  H   H18       1.0  0.44534  0.57425  0.78202  1.0000
  H   H19       1.0  0.94533  0.92575  0.28202  1.0000
  H   H20       1.0  0.55466  0.42575  0.21798  1.0000
  H   H21       1.0  0.95476  0.93453  0.75794  1.0000
  H   H22       1.0  0.54524  0.43453  0.74206  1.0000
  H   H23       1.0  0.04523  0.06547  0.24206  1.0000
  H   H24       1.0  0.45476  0.56547  0.25794  1.0000
  H   H25       1.0  0.21950  0.02094  0.85986  1.0000
  H   H26       1.0  0.28050  0.52094  0.64014  1.0000
  H   H27       1.0  0.78049  0.97906  0.14014  1.0000
  H   H28       1.0  0.71950  0.47906  0.35986  1.0000
  H   H29       1.0  0.25096  0.11911  0.00144  1.0000
  H   H30       1.0  0.24905  0.61911  0.49857  1.0000
  H   H31       1.0  0.74905  0.88089  0.99856  1.0000
  H   H32       1.0  0.75095  0.38089  0.50143  1.0000
  H   H33       1.0  0.99022  0.24359  0.05336  1.0000
  H   H34       1.0  0.50977  0.74360  0.44664  1.0000
  H   H35       1.0  0.00978  0.75641  0.94664  1.0000
  H   H36       1.0  0.49022  0.25640  0.55335  1.0000
  H   H37       1.0  0.69422  0.19758  0.83397  1.0000
  H   H38       1.0  0.80579  0.69758  0.66604  1.0000
  H   H39       1.0  0.30578  0.80242  0.16604  1.0000
  H   H40       1.0  0.19421  0.30242  0.33396  1.0000
  C   C1        1.0  0.33414  0.92028  0.65133  1.0000
  C   C2        1.0  0.16587  0.42027  0.84867  1.0000
  C   C3        1.0  0.66586  0.07972  0.34867  1.0000
  C   C4        1.0  0.83413  0.57973  0.15133  1.0000
  C   C5        1.0  0.30434  0.85086  0.72319  1.0000
  C   C6        1.0  0.19566  0.35085  0.77681  1.0000
  C   C7        1.0  0.69565  0.14915  0.27681  1.0000
  C   C8        1.0  0.80434  0.64915  0.22319  1.0000
  C   C9        1.0  0.43386  0.85347  0.78759  1.0000
  C   C10       1.0  0.06615  0.35346  0.71242  1.0000
  C   C11       1.0  0.56614  0.14654  0.21241  1.0000
  C   C12       1.0  0.93386  0.64653  0.28758  1.0000
  C   C13       1.0  0.59365  0.92398  0.78076  1.0000
  C   C14       1.0  0.90635  0.42397  0.71925  1.0000
  C   C15       1.0  0.40634  0.07602  0.21925  1.0000
  C   C16       1.0  0.09365  0.57602  0.28075  1.0000
  C   C17       1.0  0.62391  0.99572  0.70908  1.0000
  C   C18       1.0  0.87610  0.49572  0.79093  1.0000
  C   C19       1.0  0.37609  0.00428  0.29092  1.0000
  C   C20       1.0  0.12390  0.50428  0.20907  1.0000
  C   C21       1.0  0.49268  0.99124  0.64413  1.0000
  C   C22       1.0  0.00733  0.49124  0.85587  1.0000
  C   C23       1.0  0.50732  0.00876  0.35587  1.0000
  C   C24       1.0  0.99268  0.50876  0.14413  1.0000
  C   C25       1.0  0.19265  0.91953  0.58356  1.0000
  C   C26       1.0  0.30736  0.41953  0.91643  1.0000
  C   C27       1.0  0.80735  0.08047  0.41643  1.0000
  C   C28       1.0  0.69265  0.58047  0.08357  1.0000
  C   C29       1.0  0.39513  0.78057  0.86361  1.0000
  C   C30       1.0  0.10488  0.28057  0.63639  1.0000
  C   C31       1.0  0.60487  0.21943  0.13639  1.0000
  C   C32       1.0  0.89512  0.71943  0.36361  1.0000
  C   C33       1.0  0.93836  0.04147  0.75140  1.0000
  C   C34       1.0  0.56164  0.54146  0.74860  1.0000
  C   C35       1.0  0.06163  0.95854  0.24860  1.0000
  C   C36       1.0  0.43836  0.45854  0.25140  1.0000
  C   C37       1.0  0.95355  0.10063  0.83620  1.0000
  C   C38       1.0  0.54645  0.60063  0.66380  1.0000
  C   C39       1.0  0.04645  0.89937  0.16380  1.0000
  C   C40       1.0  0.45355  0.39937  0.33620  1.0000
  C   C41       1.0  0.11111  0.07856  0.88454  1.0000
  C   C42       1.0  0.38889  0.57857  0.61546  1.0000
  C   C43       1.0  0.88889  0.92143  0.11546  1.0000
  C   C44       1.0  0.61110  0.42143  0.38454  1.0000
  C   C45       1.0  0.12876  0.13118  0.96277  1.0000
  C   C46       1.0  0.37124  0.63118  0.53723  1.0000
  C   C47       1.0  0.87124  0.86882  0.03723  1.0000
  C   C48       1.0  0.62875  0.36882  0.46277  1.0000
  C   C49       1.0  0.98666  0.20331  0.99181  1.0000
  C   C50       1.0  0.51334  0.70331  0.50820  1.0000
  C   C51       1.0  0.01334  0.79669  0.00820  1.0000
  C   C52       1.0  0.48665  0.29669  0.49180  1.0000
  C   C53       1.0  0.81845  0.17572  0.86933  1.0000
  C   C54       1.0  0.68155  0.67572  0.63067  1.0000
  C   C55       1.0  0.18155  0.82428  0.13067  1.0000
  C   C56       1.0  0.31844  0.32428  0.36933  1.0000
  N   N1        1.0  0.83396  0.22493  0.94610  1.0000
  N   N2        1.0  0.66604  0.72494  0.55390  1.0000
  N   N3        1.0  0.16605  0.77506  0.05390  1.0000
  N   N4        1.0  0.33395  0.27506  0.44609  1.0000
  N   N5        1.0  0.77677  0.07090  0.70232  1.0000
  N   N6        1.0  0.72324  0.57090  0.79768  1.0000
  N   N7        1.0  0.22323  0.92910  0.29768  1.0000
  N   N8        1.0  0.27676  0.42910  0.20232  1.0000
  O   O1        1.0  0.21682  0.98467  0.51809  1.0000
  O   O2        1.0  0.28320  0.48466  0.98191  1.0000
  O   O3        1.0  0.78319  0.01533  0.48191  1.0000
  O   O4        1.0  0.71680  0.51533  0.01809  1.0000
  O   O5        1.0  0.05158  0.85158  0.59505  1.0000
  O   O6        1.0  0.44842  0.35157  0.90495  1.0000
  O   O7        1.0  0.94842  0.14843  0.40495  1.0000
  O   O8        1.0  0.55158  0.64843  0.09505  1.0000
  O   O9        1.0  0.24055  0.73199  0.87102  1.0000
  O   O10       1.0  0.25946  0.23199  0.62898  1.0000
  O   O11       1.0  0.75945  0.26801  0.12899  1.0000
  O   O12       1.0  0.74055  0.76801  0.37102  1.0000
  O   O13       1.0  0.52022  0.76727  0.92099  1.0000
  O   O14       1.0  0.97978  0.26727  0.57901  1.0000
  O   O15       1.0  0.47978  0.23273  0.07901  1.0000
  O   O16       1.0  0.02022  0.73273  0.42099  1.0000
