data_image0
_chemical_formula_structural       K4Na2H10C12O14
_chemical_formula_sum              "K4 Na2 H10 C12 O14"
_cell_length_a       5.52829
_cell_length_b       7.59924
_cell_length_c       11.3312
_cell_angle_alpha    82.579
_cell_angle_beta     88.8572
_cell_angle_gamma    83.8868

_space_group_name_H-M_alt    "P 1"
_space_group_IT_number       1

loop_
  _space_group_symop_operation_xyz
  'x, y, z'

loop_
  _atom_site_type_symbol
  _atom_site_label
  _atom_site_symmetry_multiplicity
  _atom_site_fract_x
  _atom_site_fract_y
  _atom_site_fract_z
  _atom_site_occupancy
  K   K1        1.0  0.76141  0.53580  0.86463  1.0000
  K   K2        1.0  0.23858  0.46421  0.13536  1.0000
  K   K3        1.0  0.25528  0.63988  0.41326  1.0000
  K   K4        1.0  0.74470  0.36012  0.58674  1.0000
  Na  Na1       1.0  0.74280  0.86774  0.59780  1.0000
  Na  Na2       1.0  0.25721  0.13227  0.40220  1.0000
  H   H1        1.0  0.27034  0.69311  0.87869  1.0000
  H   H2        1.0  0.72965  0.30689  0.12131  1.0000
  H   H3        1.0  0.00567  0.81500  0.81294  1.0000
  H   H4        1.0  0.99434  0.18498  0.18706  1.0000
  H   H5        1.0  0.25541  0.98669  0.96544  1.0000
  H   H6        1.0  0.74458  0.01331  0.03456  1.0000
  H   H7        1.0  0.03610  0.10834  0.86621  1.0000
  H   H8        1.0  0.96391  0.89166  0.13379  1.0000
  H   H9        1.0  0.63834  0.02172  0.81185  1.0000
  H   H10       1.0  0.36166  0.97828  0.18815  1.0000
  C   C1        1.0  0.23034  0.66678  0.69323  1.0000
  C   C2        1.0  0.76967  0.33323  0.30677  1.0000
  C   C3        1.0  0.19933  0.77716  0.79793  1.0000
  C   C4        1.0  0.80067  0.22284  0.20207  1.0000
  C   C5        1.0  0.32546  0.94870  0.78204  1.0000
  C   C6        1.0  0.67455  0.05130  0.21796  1.0000
  C   C7        1.0  0.23139  0.06745  0.87748  1.0000
  C   C8        1.0  0.76861  0.93255  0.12252  1.0000
  C   C9        1.0  0.36563  0.23259  0.88140  1.0000
  C   C10       1.0  0.63437  0.76740  0.11860  1.0000
  C   C11       1.0  0.26051  0.05301  0.65736  1.0000
  C   C12       1.0  0.73949  0.94700  0.34264  1.0000
  O   O1        1.0  0.03939  0.61365  0.65348  1.0000
  O   O2        1.0  0.96062  0.38637  0.34652  1.0000
  O   O3        1.0  0.44288  0.63607  0.65061  1.0000
  O   O4        1.0  0.55714  0.36393  0.34938  1.0000
  O   O5        1.0  0.25100  0.36818  0.91864  1.0000
  O   O6        1.0  0.74901  0.63182  0.08135  1.0000
  O   O7        1.0  0.59109  0.22291  0.85031  1.0000
  O   O8        1.0  0.40890  0.77709  0.14969  1.0000
  O   O9        1.0  0.03949  0.06456  0.62596  1.0000
  O   O10       1.0  0.96051  0.93544  0.37405  1.0000
  O   O11       1.0  0.42853  0.11976  0.59455  1.0000
  O   O12       1.0  0.57146  0.88024  0.40544  1.0000
  O   O13       1.0  0.58318  0.90459  0.79539  1.0000
  O   O14       1.0  0.41682  0.09540  0.20461  1.0000
