data_image0
_chemical_formula_structural       Pr2Cu2H28C32N4O26
_chemical_formula_sum              "Pr2 Cu2 H28 C32 N4 O26"
_cell_length_a       8.13922
_cell_length_b       11.0056
_cell_length_c       12.248
_cell_angle_alpha    108.47
_cell_angle_beta     101.4
_cell_angle_gamma    98.3781

_space_group_name_H-M_alt    "P 1"
_space_group_IT_number       1

loop_
  _space_group_symop_operation_xyz
  'x, y, z'

loop_
  _atom_site_type_symbol
  _atom_site_label
  _atom_site_symmetry_multiplicity
  _atom_site_fract_x
  _atom_site_fract_y
  _atom_site_fract_z
  _atom_site_occupancy
  Pr  Pr1       1.0  0.95363  0.23684  0.42351  1.0000
  Pr  Pr2       1.0  0.04637  0.76316  0.57649  1.0000
  Cu  Cu1       1.0  0.00814  0.73916  0.04268  1.0000
  Cu  Cu2       1.0  0.99186  0.26084  0.95732  1.0000
  H   H1        1.0  0.96564  0.15651  0.65746  1.0000
  H   H2        1.0  0.03436  0.84349  0.34254  1.0000
  H   H3        1.0  0.11902  0.11843  0.60729  1.0000
  H   H4        1.0  0.88098  0.88156  0.39271  1.0000
  H   H5        1.0  0.25065  0.47359  0.57680  1.0000
  H   H6        1.0  0.74935  0.52641  0.42320  1.0000
  H   H7        1.0  0.22691  0.37591  0.64172  1.0000
  H   H8        1.0  0.77309  0.62409  0.35828  1.0000
  H   H9        1.0  0.62563  0.28802  0.28727  1.0000
  H   H10       1.0  0.37436  0.71198  0.71273  1.0000
  H   H11       1.0  0.76485  0.38303  0.25913  1.0000
  H   H12       1.0  0.23516  0.61697  0.74088  1.0000
  H   H13       1.0  0.45948  0.03267  0.21107  1.0000
  H   H14       1.0  0.54053  0.96733  0.78894  1.0000
  H   H15       1.0  0.55927  0.13173  0.07154  1.0000
  H   H16       1.0  0.44073  0.86828  0.92846  1.0000
  H   H17       1.0  0.35015  0.22704  0.95735  1.0000
  H   H18       1.0  0.64985  0.77296  0.04266  1.0000
  H   H19       1.0  0.44169  0.49967  0.30452  1.0000
  H   H20       1.0  0.55831  0.50034  0.69548  1.0000
  H   H21       1.0  0.55989  0.59073  0.16538  1.0000
  H   H22       1.0  0.44011  0.40927  0.83462  1.0000
  H   H23       1.0  0.36683  0.68734  0.04286  1.0000
  H   H24       1.0  0.63317  0.31266  0.95714  1.0000
  H   H25       1.0  0.59266  0.88481  0.47392  1.0000
  H   H26       1.0  0.40734  0.11519  0.52609  1.0000
  H   H27       1.0  0.42816  0.90706  0.36930  1.0000
  H   H28       1.0  0.57183  0.09294  0.63070  1.0000
  C   C1        1.0  0.10480  0.13667  0.11505  1.0000
  C   C2        1.0  0.89520  0.86333  0.88495  1.0000
  C   C3        1.0  0.20932  0.07935  0.17976  1.0000
  C   C4        1.0  0.79068  0.92065  0.82025  1.0000
  C   C5        1.0  0.37437  0.07672  0.16251  1.0000
  C   C6        1.0  0.62563  0.92328  0.83750  1.0000
  C   C7        1.0  0.43036  0.13124  0.08438  1.0000
  C   C8        1.0  0.56964  0.86876  0.91563  1.0000
  C   C9        1.0  0.31772  0.18479  0.02167  1.0000
  C   C10       1.0  0.68228  0.81521  0.97834  1.0000
  C   C11       1.0  0.92471  0.14934  0.12208  1.0000
  C   C12       1.0  0.07529  0.85066  0.87792  1.0000
  C   C13       1.0  0.15449  0.02209  0.26763  1.0000
  C   C14       1.0  0.84551  0.97791  0.73237  1.0000
  C   C15       1.0  0.08961  0.58329  0.17444  1.0000
  C   C16       1.0  0.91039  0.41671  0.82556  1.0000
  C   C17       1.0  0.18947  0.53493  0.25032  1.0000
  C   C18       1.0  0.81053  0.46507  0.74967  1.0000
  C   C19       1.0  0.36085  0.53721  0.24661  1.0000
  C   C20       1.0  0.63915  0.46279  0.75339  1.0000
  C   C21       1.0  0.42775  0.58991  0.17103  1.0000
  C   C22       1.0  0.57225  0.41009  0.82897  1.0000
  C   C23       1.0  0.32260  0.64250  0.10243  1.0000
  C   C24       1.0  0.67739  0.35750  0.89756  1.0000
  C   C25       1.0  0.90020  0.57804  0.15980  1.0000
  C   C26       1.0  0.09980  0.42195  0.84020  1.0000
  C   C27       1.0  0.12102  0.48793  0.33906  1.0000
  C   C28       1.0  0.87898  0.51207  0.66094  1.0000
  C   C29       1.0  0.66419  0.04527  0.41754  1.0000
  C   C30       1.0  0.33581  0.95473  0.58246  1.0000
  C   C31       1.0  0.53480  0.95980  0.45002  1.0000
  C   C32       1.0  0.46520  0.04019  0.54998  1.0000
  N   N1        1.0  0.15993  0.18616  0.03742  1.0000
  N   N2        1.0  0.84007  0.81384  0.96258  1.0000
  N   N3        1.0  0.15839  0.63859  0.10486  1.0000
  N   N4        1.0  0.84161  0.36141  0.89514  1.0000
  O   O1        1.0  0.04028  0.18113  0.60912  1.0000
  O   O2        1.0  0.95972  0.81887  0.39088  1.0000
  O   O3        1.0  0.84560  0.19745  0.04921  1.0000
  O   O4        1.0  0.15440  0.80255  0.95079  1.0000
  O   O5        1.0  0.24287  0.37988  0.56541  1.0000
  O   O6        1.0  0.75713  0.62012  0.43459  1.0000
  O   O7        1.0  0.85951  0.11304  0.19446  1.0000
  O   O8        1.0  0.14049  0.88696  0.80555  1.0000
  O   O9        1.0  0.73691  0.34985  0.32115  1.0000
  O   O10       1.0  0.26309  0.65015  0.67885  1.0000
  O   O11       1.0  0.12189  0.89813  0.23701  1.0000
  O   O12       1.0  0.87811  0.10187  0.76299  1.0000
  O   O13       1.0  0.15670  0.10270  0.36828  1.0000
  O   O14       1.0  0.84330  0.89730  0.63172  1.0000
  O   O15       1.0  0.83728  0.64631  0.10067  1.0000
  O   O16       1.0  0.16272  0.35369  0.89933  1.0000
  O   O17       1.0  0.81153  0.50828  0.19994  1.0000
  O   O18       1.0  0.18847  0.49172  0.80006  1.0000
  O   O19       1.0  0.09914  0.36609  0.32067  1.0000
  O   O20       1.0  0.90086  0.63392  0.67933  1.0000
  O   O21       1.0  0.09783  0.57420  0.42737  1.0000
  O   O22       1.0  0.90218  0.42581  0.57263  1.0000
  O   O23       1.0  0.65364  0.16379  0.43123  1.0000
  O   O24       1.0  0.34636  0.83621  0.56877  1.0000
  O   O25       1.0  0.78489  0.99994  0.37662  1.0000
  O   O26       1.0  0.21511  0.00006  0.62338  1.0000
