data_image0
_chemical_formula_structural       La2Cu2H28C32N4O26
_chemical_formula_sum              "La2 Cu2 H28 C32 N4 O26"
_cell_length_a       8.23928
_cell_length_b       11.0904
_cell_length_c       12.1638
_cell_angle_alpha    107.929
_cell_angle_beta     103.607
_cell_angle_gamma    95.4864

_space_group_name_H-M_alt    "P 1"
_space_group_IT_number       1

loop_
  _space_group_symop_operation_xyz
  'x, y, z'

loop_
  _atom_site_type_symbol
  _atom_site_label
  _atom_site_symmetry_multiplicity
  _atom_site_fract_x
  _atom_site_fract_y
  _atom_site_fract_z
  _atom_site_occupancy
  La  La1       1.0  0.06313  0.77539  0.08612  1.0000
  La  La2       1.0  0.93687  0.22462  0.91387  1.0000
  Cu  Cu1       1.0  0.00450  0.73449  0.54345  1.0000
  Cu  Cu2       1.0  0.99550  0.26551  0.45654  1.0000
  H   H1        1.0  0.03933  0.85045  0.84384  1.0000
  H   H2        1.0  0.96064  0.14956  0.15617  1.0000
  H   H3        1.0  0.87856  0.88013  0.88610  1.0000
  H   H4        1.0  0.12141  0.11989  0.11391  1.0000
  H   H5        1.0  0.81469  0.54078  0.96363  1.0000
  H   H6        1.0  0.18533  0.45920  0.03637  1.0000
  H   H7        1.0  0.80338  0.59603  0.85760  1.0000
  H   H8        1.0  0.19664  0.40395  0.14240  1.0000
  H   H9        1.0  0.24492  0.62111  0.25068  1.0000
  H   H10       1.0  0.75508  0.37888  0.74931  1.0000
  H   H11       1.0  0.36132  0.63517  0.16791  1.0000
  H   H12       1.0  0.63866  0.36482  0.83207  1.0000
  H   H13       1.0  0.54420  0.98342  0.28743  1.0000
  H   H14       1.0  0.45580  0.01657  0.71257  1.0000
  H   H15       1.0  0.44221  0.87971  0.41913  1.0000
  H   H16       1.0  0.55778  0.12028  0.58087  1.0000
  H   H17       1.0  0.64647  0.77543  0.53621  1.0000
  H   H18       1.0  0.35353  0.22455  0.46378  1.0000
  H   H19       1.0  0.45360  0.51623  0.83589  1.0000
  H   H20       1.0  0.54644  0.48379  0.16412  1.0000
  H   H21       1.0  0.56435  0.59832  0.69284  1.0000
  H   H22       1.0  0.43565  0.40170  0.30717  1.0000
  H   H23       1.0  0.36404  0.68310  0.55449  1.0000
  H   H24       1.0  0.63596  0.31691  0.44552  1.0000
  H   H25       1.0  0.56564  0.08914  0.13260  1.0000
  H   H26       1.0  0.43437  0.91088  0.86742  1.0000
  H   H27       1.0  0.40112  0.11302  0.02469  1.0000
  H   H28       1.0  0.59883  0.88700  0.97529  1.0000
  C   C1        1.0  0.89342  0.86604  0.38773  1.0000
  C   C2        1.0  0.10657  0.13394  0.61225  1.0000
  C   C3        1.0  0.79109  0.92810  0.32201  1.0000
  C   C4        1.0  0.20892  0.07190  0.67800  1.0000
  C   C5        1.0  0.62771  0.93489  0.33592  1.0000
  C   C6        1.0  0.37229  0.06509  0.66408  1.0000
  C   C7        1.0  0.57088  0.87888  0.41106  1.0000
  C   C8        1.0  0.42912  0.12111  0.58894  1.0000
  C   C9        1.0  0.68059  0.81964  0.47436  1.0000
  C   C10       1.0  0.31940  0.18033  0.52563  1.0000
  C   C11       1.0  0.07229  0.85117  0.38512  1.0000
  C   C12       1.0  0.92771  0.14883  0.61489  1.0000
  C   C13       1.0  0.84756  0.98327  0.23494  1.0000
  C   C14       1.0  0.15244  0.01673  0.76506  1.0000
  C   C15       1.0  0.09333  0.58300  0.68279  1.0000
  C   C16       1.0  0.90670  0.41698  0.31721  1.0000
  C   C17       1.0  0.19552  0.53772  0.76461  1.0000
  C   C18       1.0  0.80451  0.46227  0.23540  1.0000
  C   C19       1.0  0.36818  0.54574  0.76975  1.0000
  C   C20       1.0  0.63185  0.45427  0.23025  1.0000
  C   C21       1.0  0.43162  0.59454  0.69265  1.0000
  C   C22       1.0  0.56839  0.40549  0.30737  1.0000
  C   C23       1.0  0.32237  0.64049  0.61510  1.0000
  C   C24       1.0  0.67765  0.35954  0.38492  1.0000
  C   C25       1.0  0.90609  0.58155  0.66603  1.0000
  C   C26       1.0  0.09394  0.41844  0.33397  1.0000
  C   C27       1.0  0.12896  0.48489  0.84902  1.0000
  C   C28       1.0  0.87106  0.51510  0.15098  1.0000
  C   C29       1.0  0.33835  0.95309  0.07811  1.0000
  C   C30       1.0  0.66161  0.04695  0.92189  1.0000
  C   C31       1.0  0.46310  0.03801  0.04907  1.0000
  C   C32       1.0  0.53686  0.96204  0.95095  1.0000
  N   N1        1.0  0.83727  0.81454  0.46209  1.0000
  N   N2        1.0  0.16273  0.18545  0.53791  1.0000
  N   N3        1.0  0.15867  0.63567  0.61240  1.0000
  N   N4        1.0  0.84135  0.36433  0.38760  1.0000
  O   O1        1.0  0.96864  0.82614  0.89255  1.0000
  O   O2        1.0  0.03132  0.17386  0.10744  1.0000
  O   O3        1.0  0.15020  0.79658  0.45612  1.0000
  O   O4        1.0  0.84978  0.20340  0.54388  1.0000
  O   O5        1.0  0.78924  0.61634  0.93956  1.0000
  O   O6        1.0  0.21077  0.38363  0.06044  1.0000
  O   O7        1.0  0.13745  0.89243  0.31708  1.0000
  O   O8        1.0  0.86254  0.10756  0.68291  1.0000
  O   O9        1.0  0.87906  0.10450  0.26332  1.0000
  O   O10       1.0  0.12093  0.89550  0.73669  1.0000
  O   O11       1.0  0.28651  0.67851  0.21132  1.0000
  O   O12       1.0  0.71350  0.32149  0.78867  1.0000
  O   O13       1.0  0.84854  0.90292  0.13485  1.0000
  O   O14       1.0  0.15146  0.09707  0.86514  1.0000
  O   O15       1.0  0.83824  0.64424  0.60002  1.0000
  O   O16       1.0  0.16178  0.35575  0.39998  1.0000
  O   O17       1.0  0.82518  0.52021  0.71375  1.0000
  O   O18       1.0  0.17482  0.47979  0.28624  1.0000
  O   O19       1.0  0.08149  0.36462  0.81564  1.0000
  O   O20       1.0  0.91852  0.63537  0.18435  1.0000
  O   O21       1.0  0.13688  0.56474  0.95202  1.0000
  O   O22       1.0  0.86316  0.43527  0.04798  1.0000
  O   O23       1.0  0.33815  0.83203  0.04747  1.0000
  O   O24       1.0  0.66187  0.16801  0.95251  1.0000
  O   O25       1.0  0.23370  0.00272  0.13464  1.0000
  O   O26       1.0  0.76626  0.99729  0.86537  1.0000
