data_image0
_chemical_formula_structural       Nd2Cu2H28C32N4O26
_chemical_formula_sum              "Nd2 Cu2 H28 C32 N4 O26"
_cell_length_a       8.13368
_cell_length_b       10.9921
_cell_length_c       12.2076
_cell_angle_alpha    108.576
_cell_angle_beta     101.364
_cell_angle_gamma    98.3678

_space_group_name_H-M_alt    "P 1"
_space_group_IT_number       1

loop_
  _space_group_symop_operation_xyz
  'x, y, z'

loop_
  _atom_site_type_symbol
  _atom_site_label
  _atom_site_symmetry_multiplicity
  _atom_site_fract_x
  _atom_site_fract_y
  _atom_site_fract_z
  _atom_site_occupancy
  Nd  Nd1       1.0  0.45270  0.73634  0.42353  1.0000
  Nd  Nd2       1.0  0.54730  0.26366  0.57647  1.0000
  Cu  Cu1       1.0  0.48980  0.76128  0.95700  1.0000
  Cu  Cu2       1.0  0.51020  0.23872  0.04300  1.0000
  H   H1        1.0  0.95736  0.53141  0.20968  1.0000
  H   H2        1.0  0.04264  0.46858  0.79031  1.0000
  H   H3        1.0  0.05725  0.63106  0.06993  1.0000
  H   H4        1.0  0.94275  0.36893  0.93006  1.0000
  H   H5        1.0  0.84807  0.72689  0.95602  1.0000
  H   H6        1.0  0.15192  0.27311  0.04397  1.0000
  H   H7        1.0  0.05789  0.00254  0.69494  1.0000
  H   H8        1.0  0.94211  0.99747  0.30506  1.0000
  H   H9        1.0  0.93927  0.91212  0.83463  1.0000
  H   H10       1.0  0.06073  0.08789  0.16538  1.0000
  H   H11       1.0  0.13092  0.81391  0.95672  1.0000
  H   H12       1.0  0.86908  0.18609  0.04328  1.0000
  H   H13       1.0  0.61736  0.61918  0.60634  1.0000
  H   H14       1.0  0.38263  0.38082  0.39365  1.0000
  H   H15       1.0  0.46276  0.65627  0.65587  1.0000
  H   H16       1.0  0.53724  0.34373  0.34412  1.0000
  H   H17       1.0  0.74759  0.97331  0.57157  1.0000
  H   H18       1.0  0.25242  0.02669  0.42843  1.0000
  H   H19       1.0  0.72425  0.88206  0.64263  1.0000
  H   H20       1.0  0.27575  0.11793  0.35737  1.0000
  H   H21       1.0  0.12639  0.78344  0.28707  1.0000
  H   H22       1.0  0.87360  0.21655  0.71293  1.0000
  H   H23       1.0  0.26397  0.87981  0.25883  1.0000
  H   H24       1.0  0.73602  0.12019  0.74117  1.0000
  H   H25       1.0  0.92900  0.40646  0.36883  1.0000
  H   H26       1.0  0.07100  0.59354  0.63117  1.0000
  H   H27       1.0  0.09298  0.38458  0.47437  1.0000
  H   H28       1.0  0.90703  0.61542  0.52563  1.0000
  C   C1        1.0  0.60342  0.63744  0.11519  1.0000
  C   C2        1.0  0.39658  0.36256  0.88481  1.0000
  C   C3        1.0  0.70798  0.57975  0.17972  1.0000
  C   C4        1.0  0.29203  0.42025  0.82028  1.0000
  C   C5        1.0  0.87268  0.57640  0.16167  1.0000
  C   C6        1.0  0.12732  0.42360  0.83832  1.0000
  C   C7        1.0  0.92850  0.63096  0.08326  1.0000
  C   C8        1.0  0.07150  0.36904  0.91673  1.0000
  C   C9        1.0  0.81595  0.68495  0.02083  1.0000
  C   C10       1.0  0.18405  0.31505  0.97916  1.0000
  C   C11       1.0  0.42324  0.65004  0.12245  1.0000
  C   C12       1.0  0.57676  0.34997  0.87755  1.0000
  C   C13       1.0  0.65381  0.52251  0.26804  1.0000
  C   C14       1.0  0.34620  0.47750  0.73196  1.0000
  C   C15       1.0  0.40892  0.91696  0.82465  1.0000
  C   C16       1.0  0.59108  0.08304  0.17536  1.0000
  C   C17       1.0  0.30977  0.96593  0.74877  1.0000
  C   C18       1.0  0.69024  0.03407  0.25123  1.0000
  C   C19       1.0  0.13857  0.96463  0.75285  1.0000
  C   C20       1.0  0.86144  0.03538  0.24715  1.0000
  C   C21       1.0  0.07126  0.91222  0.82873  1.0000
  C   C22       1.0  0.92874  0.08778  0.17127  1.0000
  C   C23       1.0  0.17566  0.85881  0.89716  1.0000
  C   C24       1.0  0.82434  0.14119  0.10285  1.0000
  C   C25       1.0  0.59815  0.92145  0.83895  1.0000
  C   C26       1.0  0.40185  0.07856  0.16106  1.0000
  C   C27       1.0  0.37888  0.01223  0.65957  1.0000
  C   C28       1.0  0.62112  0.98777  0.34043  1.0000
  C   C29       1.0  0.16536  0.54475  0.41758  1.0000
  C   C30       1.0  0.83464  0.45525  0.58243  1.0000
  C   C31       1.0  0.03527  0.45957  0.45008  1.0000
  C   C32       1.0  0.96473  0.54044  0.54992  1.0000
  N   N1        1.0  0.65831  0.68678  0.03717  1.0000
  N   N2        1.0  0.34169  0.31321  0.96282  1.0000
  N   N3        1.0  0.33976  0.86185  0.89445  1.0000
  N   N4        1.0  0.66024  0.13815  0.10555  1.0000
  O   O1        1.0  0.34387  0.69825  0.04955  1.0000
  O   O2        1.0  0.65613  0.30175  0.95045  1.0000
  O   O3        1.0  0.35818  0.61345  0.19497  1.0000
  O   O4        1.0  0.64182  0.38656  0.80503  1.0000
  O   O5        1.0  0.65395  0.60320  0.36865  1.0000
  O   O6        1.0  0.34606  0.39681  0.63135  1.0000
  O   O7        1.0  0.62416  0.39843  0.23787  1.0000
  O   O8        1.0  0.37584  0.60157  0.76213  1.0000
  O   O9        1.0  0.66107  0.85369  0.89877  1.0000
  O   O10       1.0  0.33893  0.14631  0.10123  1.0000
  O   O11       1.0  0.68664  0.99045  0.79785  1.0000
  O   O12       1.0  0.31336  0.00955  0.20216  1.0000
  O   O13       1.0  0.40280  0.13440  0.67819  1.0000
  O   O14       1.0  0.59719  0.86560  0.32181  1.0000
  O   O15       1.0  0.40009  0.92504  0.57054  1.0000
  O   O16       1.0  0.59991  0.07496  0.42946  1.0000
  O   O17       1.0  0.53779  0.68138  0.60779  1.0000
  O   O18       1.0  0.46221  0.31861  0.39220  1.0000
  O   O19       1.0  0.73920  0.88058  0.56427  1.0000
  O   O20       1.0  0.26080  0.11942  0.43573  1.0000
  O   O21       1.0  0.23637  0.84707  0.32124  1.0000
  O   O22       1.0  0.76363  0.15293  0.67876  1.0000
  O   O23       1.0  0.15531  0.66363  0.43149  1.0000
  O   O24       1.0  0.84469  0.33637  0.56852  1.0000
  O   O25       1.0  0.28604  0.49923  0.37653  1.0000
  O   O26       1.0  0.71396  0.50076  0.62347  1.0000
