data_image0
_chemical_formula_structural       Sm2Cu2H28C32N4O26
_chemical_formula_sum              "Sm2 Cu2 H28 C32 N4 O26"
_cell_length_a       8.12036
_cell_length_b       10.9301
_cell_length_c       12.1806
_cell_angle_alpha    108.663
_cell_angle_beta     101.129
_cell_angle_gamma    98.5483

_space_group_name_H-M_alt    "P 1"
_space_group_IT_number       1

loop_
  _space_group_symop_operation_xyz
  'x, y, z'

loop_
  _atom_site_type_symbol
  _atom_site_label
  _atom_site_symmetry_multiplicity
  _atom_site_fract_x
  _atom_site_fract_y
  _atom_site_fract_z
  _atom_site_occupancy
  Sm  Sm1       1.0  0.04702  0.26338  0.07640  1.0000
  Sm  Sm2       1.0  0.95298  0.73662  0.92360  1.0000
  Cu  Cu1       1.0  0.98836  0.76050  0.45671  1.0000
  Cu  Cu2       1.0  0.01164  0.23950  0.54329  1.0000
  H   H1        1.0  0.03900  0.34292  0.84622  1.0000
  H   H2        1.0  0.96100  0.65708  0.15379  1.0000
  H   H3        1.0  0.88478  0.38161  0.89620  1.0000
  H   H4        1.0  0.11522  0.61839  0.10380  1.0000
  H   H5        1.0  0.75373  0.02800  0.92697  1.0000
  H   H6        1.0  0.24627  0.97200  0.07303  1.0000
  H   H7        1.0  0.77631  0.12592  0.86131  1.0000
  H   H8        1.0  0.22369  0.87408  0.13869  1.0000
  H   H9        1.0  0.37221  0.21442  0.20687  1.0000
  H   H10       1.0  0.62779  0.78558  0.79313  1.0000
  H   H11       1.0  0.23564  0.11996  0.23918  1.0000
  H   H12       1.0  0.76436  0.88004  0.76082  1.0000
  H   H13       1.0  0.54065  0.46486  0.28772  1.0000
  H   H14       1.0  0.45935  0.53514  0.71228  1.0000
  H   H15       1.0  0.44163  0.36617  0.42919  1.0000
  H   H16       1.0  0.55837  0.63383  0.57081  1.0000
  H   H17       1.0  0.65295  0.27366  0.54525  1.0000
  H   H18       1.0  0.34705  0.72633  0.45475  1.0000
  H   H19       1.0  0.55847  0.00167  0.19272  1.0000
  H   H20       1.0  0.44153  0.99833  0.80728  1.0000
  H   H21       1.0  0.43822  0.91185  0.33316  1.0000
  H   H22       1.0  0.56178  0.08816  0.66684  1.0000
  H   H23       1.0  0.62853  0.81386  0.45617  1.0000
  H   H24       1.0  0.37147  0.18614  0.54383  1.0000
  H   H25       1.0  0.56959  0.59364  0.13177  1.0000
  H   H26       1.0  0.43041  0.40635  0.86823  1.0000
  H   H27       1.0  0.40692  0.61604  0.02580  1.0000
  H   H28       1.0  0.59308  0.38396  0.97420  1.0000
  C   C1        1.0  0.89688  0.36206  0.38387  1.0000
  C   C2        1.0  0.10312  0.63793  0.61612  1.0000
  C   C3        1.0  0.79157  0.41870  0.31862  1.0000
  C   C4        1.0  0.20843  0.58130  0.68138  1.0000
  C   C5        1.0  0.62625  0.42109  0.33654  1.0000
  C   C6        1.0  0.37375  0.57891  0.66346  1.0000
  C   C7        1.0  0.57084  0.36708  0.41591  1.0000
  C   C8        1.0  0.42916  0.63291  0.58409  1.0000
  C   C9        1.0  0.68447  0.31470  0.47941  1.0000
  C   C10       1.0  0.31553  0.68530  0.52059  1.0000
  C   C11       1.0  0.07737  0.34967  0.37611  1.0000
  C   C12       1.0  0.92263  0.65033  0.62389  1.0000
  C   C13       1.0  0.84597  0.47609  0.22996  1.0000
  C   C14       1.0  0.15403  0.52392  0.77004  1.0000
  C   C15       1.0  0.90888  0.91680  0.32415  1.0000
  C   C16       1.0  0.09112  0.08320  0.67585  1.0000
  C   C17       1.0  0.81047  0.96557  0.24761  1.0000
  C   C18       1.0  0.18953  0.03443  0.75239  1.0000
  C   C19       1.0  0.63883  0.96420  0.25123  1.0000
  C   C20       1.0  0.36117  0.03580  0.74877  1.0000
  C   C21       1.0  0.57057  0.91202  0.32744  1.0000
  C   C22       1.0  0.42943  0.08798  0.67256  1.0000
  C   C23       1.0  0.67424  0.85873  0.39647  1.0000
  C   C24       1.0  0.32575  0.14126  0.60353  1.0000
  C   C25       1.0  0.09854  0.92192  0.33902  1.0000
  C   C26       1.0  0.90146  0.07808  0.66098  1.0000
  C   C27       1.0  0.88131  0.01123  0.15825  1.0000
  C   C28       1.0  0.11869  0.98877  0.84175  1.0000
  C   C29       1.0  0.33218  0.45434  0.08132  1.0000
  C   C30       1.0  0.66782  0.54566  0.91868  1.0000
  C   C31       1.0  0.46402  0.54042  0.04989  1.0000
  C   C32       1.0  0.53598  0.45958  0.95011  1.0000
  N   N1        1.0  0.84246  0.31339  0.46287  1.0000
  N   N2        1.0  0.15754  0.68661  0.53713  1.0000
  N   N3        1.0  0.83878  0.86177  0.39414  1.0000
  N   N4        1.0  0.16121  0.13822  0.60586  1.0000
  O   O1        1.0  0.15771  0.30294  0.45002  1.0000
  O   O2        1.0  0.84229  0.69706  0.54999  1.0000
  O   O3        1.0  0.96317  0.31820  0.89439  1.0000
  O   O4        1.0  0.03683  0.68180  0.10561  1.0000
  O   O5        1.0  0.14190  0.38492  0.30229  1.0000
  O   O6        1.0  0.85810  0.61508  0.69771  1.0000
  O   O7        1.0  0.76145  0.12241  0.93844  1.0000
  O   O8        1.0  0.23855  0.87759  0.06156  1.0000
  O   O9        1.0  0.87364  0.60090  0.25992  1.0000
  O   O10       1.0  0.12637  0.39910  0.74008  1.0000
  O   O11       1.0  0.26127  0.15119  0.17518  1.0000
  O   O12       1.0  0.73873  0.84881  0.82482  1.0000
  O   O13       1.0  0.84818  0.39519  0.12954  1.0000
  O   O14       1.0  0.15182  0.60481  0.87046  1.0000
  O   O15       1.0  0.16074  0.85329  0.39844  1.0000
  O   O16       1.0  0.83926  0.14671  0.60156  1.0000
  O   O17       1.0  0.18803  0.99225  0.29892  1.0000
  O   O18       1.0  0.81197  0.00775  0.70108  1.0000
  O   O19       1.0  0.90457  0.13392  0.17576  1.0000
  O   O20       1.0  0.09543  0.86608  0.82424  1.0000
  O   O21       1.0  0.90478  0.92308  0.07030  1.0000
  O   O22       1.0  0.09523  0.07693  0.92970  1.0000
  O   O23       1.0  0.34067  0.33429  0.06629  1.0000
  O   O24       1.0  0.65933  0.66571  0.93371  1.0000
  O   O25       1.0  0.21130  0.49998  0.12257  1.0000
  O   O26       1.0  0.78870  0.50002  0.87743  1.0000
