data_image0
_chemical_formula_structural       Cu4H40C40N4O16
_chemical_formula_sum              "Cu4 H40 C40 N4 O16"
_cell_length_a       8.56947
_cell_length_b       12.3535
_cell_length_c       12.3418
_cell_angle_alpha    64.5239
_cell_angle_beta     81.7968
_cell_angle_gamma    81.8434

_space_group_name_H-M_alt    "P 1"
_space_group_IT_number       1

loop_
  _space_group_symop_operation_xyz
  'x, y, z'

loop_
  _atom_site_type_symbol
  _atom_site_label
  _atom_site_symmetry_multiplicity
  _atom_site_fract_x
  _atom_site_fract_y
  _atom_site_fract_z
  _atom_site_occupancy
  Cu  Cu1       1.0  0.07407  0.99345  0.40259  1.0000
  Cu  Cu2       1.0  0.57328  0.40356  0.99327  1.0000
  Cu  Cu3       1.0  0.92593  0.00656  0.59739  1.0000
  Cu  Cu4       1.0  0.42672  0.59644  0.00673  1.0000
  H   H1        1.0  0.25667  0.65013  0.73037  1.0000
  H   H2        1.0  0.75673  0.73043  0.64998  1.0000
  H   H3        1.0  0.74333  0.34987  0.26963  1.0000
  H   H4        1.0  0.24327  0.26958  0.35001  1.0000
  H   H5        1.0  0.18945  0.60280  0.62963  1.0000
  H   H6        1.0  0.68930  0.62958  0.60301  1.0000
  H   H7        1.0  0.81055  0.39719  0.37037  1.0000
  H   H8        1.0  0.31070  0.37043  0.39698  1.0000
  H   H9        1.0  0.98975  0.62029  0.85024  1.0000
  H   H10       1.0  0.48960  0.85005  0.62043  1.0000
  H   H11       1.0  0.01026  0.37971  0.14976  1.0000
  H   H12       1.0  0.51040  0.14995  0.37958  1.0000
  H   H13       1.0  0.93201  0.55652  0.76042  1.0000
  H   H14       1.0  0.43209  0.76027  0.55654  1.0000
  H   H15       1.0  0.06799  0.44349  0.23959  1.0000
  H   H16       1.0  0.56790  0.23973  0.44347  1.0000
  H   H17       1.0  0.02525  0.39907  0.95009  1.0000
  H   H18       1.0  0.52540  0.95017  0.39922  1.0000
  H   H19       1.0  0.97475  0.60093  0.04991  1.0000
  H   H20       1.0  0.47458  0.04984  0.60078  1.0000
  H   H21       1.0  0.15098  0.39088  0.82615  1.0000
  H   H22       1.0  0.65069  0.82632  0.39070  1.0000
  H   H23       1.0  0.84902  0.60912  0.17385  1.0000
  H   H24       1.0  0.34929  0.17369  0.60930  1.0000
  H   H25       1.0  0.16205  0.17275  0.14536  1.0000
  H   H26       1.0  0.66211  0.14509  0.17300  1.0000
  H   H27       1.0  0.83796  0.82725  0.85464  1.0000
  H   H28       1.0  0.33790  0.85490  0.82700  1.0000
  H   H29       1.0  0.35208  0.18798  0.97112  1.0000
  H   H30       1.0  0.85196  0.97107  0.18813  1.0000
  H   H31       1.0  0.64793  0.81201  0.02887  1.0000
  H   H32       1.0  0.14804  0.02892  0.81187  1.0000
  H   H33       1.0  0.50038  0.80935  0.16969  1.0000
  H   H34       1.0  0.00073  0.16959  0.80912  1.0000
  H   H35       1.0  0.49962  0.19065  0.83030  1.0000
  H   H36       1.0  0.99927  0.83041  0.19088  1.0000
  H   H37       1.0  0.30456  0.81346  0.33695  1.0000
  H   H38       1.0  0.80505  0.33660  0.81338  1.0000
  H   H39       1.0  0.69545  0.18654  0.66304  1.0000
  H   H40       1.0  0.19495  0.66340  0.18662  1.0000
  C   C1        1.0  0.09059  0.77541  0.62061  1.0000
  C   C2        1.0  0.59043  0.62066  0.77542  1.0000
  C   C3        1.0  0.90939  0.22459  0.37942  1.0000
  C   C4        1.0  0.40957  0.37934  0.22458  1.0000
  C   C5        1.0  0.15040  0.64463  0.69267  1.0000
  C   C6        1.0  0.65030  0.69264  0.64482  1.0000
  C   C7        1.0  0.84960  0.35537  0.30733  1.0000
  C   C8        1.0  0.34969  0.30737  0.35517  1.0000
  C   C9        1.0  0.03469  0.57032  0.79553  1.0000
  C   C10       1.0  0.53470  0.79542  0.57041  1.0000
  C   C11       1.0  0.96531  0.42968  0.20447  1.0000
  C   C12       1.0  0.46530  0.20458  0.42959  1.0000
  C   C13       1.0  0.11239  0.44710  0.87570  1.0000
  C   C14       1.0  0.61227  0.87567  0.44708  1.0000
  C   C15       1.0  0.88761  0.55291  0.12431  1.0000
  C   C16       1.0  0.38772  0.12433  0.55292  1.0000
  C   C17       1.0  0.25487  0.45788  0.93012  1.0000
  C   C18       1.0  0.75531  0.92996  0.45789  1.0000
  C   C19       1.0  0.74514  0.54213  0.06988  1.0000
  C   C20       1.0  0.24465  0.07004  0.54215  1.0000
  C   C21       1.0  0.23910  0.09420  0.14618  1.0000
  C   C22       1.0  0.73919  0.14598  0.09432  1.0000
  C   C23       1.0  0.76091  0.90579  0.85382  1.0000
  C   C24       1.0  0.26082  0.85402  0.90568  1.0000
  C   C25       1.0  0.34573  0.10102  0.04802  1.0000
  C   C26       1.0  0.84567  0.04793  0.10113  1.0000
  C   C27       1.0  0.65428  0.89898  0.95197  1.0000
  C   C28       1.0  0.15433  0.95207  0.89887  1.0000
  C   C29       1.0  0.44364  0.99843  0.05188  1.0000
  C   C30       1.0  0.94370  0.05183  0.99840  1.0000
  C   C31       1.0  0.55637  0.00157  0.94812  1.0000
  C   C32       1.0  0.05631  0.94817  0.00159  1.0000
  C   C33       1.0  0.42939  0.89313  0.15899  1.0000
  C   C34       1.0  0.92965  0.15884  0.89302  1.0000
  C   C35       1.0  0.57062  0.10686  0.84101  1.0000
  C   C36       1.0  0.07036  0.84115  0.10698  1.0000
  C   C37       1.0  0.31937  0.89407  0.25304  1.0000
  C   C38       1.0  0.81972  0.25274  0.89403  1.0000
  C   C39       1.0  0.68063  0.10594  0.74696  1.0000
  C   C40       1.0  0.18028  0.74725  0.10596  1.0000
  N   N1        1.0  0.22386  0.99224  0.24724  1.0000
  N   N2        1.0  0.72411  0.24694  0.99232  1.0000
  N   N3        1.0  0.77614  0.00776  0.75275  1.0000
  N   N4        1.0  0.27590  0.75306  0.00768  1.0000
  O   O1        1.0  0.13442  0.81916  0.50818  1.0000
  O   O2        1.0  0.63368  0.50811  0.81969  1.0000
  O   O3        1.0  0.86559  0.18083  0.49180  1.0000
  O   O4        1.0  0.36632  0.49189  0.18031  1.0000
  O   O5        1.0  0.00714  0.83062  0.67836  1.0000
  O   O6        1.0  0.50673  0.67785  0.83128  1.0000
  O   O7        1.0  0.99287  0.16939  0.32162  1.0000
  O   O8        1.0  0.49327  0.32215  0.16872  1.0000
  O   O9        1.0  0.24428  0.54537  0.95998  1.0000
  O   O10       1.0  0.74416  0.95958  0.54555  1.0000
  O   O11       1.0  0.75573  0.45464  0.04002  1.0000
  O   O12       1.0  0.25585  0.04042  0.45446  1.0000
  O   O13       1.0  0.37406  0.38076  0.93967  1.0000
  O   O14       1.0  0.87420  0.93883  0.38074  1.0000
  O   O15       1.0  0.62594  0.61924  0.06034  1.0000
  O   O16       1.0  0.12578  0.06118  0.61925  1.0000
