data_image0
_chemical_formula_structural       Li4B4H24C28O22
_chemical_formula_sum              "Li4 B4 H24 C28 O22"
_cell_length_a       6.86844
_cell_length_b       7.49436
_cell_length_c       16.6267
_cell_angle_alpha    86.0438
_cell_angle_beta     78.3982
_cell_angle_gamma    77.8703

_space_group_name_H-M_alt    "P 1"
_space_group_IT_number       1

loop_
  _space_group_symop_operation_xyz
  'x, y, z'

loop_
  _atom_site_type_symbol
  _atom_site_label
  _atom_site_symmetry_multiplicity
  _atom_site_fract_x
  _atom_site_fract_y
  _atom_site_fract_z
  _atom_site_occupancy
  Li  Li1       1.0  0.48817  0.31729  0.37692  1.0000
  Li  Li2       1.0  0.51204  0.68267  0.62295  1.0000
  Li  Li3       1.0  0.75951  0.74045  0.39669  1.0000
  Li  Li4       1.0  0.24067  0.25901  0.60351  1.0000
  B   B1        1.0  0.44675  0.70018  0.30907  1.0000
  B   B2        1.0  0.55354  0.29969  0.69092  1.0000
  B   B3        1.0  0.79352  0.10519  0.42124  1.0000
  B   B4        1.0  0.20651  0.89482  0.57873  1.0000
  H   H1        1.0  0.60976  0.22253  0.52475  1.0000
  H   H2        1.0  0.39032  0.77754  0.47523  1.0000
  H   H3        1.0  0.71292  0.52190  0.29518  1.0000
  H   H4        1.0  0.28743  0.47807  0.70479  1.0000
  H   H5        1.0  0.45790  0.94560  0.35494  1.0000
  H   H6        1.0  0.54279  0.05418  0.64504  1.0000
  H   H7        1.0  0.87049  0.89698  0.50517  1.0000
  H   H8        1.0  0.12948  0.10316  0.49483  1.0000
  H   H9        1.0  0.60985  0.81147  0.06882  1.0000
  H   H10       1.0  0.39017  0.18867  0.93119  1.0000
  H   H11       1.0  0.44438  0.71878  0.96168  1.0000
  H   H12       1.0  0.55565  0.28128  0.03834  1.0000
  H   H13       1.0  0.12869  0.59543  0.00261  1.0000
  H   H14       1.0  0.87136  0.40459  0.99743  1.0000
  H   H15       1.0  0.97762  0.56462  0.15191  1.0000
  H   H16       1.0  0.02249  0.43537  0.84814  1.0000
  H   H17       1.0  0.66180  0.04006  0.19876  1.0000
  H   H18       1.0  0.33837  0.95982  0.80120  1.0000
  H   H19       1.0  0.88982  0.07065  0.06339  1.0000
  H   H20       1.0  0.11037  0.92925  0.93658  1.0000
  H   H21       1.0  0.22146  0.16131  0.05652  1.0000
  H   H22       1.0  0.77869  0.83867  0.94348  1.0000
  H   H23       1.0  0.32922  0.21209  0.18703  1.0000
  H   H24       1.0  0.67087  0.78790  0.81298  1.0000
  C   C1        1.0  0.21283  0.66176  0.19292  1.0000
  C   C2        1.0  0.78733  0.33817  0.80712  1.0000
  C   C3        1.0  0.39211  0.73304  0.16945  1.0000
  C   C4        1.0  0.60802  0.26696  0.83057  1.0000
  C   C5        1.0  0.47239  0.75554  0.08551  1.0000
  C   C6        1.0  0.52767  0.24453  0.91451  1.0000
  C   C7        1.0  0.37814  0.70533  0.02665  1.0000
  C   C8        1.0  0.62188  0.29475  0.97338  1.0000
  C   C9        1.0  0.20004  0.63511  0.04961  1.0000
  C   C10       1.0  0.80001  0.36495  0.95042  1.0000
  C   C11       1.0  0.11735  0.61593  0.13226  1.0000
  C   C12       1.0  0.88276  0.38406  0.86778  1.0000
  C   C13       1.0  0.12219  0.65072  0.28030  1.0000
  C   C14       1.0  0.87804  0.34917  0.71975  1.0000
  C   C15       1.0  0.05721  0.15728  0.26419  1.0000
  C   C16       1.0  0.94287  0.84267  0.73580  1.0000
  C   C17       1.0  0.86561  0.11344  0.26745  1.0000
  C   C18       1.0  0.13451  0.88648  0.73253  1.0000
  C   C19       1.0  0.80621  0.08173  0.19463  1.0000
  C   C20       1.0  0.19395  0.91817  0.80535  1.0000
  C   C21       1.0  0.93553  0.09719  0.11979  1.0000
  C   C22       1.0  0.06462  0.90272  0.88018  1.0000
  C   C23       1.0  0.12314  0.14708  0.11568  1.0000
  C   C24       1.0  0.87698  0.85285  0.88430  1.0000
  C   C25       1.0  0.18350  0.17573  0.18764  1.0000
  C   C26       1.0  0.81658  0.82423  0.81235  1.0000
  C   C27       1.0  0.12533  0.17815  0.34033  1.0000
  C   C28       1.0  0.87471  0.82187  0.65966  1.0000
  O   O1        1.0  0.94690  0.62032  0.30541  1.0000
  O   O2        1.0  0.05332  0.37959  0.69465  1.0000
  O   O3        1.0  0.22775  0.68200  0.33405  1.0000
  O   O4        1.0  0.77254  0.31781  0.66598  1.0000
  O   O5        1.0  0.48399  0.78455  0.22531  1.0000
  O   O6        1.0  0.51612  0.21547  0.77472  1.0000
  O   O7        1.0  0.00276  0.15540  0.41068  1.0000
  O   O8        1.0  0.99725  0.84462  0.58930  1.0000
  O   O9        1.0  0.29625  0.21052  0.34072  1.0000
  O   O10       1.0  0.70376  0.78957  0.65930  1.0000
  O   O11       1.0  0.73588  0.10297  0.33931  1.0000
  O   O12       1.0  0.26419  0.89704  0.66065  1.0000
  O   O13       1.0  0.64227  0.24744  0.46501  1.0000
  O   O14       1.0  0.35773  0.75260  0.53496  1.0000
  O   O15       1.0  0.56901  0.51736  0.31268  1.0000
  O   O16       1.0  0.43136  0.48251  0.68722  1.0000
  O   O17       1.0  0.49240  0.81458  0.36774  1.0000
  O   O18       1.0  0.50799  0.18520  0.63226  1.0000
  O   O19       1.0  0.80547  0.92301  0.45684  1.0000
  O   O20       1.0  0.19449  0.07706  0.54315  1.0000
  O   O21       1.0  0.08895  0.47491  0.50067  1.0000
  O   O22       1.0  0.90550  0.52664  0.49925  1.0000
