data_image0
_chemical_formula_structural       Cu2H22C22N10O6
_chemical_formula_sum              "Cu2 H22 C22 N10 O6"
_cell_length_a       7.61436
_cell_length_b       9.0368
_cell_length_c       9.61811
_cell_angle_alpha    71.8071
_cell_angle_beta     70.9293
_cell_angle_gamma    81.7589

_space_group_name_H-M_alt    "P 1"
_space_group_IT_number       1

loop_
  _space_group_symop_operation_xyz
  'x, y, z'

loop_
  _atom_site_type_symbol
  _atom_site_label
  _atom_site_symmetry_multiplicity
  _atom_site_fract_x
  _atom_site_fract_y
  _atom_site_fract_z
  _atom_site_occupancy
  Cu  Cu1       1.0  0.44997  0.14775  0.54825  1.0000
  Cu  Cu2       1.0  0.55003  0.85225  0.45175  1.0000
  H   H1        1.0  0.36730  0.48542  0.46961  1.0000
  H   H2        1.0  0.63270  0.51459  0.53039  1.0000
  H   H3        1.0  0.11722  0.66287  0.57766  1.0000
  H   H4        1.0  0.88277  0.33714  0.42234  1.0000
  H   H5        1.0  0.82477  0.54910  0.77553  1.0000
  H   H6        1.0  0.17522  0.45091  0.22447  1.0000
  H   H7        1.0  0.06355  0.09484  0.73805  1.0000
  H   H8        1.0  0.93645  0.90516  0.26195  1.0000
  H   H9        1.0  0.97390  0.35004  0.05793  1.0000
  H   H10       1.0  0.02610  0.64996  0.94208  1.0000
  H   H11       1.0  0.98258  0.14729  0.07845  1.0000
  H   H12       1.0  0.01742  0.85271  0.92155  1.0000
  H   H13       1.0  0.83692  0.22264  0.23141  1.0000
  H   H14       1.0  0.16308  0.77736  0.76859  1.0000
  H   H15       1.0  0.31931  0.36769  0.04036  1.0000
  H   H16       1.0  0.68069  0.63230  0.95964  1.0000
  H   H17       1.0  0.36972  0.16352  0.08558  1.0000
  H   H18       1.0  0.63029  0.83647  0.91442  1.0000
  H   H19       1.0  0.57263  0.41478  0.80694  1.0000
  H   H20       1.0  0.42737  0.58522  0.19306  1.0000
  H   H21       1.0  0.77427  0.10580  0.91958  1.0000
  H   H22       1.0  0.22573  0.89420  0.08042  1.0000
  C   C1        1.0  0.23982  0.43925  0.55621  1.0000
  C   C2        1.0  0.76018  0.56075  0.44379  1.0000
  C   C3        1.0  0.09907  0.53777  0.61811  1.0000
  C   C4        1.0  0.90092  0.46224  0.38189  1.0000
  C   C5        1.0  0.93818  0.47338  0.72822  1.0000
  C   C6        1.0  0.06182  0.52662  0.27177  1.0000
  C   C7        1.0  0.92121  0.31148  0.77501  1.0000
  C   C8        1.0  0.07879  0.68853  0.22499  1.0000
  C   C9        1.0  0.06837  0.22132  0.70681  1.0000
  C   C10       1.0  0.93163  0.77869  0.29319  1.0000
  C   C11       1.0  0.75566  0.23321  0.90092  1.0000
  C   C12       1.0  0.24434  0.76679  0.09908  1.0000
  C   C13       1.0  0.89050  0.24576  0.10670  1.0000
  C   C14       1.0  0.10950  0.75424  0.89330  1.0000
  C   C15       1.0  0.55574  0.28719  0.12856  1.0000
  C   C16       1.0  0.44426  0.71280  0.87144  1.0000
  C   C17       1.0  0.43244  0.27778  0.03637  1.0000
  C   C18       1.0  0.56756  0.72221  0.96363  1.0000
  C   C19       1.0  0.56338  0.29173  0.87508  1.0000
  C   C20       1.0  0.43662  0.70826  0.12492  1.0000
  C   C21       1.0  0.50444  0.20200  0.78816  1.0000
  C   C22       1.0  0.49557  0.79800  0.21184  1.0000
  N   N1        1.0  0.32629  0.99491  0.50155  1.0000
  N   N2        1.0  0.67371  0.00509  0.49845  1.0000
  N   N3        1.0  0.22807  0.03849  0.41750  1.0000
  N   N4        1.0  0.77193  0.96151  0.58250  1.0000
  N   N5        1.0  0.13098  0.07852  0.34040  1.0000
  N   N6        1.0  0.86901  0.92148  0.65961  1.0000
  N   N7        1.0  0.22393  0.28404  0.60016  1.0000
  N   N8        1.0  0.77607  0.71596  0.39984  1.0000
  N   N9        1.0  0.73524  0.26607  0.04601  1.0000
  N   N10       1.0  0.26476  0.73393  0.95398  1.0000
  O   O1        1.0  0.57503  0.25190  0.63965  1.0000
  O   O2        1.0  0.42497  0.74810  0.36034  1.0000
  O   O3        1.0  0.39545  0.09358  0.85558  1.0000
  O   O4        1.0  0.60456  0.90642  0.14441  1.0000
  O   O5        1.0  0.50399  0.30878  0.25807  1.0000
  O   O6        1.0  0.49601  0.69122  0.74193  1.0000
