data_image0
_chemical_formula_structural       Cu4H16C12S4N8Cl8
_chemical_formula_sum              "Cu4 H16 C12 S4 N8 Cl8"
_cell_length_a       7.10515
_cell_length_b       7.9787
_cell_length_c       11.7791
_cell_angle_alpha    90.0007
_cell_angle_beta     89.9996
_cell_angle_gamma    100.274

_space_group_name_H-M_alt    "P 1"
_space_group_IT_number       1

loop_
  _space_group_symop_operation_xyz
  'x, y, z'

loop_
  _atom_site_type_symbol
  _atom_site_label
  _atom_site_symmetry_multiplicity
  _atom_site_fract_x
  _atom_site_fract_y
  _atom_site_fract_z
  _atom_site_occupancy
  Cu  Cu1       1.0  0.31220  0.77004  0.73570  1.0000
  Cu  Cu2       1.0  0.81220  0.77005  0.76430  1.0000
  Cu  Cu3       1.0  0.68780  0.22995  0.26430  1.0000
  Cu  Cu4       1.0  0.18780  0.22995  0.23570  1.0000
  H   H1        1.0  0.39558  0.68148  0.98048  1.0000
  H   H2        1.0  0.89559  0.68150  0.51951  1.0000
  H   H3        1.0  0.60441  0.31850  0.01952  1.0000
  H   H4        1.0  0.10441  0.31852  0.48048  1.0000
  H   H5        1.0  0.67548  0.85192  0.99157  1.0000
  H   H6        1.0  0.17548  0.85190  0.50843  1.0000
  H   H7        1.0  0.32453  0.14810  0.00843  1.0000
  H   H8        1.0  0.82451  0.14808  0.49158  1.0000
  H   H9        1.0  0.77566  0.87244  0.13163  1.0000
  H   H10       1.0  0.27564  0.87242  0.36838  1.0000
  H   H11       1.0  0.22437  0.12758  0.86837  1.0000
  H   H12       1.0  0.72432  0.12756  0.63163  1.0000
  H   H13       1.0  0.66160  0.67029  0.08318  1.0000
  H   H14       1.0  0.16160  0.67027  0.41683  1.0000
  H   H15       1.0  0.33840  0.32973  0.91683  1.0000
  H   H16       1.0  0.83840  0.32971  0.58319  1.0000
  C   C1        1.0  0.93518  0.75965  0.01061  1.0000
  C   C2        1.0  0.43519  0.75964  0.48938  1.0000
  C   C3        1.0  0.06482  0.24034  0.98939  1.0000
  C   C4        1.0  0.56481  0.24035  0.51062  1.0000
  C   C5        1.0  0.25134  0.70857  0.97964  1.0000
  C   C6        1.0  0.75134  0.70859  0.52036  1.0000
  C   C7        1.0  0.74867  0.29141  0.02036  1.0000
  C   C8        1.0  0.24865  0.29143  0.47964  1.0000
  C   C9        1.0  0.75123  0.79073  0.05614  1.0000
  C   C10       1.0  0.25123  0.79071  0.44387  1.0000
  C   C11       1.0  0.24879  0.20929  0.94386  1.0000
  C   C12       1.0  0.74876  0.20928  0.55614  1.0000
  S   S1        1.0  0.11218  0.70870  0.09694  1.0000
  S   S2        1.0  0.61219  0.70871  0.40307  1.0000
  S   S3        1.0  0.88781  0.29129  0.90307  1.0000
  S   S4        1.0  0.38781  0.29131  0.59693  1.0000
  N   N1        1.0  0.16842  0.74348  0.88542  1.0000
  N   N2        1.0  0.66844  0.74347  0.61457  1.0000
  N   N3        1.0  0.83157  0.25653  0.11457  1.0000
  N   N4        1.0  0.33158  0.25653  0.38542  1.0000
  N   N5        1.0  0.98503  0.76864  0.90207  1.0000
  N   N6        1.0  0.48504  0.76863  0.59793  1.0000
  N   N7        1.0  0.01496  0.23136  0.09793  1.0000
  N   N8        1.0  0.51497  0.23137  0.40207  1.0000
  Cl  Cl1       1.0  0.54360  0.97797  0.80997  1.0000
  Cl  Cl2       1.0  0.04361  0.97797  0.69003  1.0000
  Cl  Cl3       1.0  0.45639  0.02203  0.19003  1.0000
  Cl  Cl4       1.0  0.95640  0.02202  0.30997  1.0000
  Cl  Cl5       1.0  0.09720  0.54036  0.67295  1.0000
  Cl  Cl6       1.0  0.59720  0.54035  0.82705  1.0000
  Cl  Cl7       1.0  0.90280  0.45964  0.32705  1.0000
  Cl  Cl8       1.0  0.40280  0.45965  0.17295  1.0000
