data_image0
_chemical_formula_structural       MnH14C18N8O4
_chemical_formula_sum              "Mn1 H14 C18 N8 O4"
_cell_length_a       8.12193
_cell_length_b       8.135
_cell_length_c       8.94903
_cell_angle_alpha    83.1402
_cell_angle_beta     69.4101
_cell_angle_gamma    64.4191

_space_group_name_H-M_alt    "P 1"
_space_group_IT_number       1

loop_
  _space_group_symop_operation_xyz
  'x, y, z'

loop_
  _atom_site_type_symbol
  _atom_site_label
  _atom_site_symmetry_multiplicity
  _atom_site_fract_x
  _atom_site_fract_y
  _atom_site_fract_z
  _atom_site_occupancy
  Mn  Mn1       1.0  1.00000  1.00000  1.00000  1.0000
  H   H1        1.0  0.94146  0.01254  0.30667  1.0000
  H   H2        1.0  0.05854  0.98746  0.69333  1.0000
  H   H3        1.0  0.17172  0.93033  0.21152  1.0000
  H   H4        1.0  0.82829  0.06967  0.78847  1.0000
  H   H5        1.0  0.86792  0.65705  0.31574  1.0000
  H   H6        1.0  0.13208  0.34295  0.68427  1.0000
  H   H7        1.0  0.91172  0.48758  0.17821  1.0000
  H   H8        1.0  0.08828  0.51242  0.82179  1.0000
  H   H9        1.0  0.59053  0.57303  0.39618  1.0000
  H   H10       1.0  0.40947  0.42697  0.60382  1.0000
  H   H11       1.0  0.74598  0.33796  0.40092  1.0000
  H   H12       1.0  0.25402  0.66204  0.59908  1.0000
  H   H13       1.0  0.70808  0.49913  0.54175  1.0000
  H   H14       1.0  0.29192  0.50087  0.45825  1.0000
  C   C1        1.0  0.57138  0.09450  0.18963  1.0000
  C   C2        1.0  0.42861  0.90550  0.81038  1.0000
  C   C3        1.0  0.29926  0.08119  0.41067  1.0000
  C   C4        1.0  0.70074  0.91880  0.58933  1.0000
  C   C5        1.0  0.18036  0.58866  0.04991  1.0000
  C   C6        1.0  0.81965  0.41134  0.95009  1.0000
  C   C7        1.0  0.44722  0.30844  0.94225  1.0000
  C   C8        1.0  0.55278  0.69156  0.05775  1.0000
  C   C9        1.0  0.37207  0.16420  0.27111  1.0000
  C   C10       1.0  0.62793  0.83579  0.72889  1.0000
  C   C11       1.0  0.28374  0.40510  0.07377  1.0000
  C   C12       1.0  0.71626  0.59490  0.92624  1.0000
  C   C13       1.0  0.23777  0.32350  0.22427  1.0000
  C   C14       1.0  0.76223  0.67650  0.77573  1.0000
  C   C15       1.0  0.88961  0.51611  0.30220  1.0000
  C   C16       1.0  0.11040  0.48389  0.69780  1.0000
  C   C17       1.0  0.72456  0.47808  0.41756  1.0000
  C   C18       1.0  0.27544  0.52192  0.58244  1.0000
  N   N1        1.0  0.73810  0.04313  0.11980  1.0000
  N   N2        1.0  0.26190  0.95687  0.88020  1.0000
  N   N3        1.0  0.23231  0.01738  0.52714  1.0000
  N   N4        1.0  0.76769  0.98262  0.47286  1.0000
  N   N5        1.0  0.09835  0.74260  0.02513  1.0000
  N   N6        1.0  0.90164  0.25741  0.97486  1.0000
  N   N7        1.0  0.57996  0.23261  0.82916  1.0000
  N   N8        1.0  0.42003  0.76740  0.17085  1.0000
  O   O1        1.0  0.04412  0.02666  0.21035  1.0000
  O   O2        1.0  0.95588  0.97334  0.78964  1.0000
  O   O3        1.0  0.06491  0.39486  0.33788  1.0000
  O   O4        1.0  0.93508  0.60514  0.66212  1.0000
