data_image0
_chemical_formula_structural       NiH20C16N4O8
_chemical_formula_sum              "Ni1 H20 C16 N4 O8"
_cell_length_a       7.52642
_cell_length_b       7.7803
_cell_length_c       9.40232
_cell_angle_alpha    61.8107
_cell_angle_beta     69.728
_cell_angle_gamma    74.797

_space_group_name_H-M_alt    "P 1"
_space_group_IT_number       1

loop_
  _space_group_symop_operation_xyz
  'x, y, z'

loop_
  _atom_site_type_symbol
  _atom_site_label
  _atom_site_symmetry_multiplicity
  _atom_site_fract_x
  _atom_site_fract_y
  _atom_site_fract_z
  _atom_site_occupancy
  Ni  Ni1       1.0  0.50000  0.50000  1.00000  1.0000
  H   H1        1.0  0.43318  0.15554  0.30305  1.0000
  H   H2        1.0  0.56683  0.84445  0.69695  1.0000
  H   H3        1.0  0.29519  0.07906  0.60637  1.0000
  H   H4        1.0  0.70484  0.92094  0.39364  1.0000
  H   H5        1.0  0.16851  0.35540  0.69334  1.0000
  H   H6        1.0  0.83151  0.64459  0.30667  1.0000
  H   H7        1.0  0.37073  0.75192  0.17426  1.0000
  H   H8        1.0  0.62926  0.24807  0.82575  1.0000
  H   H9        1.0  0.00843  0.01673  0.82842  1.0000
  H   H10       1.0  0.99157  0.98327  0.17157  1.0000
  H   H11       1.0  0.19424  0.06155  0.88008  1.0000
  H   H12       1.0  0.80575  0.93845  0.11992  1.0000
  H   H13       1.0  0.98768  0.85630  0.63990  1.0000
  H   H14       1.0  0.01233  0.14370  0.36010  1.0000
  H   H15       1.0  0.03822  0.59995  0.72508  1.0000
  H   H16       1.0  0.96178  0.40004  0.27491  1.0000
  H   H17       1.0  0.28371  0.10548  0.11808  1.0000
  H   H18       1.0  0.71629  0.89452  0.88192  1.0000
  H   H19       1.0  0.18557  0.28082  0.98584  1.0000
  H   H20       1.0  0.81442  0.71919  0.01417  1.0000
  C   C1        1.0  0.38671  0.27068  0.34703  1.0000
  C   C2        1.0  0.61329  0.72932  0.65297  1.0000
  C   C3        1.0  0.30763  0.23079  0.51502  1.0000
  C   C4        1.0  0.69238  0.76921  0.48498  1.0000
  C   C5        1.0  0.23844  0.38536  0.56257  1.0000
  C   C6        1.0  0.76156  0.61463  0.43743  1.0000
  C   C7        1.0  0.25574  0.57780  0.43901  1.0000
  C   C8        1.0  0.74425  0.42220  0.56100  1.0000
  C   C9        1.0  0.34612  0.60631  0.27356  1.0000
  C   C10       1.0  0.65388  0.39368  0.72645  1.0000
  C   C11       1.0  0.16919  0.75661  0.47166  1.0000
  C   C12       1.0  0.83081  0.24338  0.52834  1.0000
  C   C13       1.0  0.15165  0.76015  0.98894  1.0000
  C   C14       1.0  0.84834  0.23986  0.01105  1.0000
  C   C15       1.0  0.07409  0.97699  0.92967  1.0000
  C   C16       1.0  0.92591  0.02301  0.07032  1.0000
  N   N1        1.0  0.40631  0.45588  0.22812  1.0000
  N   N2        1.0  0.59368  0.54412  0.77188  1.0000
  N   N3        1.0  0.06970  0.73290  0.62716  1.0000
  N   N4        1.0  0.93030  0.26710  0.37284  1.0000
  O   O1        1.0  0.18513  0.92510  0.35215  1.0000
  O   O2        1.0  0.81488  0.07490  0.64785  1.0000
  O   O3        1.0  0.33558  0.73273  0.93799  1.0000
  O   O4        1.0  0.66442  0.26728  0.06201  1.0000
  O   O5        1.0  0.04251  0.62867  0.07862  1.0000
  O   O6        1.0  0.95749  0.37133  0.92137  1.0000
  O   O7        1.0  0.31070  0.21540  0.00763  1.0000
  O   O8        1.0  0.68929  0.78462  0.99237  1.0000
