data_image0
_chemical_formula_structural       Cu2H28C44N8O8
_chemical_formula_sum              "Cu2 H28 C44 N8 O8"
_cell_length_a       9.41714
_cell_length_b       11.1496
_cell_length_c       11.4681
_cell_angle_alpha    116.217
_cell_angle_beta     89.9898
_cell_angle_gamma    114.968

_space_group_name_H-M_alt    "P 1"
_space_group_IT_number       1

loop_
  _space_group_symop_operation_xyz
  'x, y, z'

loop_
  _atom_site_type_symbol
  _atom_site_label
  _atom_site_symmetry_multiplicity
  _atom_site_fract_x
  _atom_site_fract_y
  _atom_site_fract_z
  _atom_site_occupancy
  Cu  Cu1       1.0  0.50000  1.00000  1.00000  1.0000
  Cu  Cu2       1.0  0.50000  1.00000  0.50000  1.0000
  H   H1        1.0  0.01197  0.42287  0.02921  1.0000
  H   H2        1.0  0.58955  0.57699  0.47071  1.0000
  H   H3        1.0  0.98803  0.57713  0.97080  1.0000
  H   H4        1.0  0.41044  0.42301  0.52929  1.0000
  H   H5        1.0  0.20179  0.50626  0.89262  1.0000
  H   H6        1.0  0.69601  0.49382  0.60747  1.0000
  H   H7        1.0  0.79822  0.49374  0.10739  1.0000
  H   H8        1.0  0.30399  0.50618  0.39253  1.0000
  H   H9        1.0  0.21837  0.30338  0.68440  1.0000
  H   H10       1.0  0.91545  0.69687  0.81559  1.0000
  H   H11       1.0  0.78164  0.69662  0.31561  1.0000
  H   H12       1.0  0.08454  0.30313  0.18440  1.0000
  H   H13       1.0  0.46808  0.88492  0.19765  1.0000
  H   H14       1.0  0.58317  0.11531  0.30244  1.0000
  H   H15       1.0  0.53192  0.11508  0.80235  1.0000
  H   H16       1.0  0.41683  0.88469  0.69756  1.0000
  H   H17       1.0  0.47195  0.67092  0.20611  1.0000
  H   H18       1.0  0.80102  0.32924  0.29396  1.0000
  H   H19       1.0  0.52804  0.32908  0.79388  1.0000
  H   H20       1.0  0.19898  0.67076  0.70604  1.0000
  H   H21       1.0  0.55105  0.52030  0.80393  1.0000
  H   H22       1.0  0.03044  0.47976  0.69615  1.0000
  H   H23       1.0  0.44896  0.47970  0.19607  1.0000
  H   H24       1.0  0.96956  0.52024  0.30385  1.0000
  H   H25       1.0  0.57011  0.75631  0.82280  1.0000
  H   H26       1.0  0.81358  0.24373  0.67723  1.0000
  H   H27       1.0  0.42990  0.24369  0.17720  1.0000
  H   H28       1.0  0.18642  0.75626  0.32278  1.0000
  C   C1        1.0  0.79758  0.14674  0.96730  1.0000
  C   C2        1.0  0.65103  0.85305  0.53242  1.0000
  C   C3        1.0  0.20242  0.85326  0.03270  1.0000
  C   C4        1.0  0.34897  0.14695  0.46758  1.0000
  C   C5        1.0  0.92346  0.18757  0.89190  1.0000
  C   C6        1.0  0.73620  0.81232  0.60783  1.0000
  C   C7        1.0  0.07654  0.81243  0.10810  1.0000
  C   C8        1.0  0.26380  0.18768  0.39216  1.0000
  C   C9        1.0  0.02252  0.34157  0.93664  1.0000
  C   C10       1.0  0.68141  0.65836  0.56320  1.0000
  C   C11       1.0  0.97748  0.65843  0.06336  1.0000
  C   C12       1.0  0.31859  0.34164  0.43679  1.0000
  C   C13       1.0  0.12809  0.38671  0.86196  1.0000
  C   C14       1.0  0.74185  0.61334  0.63799  1.0000
  C   C15       1.0  0.87191  0.61329  0.13804  1.0000
  C   C16       1.0  0.25814  0.38666  0.36201  1.0000
  C   C17       1.0  0.13574  0.27441  0.74582  1.0000
  C   C18       1.0  0.86175  0.72572  0.75408  1.0000
  C   C19       1.0  0.86427  0.72559  0.25418  1.0000
  C   C20       1.0  0.13825  0.27428  0.24592  1.0000
  C   C21       1.0  0.94193  0.08339  0.77448  1.0000
  C   C22       1.0  0.85870  0.91659  0.72528  1.0000
  C   C23       1.0  0.05807  0.91661  0.22552  1.0000
  C   C24       1.0  0.14130  0.08341  0.27472  1.0000
  C   C25       1.0  0.49160  0.80407  0.11405  1.0000
  C   C26       1.0  0.68749  0.19611  0.38603  1.0000
  C   C27       1.0  0.50840  0.19593  0.88595  1.0000
  C   C28       1.0  0.31251  0.80389  0.61397  1.0000
  C   C29       1.0  0.48783  0.67893  0.11540  1.0000
  C   C30       1.0  0.80887  0.32120  0.38466  1.0000
  C   C31       1.0  0.51217  0.32107  0.88460  1.0000
  C   C32       1.0  0.19113  0.67880  0.61534  1.0000
  C   C33       1.0  0.50655  0.56984  0.00283  1.0000
  C   C34       1.0  0.93665  0.43021  0.49719  1.0000
  C   C35       1.0  0.49346  0.43016  0.99716  1.0000
  C   C36       1.0  0.06334  0.56979  0.50281  1.0000
  C   C37       1.0  0.53607  0.59900  0.89554  1.0000
  C   C38       1.0  0.93686  0.40107  0.60452  1.0000
  C   C39       1.0  0.46394  0.40100  0.10446  1.0000
  C   C40       1.0  0.06314  0.59892  0.39548  1.0000
  C   C41       1.0  0.54376  0.72969  0.90346  1.0000
  C   C42       1.0  0.81389  0.27042  0.59659  1.0000
  C   C43       1.0  0.45625  0.27032  0.09654  1.0000
  C   C44       1.0  0.18611  0.72958  0.40341  1.0000
  N   N1        1.0  0.51904  0.83016  0.01015  1.0000
  N   N2        1.0  0.68878  0.16997  0.48990  1.0000
  N   N3        1.0  0.48096  0.16985  0.98985  1.0000
  N   N4        1.0  0.31122  0.83003  0.51010  1.0000
  N   N5        1.0  0.04668  0.12596  0.70369  1.0000
  N   N6        1.0  0.92098  0.87416  0.79614  1.0000
  N   N7        1.0  0.95332  0.87404  0.29631  1.0000
  N   N8        1.0  0.07902  0.12584  0.20385  1.0000
  O   O1        1.0  0.66862  0.01757  0.89865  1.0000
  O   O2        1.0  0.65112  0.98222  0.60104  1.0000
  O   O3        1.0  0.33138  0.98243  0.10135  1.0000
  O   O4        1.0  0.34888  0.01779  0.39897  1.0000
  O   O5        1.0  0.81583  0.24004  0.08623  1.0000
  O   O6        1.0  0.57597  0.75963  0.41353  1.0000
  O   O7        1.0  0.18416  0.75996  0.91377  1.0000
  O   O8        1.0  0.42403  0.24038  0.58647  1.0000
