data_image0
_chemical_formula_structural       Cu4H32C16S8I4
_chemical_formula_sum              "Cu4 H32 C16 S8 I4"
_cell_length_a       6.57123
_cell_length_b       7.52234
_cell_length_c       16.0795
_cell_angle_alpha    89.9999
_cell_angle_beta     89.9996
_cell_angle_gamma    98.1467

_space_group_name_H-M_alt    "P 1"
_space_group_IT_number       1

loop_
  _space_group_symop_operation_xyz
  'x, y, z'

loop_
  _atom_site_type_symbol
  _atom_site_label
  _atom_site_symmetry_multiplicity
  _atom_site_fract_x
  _atom_site_fract_y
  _atom_site_fract_z
  _atom_site_occupancy
  Cu  Cu1       1.0  0.69849  0.03775  0.98365  1.0000
  Cu  Cu2       1.0  0.30151  0.46224  0.48365  1.0000
  Cu  Cu3       1.0  0.30151  0.96224  0.01635  1.0000
  Cu  Cu4       1.0  0.69848  0.53776  0.51635  1.0000
  H   H1        1.0  0.64306  0.60861  0.90560  1.0000
  H   H2        1.0  0.35695  0.89139  0.40561  1.0000
  H   H3        1.0  0.35694  0.39139  0.09439  1.0000
  H   H4        1.0  0.64305  0.10861  0.59439  1.0000
  H   H5        1.0  0.58831  0.74534  0.81995  1.0000
  H   H6        1.0  0.41168  0.75464  0.31995  1.0000
  H   H7        1.0  0.41168  0.25467  0.18004  1.0000
  H   H8        1.0  0.58832  0.24536  0.68005  1.0000
  H   H9        1.0  0.71753  0.47494  0.76792  1.0000
  H   H10       1.0  0.28248  0.02504  0.26792  1.0000
  H   H11       1.0  0.28248  0.52507  0.23207  1.0000
  H   H12       1.0  0.71753  0.97496  0.73208  1.0000
  H   H13       1.0  0.88784  0.66885  0.74153  1.0000
  H   H14       1.0  0.11216  0.83112  0.24152  1.0000
  H   H15       1.0  0.11217  0.33116  0.25847  1.0000
  H   H16       1.0  0.88785  0.16888  0.75848  1.0000
  H   H17       1.0  0.08304  0.43244  0.78440  1.0000
  H   H18       1.0  0.91698  0.06756  0.28440  1.0000
  H   H19       1.0  0.91697  0.56756  0.21560  1.0000
  H   H20       1.0  0.08303  0.93245  0.71560  1.0000
  H   H21       1.0  0.94061  0.39271  0.87742  1.0000
  H   H22       1.0  0.05941  0.10729  0.37742  1.0000
  H   H23       1.0  0.05938  0.60729  0.12257  1.0000
  H   H24       1.0  0.94060  0.89271  0.62258  1.0000
  H   H25       1.0  0.24740  0.73224  0.83719  1.0000
  H   H26       1.0  0.75259  0.76775  0.33718  1.0000
  H   H27       1.0  0.75259  0.26776  0.16282  1.0000
  H   H28       1.0  0.24741  0.23225  0.66282  1.0000
  H   H29       1.0  0.28431  0.55313  0.90650  1.0000
  H   H30       1.0  0.71570  0.94687  0.40650  1.0000
  H   H31       1.0  0.71568  0.44686  0.09351  1.0000
  H   H32       1.0  0.28430  0.05313  0.59350  1.0000
  C   C1        1.0  0.71125  0.68946  0.85300  1.0000
  C   C2        1.0  0.28875  0.81051  0.35299  1.0000
  C   C3        1.0  0.28875  0.31054  0.14700  1.0000
  C   C4        1.0  0.71125  0.18949  0.64701  1.0000
  C   C5        1.0  0.82963  0.58308  0.79409  1.0000
  C   C6        1.0  0.17038  0.91693  0.29410  1.0000
  C   C7        1.0  0.17037  0.41693  0.20591  1.0000
  C   C8        1.0  0.82963  0.08308  0.70591  1.0000
  C   C9        1.0  0.00470  0.49855  0.83371  1.0000
  C   C10       1.0  0.99530  0.00143  0.33370  1.0000
  C   C11       1.0  0.99529  0.50145  0.16630  1.0000
  C   C12       1.0  0.00471  0.99857  0.66630  1.0000
  C   C13       1.0  0.16908  0.62722  0.87827  1.0000
  C   C14       1.0  0.83093  0.87280  0.37828  1.0000
  C   C15       1.0  0.83091  0.37278  0.12173  1.0000
  C   C16       1.0  0.16907  0.12721  0.62172  1.0000
  S   S1        1.0  0.87607  0.88386  0.89488  1.0000
  S   S2        1.0  0.12393  0.61613  0.39489  1.0000
  S   S3        1.0  0.12392  0.11613  0.10511  1.0000
  S   S4        1.0  0.87607  0.38387  0.60512  1.0000
  S   S5        1.0  0.06414  0.74026  0.96510  1.0000
  S   S6        1.0  0.93586  0.75974  0.46510  1.0000
  S   S7        1.0  0.93584  0.25973  0.03490  1.0000
  S   S8        1.0  0.06414  0.24026  0.53490  1.0000
  I   I1        1.0  0.56489  0.82838  0.11138  1.0000
  I   I2        1.0  0.43511  0.67159  0.61140  1.0000
  I   I3        1.0  0.43510  0.17159  0.88860  1.0000
  I   I4        1.0  0.56489  0.32841  0.38860  1.0000
