data_image0
_chemical_formula_structural       Ag4H44C48N16O12
_chemical_formula_sum              "Ag4 H44 C48 N16 O12"
_cell_length_a       8.75556
_cell_length_b       9.31267
_cell_length_c       15.6032
_cell_angle_alpha    89.9999
_cell_angle_beta     89.9995
_cell_angle_gamma    103.347

_space_group_name_H-M_alt    "P 1"
_space_group_IT_number       1

loop_
  _space_group_symop_operation_xyz
  'x, y, z'

loop_
  _atom_site_type_symbol
  _atom_site_label
  _atom_site_symmetry_multiplicity
  _atom_site_fract_x
  _atom_site_fract_y
  _atom_site_fract_z
  _atom_site_occupancy
  Ag  Ag1       1.0  0.69756  0.68734  0.99556  1.0000
  Ag  Ag2       1.0  0.30244  0.81266  0.49556  1.0000
  Ag  Ag3       1.0  0.30244  0.31266  0.00444  1.0000
  Ag  Ag4       1.0  0.69756  0.18734  0.50444  1.0000
  H   H1        1.0  0.57675  0.44988  0.87655  1.0000
  H   H2        1.0  0.42325  0.05012  0.37655  1.0000
  H   H3        1.0  0.42325  0.55012  0.12345  1.0000
  H   H4        1.0  0.57675  0.94988  0.62345  1.0000
  H   H5        1.0  0.61822  0.28417  0.89968  1.0000
  H   H6        1.0  0.38178  0.21583  0.39968  1.0000
  H   H7        1.0  0.38177  0.71583  0.10032  1.0000
  H   H8        1.0  0.61823  0.78417  0.60032  1.0000
  H   H9        1.0  0.89788  0.24441  0.90892  1.0000
  H   H10       1.0  0.10212  0.25559  0.40892  1.0000
  H   H11       1.0  0.10212  0.75559  0.09108  1.0000
  H   H12       1.0  0.89788  0.74441  0.59108  1.0000
  H   H13       1.0  0.87576  0.97494  0.89692  1.0000
  H   H14       1.0  0.12425  0.52506  0.39692  1.0000
  H   H15       1.0  0.12424  0.02506  0.10308  1.0000
  H   H16       1.0  0.87576  0.47494  0.60308  1.0000
  H   H17       1.0  0.61635  0.89222  0.12204  1.0000
  H   H18       1.0  0.38364  0.60777  0.62204  1.0000
  H   H19       1.0  0.38365  0.10777  0.87796  1.0000
  H   H20       1.0  0.61635  0.39223  0.37797  1.0000
  H   H21       1.0  0.62471  0.15946  0.14271  1.0000
  H   H22       1.0  0.37528  0.34053  0.64271  1.0000
  H   H23       1.0  0.37529  0.84054  0.85729  1.0000
  H   H24       1.0  0.62472  0.65947  0.35729  1.0000
  H   H25       1.0  0.68833  0.59189  0.14318  1.0000
  H   H26       1.0  0.31166  0.90811  0.64318  1.0000
  H   H27       1.0  0.31166  0.40811  0.85682  1.0000
  H   H28       1.0  0.68834  0.09188  0.35682  1.0000
  H   H29       1.0  0.85365  0.73627  0.25428  1.0000
  H   H30       1.0  0.14635  0.76373  0.75428  1.0000
  H   H31       1.0  0.14635  0.26373  0.74572  1.0000
  H   H32       1.0  0.85365  0.23627  0.24572  1.0000
  H   H33       1.0  0.11238  0.68263  0.29188  1.0000
  H   H34       1.0  0.88762  0.81737  0.79189  1.0000
  H   H35       1.0  0.88762  0.31737  0.70812  1.0000
  H   H36       1.0  0.11239  0.18264  0.20811  1.0000
  H   H37       1.0  0.19873  0.47670  0.21857  1.0000
  H   H38       1.0  0.80127  0.02330  0.71857  1.0000
  H   H39       1.0  0.80127  0.52330  0.78143  1.0000
  H   H40       1.0  0.19874  0.97671  0.28143  1.0000
  H   H41       1.0  0.04000  0.34300  0.09920  1.0000
  H   H42       1.0  0.96000  0.15699  0.59920  1.0000
  H   H43       1.0  0.96000  0.65700  0.90080  1.0000
  H   H44       1.0  0.04002  0.84301  0.40080  1.0000
  C   C1        1.0  0.83365  0.17054  0.95752  1.0000
  C   C2        1.0  0.16636  0.32946  0.45751  1.0000
  C   C3        1.0  0.16635  0.82946  0.04248  1.0000
  C   C4        1.0  0.83365  0.67054  0.54249  1.0000
  C   C5        1.0  0.82168  0.01948  0.95047  1.0000
  C   C6        1.0  0.17832  0.48052  0.45046  1.0000
  C   C7        1.0  0.17832  0.98052  0.04953  1.0000
  C   C8        1.0  0.82168  0.51948  0.54954  1.0000
  C   C9        1.0  0.67605  0.97382  0.07582  1.0000
  C   C10       1.0  0.32395  0.52618  0.57582  1.0000
  C   C11       1.0  0.32395  0.02618  0.92418  1.0000
  C   C12       1.0  0.67605  0.47382  0.42418  1.0000
  C   C13       1.0  0.68167  0.12275  0.08725  1.0000
  C   C14       1.0  0.31833  0.37724  0.58725  1.0000
  C   C15       1.0  0.31833  0.87725  0.91275  1.0000
  C   C16       1.0  0.68168  0.62276  0.41275  1.0000
  C   C17       1.0  0.76112  0.22400  0.02672  1.0000
  C   C18       1.0  0.23888  0.27600  0.52671  1.0000
  C   C19       1.0  0.23888  0.77600  0.97328  1.0000
  C   C20       1.0  0.76113  0.72400  0.47329  1.0000
  C   C21       1.0  0.76665  0.38381  0.03719  1.0000
  C   C22       1.0  0.23334  0.11619  0.53719  1.0000
  C   C23       1.0  0.23334  0.61619  0.96281  1.0000
  C   C24       1.0  0.76667  0.88382  0.46281  1.0000
  C   C25       1.0  0.85705  0.46319  0.10907  1.0000
  C   C26       1.0  0.14294  0.03681  0.60907  1.0000
  C   C27       1.0  0.14294  0.53681  0.89093  1.0000
  C   C28       1.0  0.85706  0.96320  0.39093  1.0000
  C   C29       1.0  0.80444  0.57244  0.15517  1.0000
  C   C30       1.0  0.19556  0.92756  0.65517  1.0000
  C   C31       1.0  0.19556  0.42756  0.84483  1.0000
  C   C32       1.0  0.80444  0.07244  0.34482  1.0000
  C   C33       1.0  0.89600  0.65097  0.22030  1.0000
  C   C34       1.0  0.10400  0.84904  0.72031  1.0000
  C   C35       1.0  0.10400  0.34904  0.77970  1.0000
  C   C36       1.0  0.89600  0.15096  0.27969  1.0000
  C   C37       1.0  0.03914  0.61867  0.24226  1.0000
  C   C38       1.0  0.96086  0.88133  0.74226  1.0000
  C   C39       1.0  0.96086  0.38133  0.75774  1.0000
  C   C40       1.0  0.03915  0.11868  0.25774  1.0000
  C   C41       1.0  0.08960  0.50572  0.19985  1.0000
  C   C42       1.0  0.91040  0.99429  0.69985  1.0000
  C   C43       1.0  0.91040  0.49428  0.80015  1.0000
  C   C44       1.0  0.08961  0.00572  0.30015  1.0000
  C   C45       1.0  0.99911  0.42920  0.13357  1.0000
  C   C46       1.0  0.00088  0.07080  0.63357  1.0000
  C   C47       1.0  0.00088  0.57080  0.86643  1.0000
  C   C48       1.0  0.99913  0.92920  0.36643  1.0000
  N   N1        1.0  0.74330  0.92192  0.00811  1.0000
  N   N2        1.0  0.25670  0.57808  0.50811  1.0000
  N   N3        1.0  0.25669  0.07808  0.99189  1.0000
  N   N4        1.0  0.74330  0.42192  0.49190  1.0000
  N   N5        1.0  0.69139  0.45308  0.98541  1.0000
  N   N6        1.0  0.30861  0.04691  0.48541  1.0000
  N   N7        1.0  0.30861  0.54692  0.01459  1.0000
  N   N8        1.0  0.69140  0.95308  0.51459  1.0000
  N   N9        1.0  0.59188  0.37826  0.92427  1.0000
  N   N10       1.0  0.40812  0.12173  0.42427  1.0000
  N   N11       1.0  0.40811  0.62173  0.07573  1.0000
  N   N12       1.0  0.59189  0.87827  0.57573  1.0000
  N   N13       1.0  0.54557  0.67925  0.76123  1.0000
  N   N14       1.0  0.45443  0.82074  0.26123  1.0000
  N   N15       1.0  0.45443  0.32075  0.23877  1.0000
  N   N16       1.0  0.54557  0.17925  0.73877  1.0000
  O   O1        1.0  0.55401  0.63957  0.83909  1.0000
  O   O2        1.0  0.44598  0.86043  0.33909  1.0000
  O   O3        1.0  0.44598  0.36043  0.16091  1.0000
  O   O4        1.0  0.55401  0.13957  0.66091  1.0000
  O   O5        1.0  0.45112  0.75794  0.74086  1.0000
  O   O6        1.0  0.54887  0.74205  0.24086  1.0000
  O   O7        1.0  0.54887  0.24205  0.25914  1.0000
  O   O8        1.0  0.45113  0.25794  0.75914  1.0000
  O   O9        1.0  0.63112  0.63944  0.70457  1.0000
  O   O10       1.0  0.36888  0.86056  0.20457  1.0000
  O   O11       1.0  0.36888  0.36057  0.29544  1.0000
  O   O12       1.0  0.63112  0.13944  0.79544  1.0000
