data_image0
_chemical_formula_structural       Cu4H64C64S8I4
_chemical_formula_sum              "Cu4 H64 C64 S8 I4"
_cell_length_a       7.10774
_cell_length_b       12.0656
_cell_length_c       20.7211
_cell_angle_alpha    90
_cell_angle_beta     90.0002
_cell_angle_gamma    90

_space_group_name_H-M_alt    "P 1"
_space_group_IT_number       1

loop_
  _space_group_symop_operation_xyz
  'x, y, z'

loop_
  _atom_site_type_symbol
  _atom_site_label
  _atom_site_symmetry_multiplicity
  _atom_site_fract_x
  _atom_site_fract_y
  _atom_site_fract_z
  _atom_site_occupancy
  Cu  Cu1       1.0  0.23502  0.83785  0.75000  1.0000
  Cu  Cu2       1.0  0.26498  0.33785  0.25000  1.0000
  Cu  Cu3       1.0  0.73502  0.66215  0.75000  1.0000
  Cu  Cu4       1.0  0.76498  0.16215  0.25000  1.0000
  H   H1        1.0  0.36236  0.18419  0.89400  1.0000
  H   H2        1.0  0.13763  0.68420  0.39400  1.0000
  H   H3        1.0  0.36237  0.18420  0.60600  1.0000
  H   H4        1.0  0.86237  0.31581  0.89400  1.0000
  H   H5        1.0  0.63763  0.81581  0.10600  1.0000
  H   H6        1.0  0.86236  0.31580  0.60600  1.0000
  H   H7        1.0  0.63764  0.81580  0.39400  1.0000
  H   H8        1.0  0.13763  0.68419  0.10600  1.0000
  H   H9        1.0  0.52116  0.26074  0.99051  1.0000
  H   H10       1.0  0.97883  0.76075  0.49051  1.0000
  H   H11       1.0  0.52116  0.26075  0.50948  1.0000
  H   H12       1.0  0.02117  0.23926  0.99052  1.0000
  H   H13       1.0  0.47884  0.73925  0.00949  1.0000
  H   H14       1.0  0.02116  0.23925  0.50949  1.0000
  H   H15       1.0  0.47884  0.73925  0.49051  1.0000
  H   H16       1.0  0.97883  0.76074  0.00949  1.0000
  H   H17       1.0  0.29455  0.99695  0.10628  1.0000
  H   H18       1.0  0.20544  0.49695  0.60629  1.0000
  H   H19       1.0  0.29455  0.99695  0.39371  1.0000
  H   H20       1.0  0.79456  0.50305  0.10629  1.0000
  H   H21       1.0  0.70544  0.00305  0.89372  1.0000
  H   H22       1.0  0.79456  0.50305  0.39372  1.0000
  H   H23       1.0  0.70544  0.00305  0.60628  1.0000
  H   H24       1.0  0.20544  0.49695  0.89372  1.0000
  H   H25       1.0  0.14634  0.91629  0.00888  1.0000
  H   H26       1.0  0.35366  0.41630  0.50888  1.0000
  H   H27       1.0  0.14634  0.91629  0.49112  1.0000
  H   H28       1.0  0.64634  0.58371  0.00888  1.0000
  H   H29       1.0  0.85366  0.08371  0.99112  1.0000
  H   H30       1.0  0.64634  0.58371  0.49112  1.0000
  H   H31       1.0  0.85365  0.08371  0.50888  1.0000
  H   H32       1.0  0.35366  0.41630  0.99112  1.0000
  H   H33       1.0  0.07697  0.91735  0.89776  1.0000
  H   H34       1.0  0.42303  0.41736  0.39776  1.0000
  H   H35       1.0  0.07697  0.91736  0.60224  1.0000
  H   H36       1.0  0.57697  0.58264  0.89776  1.0000
  H   H37       1.0  0.92303  0.08264  0.10224  1.0000
  H   H38       1.0  0.57697  0.58264  0.60224  1.0000
  H   H39       1.0  0.92303  0.08264  0.39776  1.0000
  H   H40       1.0  0.42303  0.41736  0.10224  1.0000
  H   H41       1.0  0.10023  0.03993  0.85169  1.0000
  H   H42       1.0  0.39977  0.53993  0.35169  1.0000
  H   H43       1.0  0.10024  0.03994  0.64831  1.0000
  H   H44       1.0  0.60023  0.46006  0.85169  1.0000
  H   H45       1.0  0.89977  0.96007  0.14831  1.0000
  H   H46       1.0  0.60023  0.46007  0.64831  1.0000
  H   H47       1.0  0.89977  0.96007  0.35169  1.0000
  H   H48       1.0  0.39977  0.53993  0.14831  1.0000
  H   H49       1.0  0.36144  0.76489  0.90323  1.0000
  H   H50       1.0  0.13856  0.26489  0.40323  1.0000
  H   H51       1.0  0.36144  0.76489  0.59677  1.0000
  H   H52       1.0  0.86143  0.73511  0.90323  1.0000
  H   H53       1.0  0.63856  0.23511  0.09677  1.0000
  H   H54       1.0  0.86143  0.73511  0.59677  1.0000
  H   H55       1.0  0.63856  0.23511  0.40323  1.0000
  H   H56       1.0  0.13856  0.26489  0.09677  1.0000
  H   H57       1.0  0.56219  0.77868  0.85327  1.0000
  H   H58       1.0  0.93782  0.27868  0.35327  1.0000
  H   H59       1.0  0.56219  0.77868  0.64673  1.0000
  H   H60       1.0  0.06218  0.72132  0.85327  1.0000
  H   H61       1.0  0.43781  0.22132  0.14673  1.0000
  H   H62       1.0  0.06218  0.72132  0.64673  1.0000
  H   H63       1.0  0.43781  0.22132  0.35327  1.0000
  H   H64       1.0  0.93781  0.27868  0.14673  1.0000
  C   C1        1.0  0.34404  0.14380  0.94073  1.0000
  C   C2        1.0  0.15596  0.64381  0.44073  1.0000
  C   C3        1.0  0.34405  0.14381  0.55926  1.0000
  C   C4        1.0  0.84405  0.35620  0.94073  1.0000
  C   C5        1.0  0.65596  0.85620  0.05926  1.0000
  C   C6        1.0  0.84404  0.35619  0.55927  1.0000
  C   C7        1.0  0.65596  0.85619  0.44073  1.0000
  C   C8        1.0  0.15596  0.64381  0.05927  1.0000
  C   C9        1.0  0.43239  0.18740  0.99519  1.0000
  C   C10       1.0  0.06761  0.68740  0.49519  1.0000
  C   C11       1.0  0.43239  0.18740  0.50481  1.0000
  C   C12       1.0  0.93240  0.31260  0.99519  1.0000
  C   C13       1.0  0.56761  0.81260  0.00481  1.0000
  C   C14       1.0  0.93239  0.31260  0.50481  1.0000
  C   C15       1.0  0.56762  0.81260  0.49519  1.0000
  C   C16       1.0  0.06761  0.68740  0.00481  1.0000
  C   C17       1.0  0.41922  0.13400  0.05516  1.0000
  C   C18       1.0  0.08078  0.63400  0.55516  1.0000
  C   C19       1.0  0.41922  0.13400  0.44484  1.0000
  C   C20       1.0  0.91922  0.36600  0.05516  1.0000
  C   C21       1.0  0.58078  0.86600  0.94484  1.0000
  C   C22       1.0  0.91922  0.36600  0.44484  1.0000
  C   C23       1.0  0.58078  0.86600  0.55516  1.0000
  C   C24       1.0  0.08078  0.63400  0.94484  1.0000
  C   C25       1.0  0.30707  0.03901  0.05988  1.0000
  C   C26       1.0  0.19293  0.53902  0.55988  1.0000
  C   C27       1.0  0.30707  0.03901  0.44012  1.0000
  C   C28       1.0  0.80707  0.46099  0.05988  1.0000
  C   C29       1.0  0.69293  0.96099  0.94012  1.0000
  C   C30       1.0  0.80706  0.46099  0.44012  1.0000
  C   C31       1.0  0.69293  0.96099  0.55988  1.0000
  C   C32       1.0  0.19293  0.53901  0.94012  1.0000
  C   C33       1.0  0.22366  0.99396  0.00513  1.0000
  C   C34       1.0  0.27633  0.49396  0.50513  1.0000
  C   C35       1.0  0.22367  0.99396  0.49487  1.0000
  C   C36       1.0  0.72367  0.50604  0.00513  1.0000
  C   C37       1.0  0.77633  0.00604  0.99487  1.0000
  C   C38       1.0  0.72366  0.50604  0.49487  1.0000
  C   C39       1.0  0.77633  0.00604  0.50513  1.0000
  C   C40       1.0  0.27633  0.49396  0.99487  1.0000
  C   C41       1.0  0.24404  0.04394  0.94455  1.0000
  C   C42       1.0  0.25596  0.54394  0.44455  1.0000
  C   C43       1.0  0.24405  0.04394  0.55545  1.0000
  C   C44       1.0  0.74405  0.45606  0.94455  1.0000
  C   C45       1.0  0.75595  0.95606  0.05545  1.0000
  C   C46       1.0  0.74405  0.45606  0.55545  1.0000
  C   C47       1.0  0.75595  0.95606  0.44455  1.0000
  C   C48       1.0  0.25595  0.54394  0.05545  1.0000
  C   C49       1.0  0.17407  0.98490  0.88557  1.0000
  C   C50       1.0  0.32593  0.48490  0.38557  1.0000
  C   C51       1.0  0.17407  0.98490  0.61443  1.0000
  C   C52       1.0  0.67407  0.51510  0.88557  1.0000
  C   C53       1.0  0.82593  0.01510  0.11443  1.0000
  C   C54       1.0  0.67407  0.51510  0.61443  1.0000
  C   C55       1.0  0.82593  0.01510  0.38557  1.0000
  C   C56       1.0  0.32593  0.48490  0.11443  1.0000
  C   C57       1.0  0.47127  0.82318  0.88786  1.0000
  C   C58       1.0  0.02873  0.32318  0.38787  1.0000
  C   C59       1.0  0.47127  0.82318  0.61214  1.0000
  C   C60       1.0  0.97126  0.67682  0.88786  1.0000
  C   C61       1.0  0.52873  0.17682  0.11214  1.0000
  C   C62       1.0  0.97127  0.67683  0.61214  1.0000
  C   C63       1.0  0.52873  0.17682  0.38786  1.0000
  C   C64       1.0  0.02873  0.32318  0.11214  1.0000
  S   S1        1.0  0.36629  0.92891  0.83614  1.0000
  S   S2        1.0  0.13371  0.42891  0.33614  1.0000
  S   S3        1.0  0.36630  0.92891  0.66386  1.0000
  S   S4        1.0  0.86629  0.57109  0.83614  1.0000
  S   S5        1.0  0.63371  0.07109  0.16386  1.0000
  S   S6        1.0  0.86629  0.57109  0.66386  1.0000
  S   S7        1.0  0.63371  0.07109  0.33614  1.0000
  S   S8        1.0  0.13371  0.42891  0.16386  1.0000
  I   I1        1.0  0.86541  0.86610  0.75000  1.0000
  I   I2        1.0  0.63459  0.36610  0.25000  1.0000
  I   I3        1.0  0.36540  0.63390  0.75000  1.0000
  I   I4        1.0  0.13460  0.13390  0.25000  1.0000
