data_image0
_chemical_formula_structural       Cu4H64C64S8Br4
_chemical_formula_sum              "Cu4 H64 C64 S8 Br4"
_cell_length_a       7.02625
_cell_length_b       12.0757
_cell_length_c       20.6814
_cell_angle_alpha    90.0002
_cell_angle_beta     90.0002
_cell_angle_gamma    90.0002

_space_group_name_H-M_alt    "P 1"
_space_group_IT_number       1

loop_
  _space_group_symop_operation_xyz
  'x, y, z'

loop_
  _atom_site_type_symbol
  _atom_site_label
  _atom_site_symmetry_multiplicity
  _atom_site_fract_x
  _atom_site_fract_y
  _atom_site_fract_z
  _atom_site_occupancy
  Cu  Cu1       1.0  0.24479  0.33228  0.25000  1.0000
  Cu  Cu2       1.0  0.25523  0.83228  0.75000  1.0000
  Cu  Cu3       1.0  0.74477  0.16772  0.25000  1.0000
  Cu  Cu4       1.0  0.75523  0.66772  0.75000  1.0000
  H   H1        1.0  0.47098  0.23675  0.51188  1.0000
  H   H2        1.0  0.02902  0.73676  0.01188  1.0000
  H   H3        1.0  0.47097  0.23675  0.98812  1.0000
  H   H4        1.0  0.97097  0.26325  0.51188  1.0000
  H   H5        1.0  0.52903  0.76325  0.48812  1.0000
  H   H6        1.0  0.97097  0.26325  0.98812  1.0000
  H   H7        1.0  0.52902  0.76325  0.01188  1.0000
  H   H8        1.0  0.02902  0.73676  0.48812  1.0000
  H   H9        1.0  0.62506  0.31458  0.60941  1.0000
  H   H10       1.0  0.87495  0.81458  0.10941  1.0000
  H   H11       1.0  0.62505  0.31457  0.89059  1.0000
  H   H12       1.0  0.12505  0.18542  0.60941  1.0000
  H   H13       1.0  0.37495  0.68543  0.39059  1.0000
  H   H14       1.0  0.12505  0.18543  0.89059  1.0000
  H   H15       1.0  0.37495  0.68543  0.10941  1.0000
  H   H16       1.0  0.87495  0.81458  0.39059  1.0000
  H   H17       1.0  0.85444  0.57937  0.49444  1.0000
  H   H18       1.0  0.64555  0.07937  0.99444  1.0000
  H   H19       1.0  0.85444  0.57937  0.00556  1.0000
  H   H20       1.0  0.35444  0.92063  0.49444  1.0000
  H   H21       1.0  0.14556  0.42063  0.50556  1.0000
  H   H22       1.0  0.35443  0.92063  0.00556  1.0000
  H   H23       1.0  0.14556  0.42063  0.99444  1.0000
  H   H24       1.0  0.64556  0.07937  0.50556  1.0000
  H   H25       1.0  0.71197  0.49709  0.39609  1.0000
  H   H26       1.0  0.78803  0.99709  0.89609  1.0000
  H   H27       1.0  0.71197  0.49709  0.10391  1.0000
  H   H28       1.0  0.21196  0.00292  0.39609  1.0000
  H   H29       1.0  0.28804  0.50291  0.60391  1.0000
  H   H30       1.0  0.21196  0.00291  0.10391  1.0000
  H   H31       1.0  0.28804  0.50290  0.89609  1.0000
  H   H32       1.0  0.78803  0.99708  0.60391  1.0000
  H   H33       1.0  0.35873  0.26221  0.40463  1.0000
  H   H34       1.0  0.14127  0.76221  0.90463  1.0000
  H   H35       1.0  0.35872  0.26221  0.09537  1.0000
  H   H36       1.0  0.85873  0.23779  0.40463  1.0000
  H   H37       1.0  0.64128  0.73778  0.59537  1.0000
  H   H38       1.0  0.85873  0.23779  0.09537  1.0000
  H   H39       1.0  0.64128  0.73779  0.90463  1.0000
  H   H40       1.0  0.14127  0.76221  0.59537  1.0000
  H   H41       1.0  0.56486  0.27141  0.35590  1.0000
  H   H42       1.0  0.93513  0.77141  0.85591  1.0000
  H   H43       1.0  0.56485  0.27142  0.14409  1.0000
  H   H44       1.0  0.06486  0.22859  0.35591  1.0000
  H   H45       1.0  0.43514  0.72859  0.64410  1.0000
  H   H46       1.0  0.06486  0.22859  0.14409  1.0000
  H   H47       1.0  0.43514  0.72859  0.85590  1.0000
  H   H48       1.0  0.93514  0.77141  0.64409  1.0000
  H   H49       1.0  0.11459  0.54186  0.34641  1.0000
  H   H50       1.0  0.38541  0.04185  0.84641  1.0000
  H   H51       1.0  0.11458  0.54186  0.15359  1.0000
  H   H52       1.0  0.61458  0.95815  0.34641  1.0000
  H   H53       1.0  0.88542  0.45814  0.65359  1.0000
  H   H54       1.0  0.61458  0.95815  0.15359  1.0000
  H   H55       1.0  0.88542  0.45814  0.84641  1.0000
  H   H56       1.0  0.38542  0.04185  0.65359  1.0000
  H   H57       1.0  0.07704  0.42227  0.39417  1.0000
  H   H58       1.0  0.42296  0.92227  0.89418  1.0000
  H   H59       1.0  0.07703  0.42227  0.10582  1.0000
  H   H60       1.0  0.57704  0.07773  0.39418  1.0000
  H   H61       1.0  0.92296  0.57773  0.60583  1.0000
  H   H62       1.0  0.57703  0.07773  0.10583  1.0000
  H   H63       1.0  0.92297  0.57773  0.89418  1.0000
  H   H64       1.0  0.42297  0.92227  0.60582  1.0000
  C   C1        1.0  0.56181  0.30967  0.50743  1.0000
  C   C2        1.0  0.93819  0.80967  0.00743  1.0000
  C   C3        1.0  0.56180  0.30967  0.99257  1.0000
  C   C4        1.0  0.06181  0.19033  0.50743  1.0000
  C   C5        1.0  0.43819  0.69033  0.49257  1.0000
  C   C6        1.0  0.06180  0.19033  0.99257  1.0000
  C   C7        1.0  0.43819  0.69033  0.00743  1.0000
  C   C8        1.0  0.93820  0.80967  0.49257  1.0000
  C   C9        1.0  0.64726  0.35412  0.56253  1.0000
  C   C10       1.0  0.85274  0.85412  0.06253  1.0000
  C   C11       1.0  0.64725  0.35411  0.93747  1.0000
  C   C12       1.0  0.14725  0.14589  0.56253  1.0000
  C   C13       1.0  0.35274  0.64588  0.43747  1.0000
  C   C14       1.0  0.14726  0.14588  0.93747  1.0000
  C   C15       1.0  0.35275  0.64588  0.06253  1.0000
  C   C16       1.0  0.85274  0.85412  0.43747  1.0000
  C   C17       1.0  0.75001  0.45338  0.55885  1.0000
  C   C18       1.0  0.74999  0.95338  0.05886  1.0000
  C   C19       1.0  0.75001  0.45338  0.94114  1.0000
  C   C20       1.0  0.25001  0.04662  0.55886  1.0000
  C   C21       1.0  0.24999  0.54663  0.44114  1.0000
  C   C22       1.0  0.25000  0.04662  0.94114  1.0000
  C   C23       1.0  0.24999  0.54662  0.05886  1.0000
  C   C24       1.0  0.74999  0.95338  0.44114  1.0000
  C   C25       1.0  0.77546  0.50202  0.49802  1.0000
  C   C26       1.0  0.72454  0.00202  0.99802  1.0000
  C   C27       1.0  0.77546  0.50202  0.00198  1.0000
  C   C28       1.0  0.27546  0.99798  0.49802  1.0000
  C   C29       1.0  0.22454  0.49798  0.50198  1.0000
  C   C30       1.0  0.27546  0.99798  0.00198  1.0000
  C   C31       1.0  0.22454  0.49798  0.99802  1.0000
  C   C32       1.0  0.72454  0.00202  0.50198  1.0000
  C   C33       1.0  0.69535  0.45606  0.44273  1.0000
  C   C34       1.0  0.80465  0.95606  0.94273  1.0000
  C   C35       1.0  0.69535  0.45606  0.05727  1.0000
  C   C36       1.0  0.19535  0.04394  0.44273  1.0000
  C   C37       1.0  0.30465  0.54394  0.55727  1.0000
  C   C38       1.0  0.19534  0.04394  0.05727  1.0000
  C   C39       1.0  0.30465  0.54393  0.94273  1.0000
  C   C40       1.0  0.80465  0.95606  0.55727  1.0000
  C   C41       1.0  0.58069  0.36160  0.44708  1.0000
  C   C42       1.0  0.91931  0.86160  0.94708  1.0000
  C   C43       1.0  0.58068  0.36160  0.05292  1.0000
  C   C44       1.0  0.08068  0.13840  0.44708  1.0000
  C   C45       1.0  0.41932  0.63840  0.55293  1.0000
  C   C46       1.0  0.08068  0.13840  0.05292  1.0000
  C   C47       1.0  0.41932  0.63840  0.94707  1.0000
  C   C48       1.0  0.91932  0.86160  0.55292  1.0000
  C   C49       1.0  0.47295  0.31840  0.38944  1.0000
  C   C50       1.0  0.02705  0.81840  0.88944  1.0000
  C   C51       1.0  0.47295  0.31840  0.11056  1.0000
  C   C52       1.0  0.97295  0.18160  0.38944  1.0000
  C   C53       1.0  0.52705  0.68160  0.61057  1.0000
  C   C54       1.0  0.97295  0.18160  0.11056  1.0000
  C   C55       1.0  0.52705  0.68160  0.88943  1.0000
  C   C56       1.0  0.02705  0.81840  0.61056  1.0000
  C   C57       1.0  0.18132  0.48663  0.38213  1.0000
  C   C58       1.0  0.31868  0.98663  0.88213  1.0000
  C   C59       1.0  0.18132  0.48663  0.11788  1.0000
  C   C60       1.0  0.68132  0.01337  0.38213  1.0000
  C   C61       1.0  0.81868  0.51337  0.61788  1.0000
  C   C62       1.0  0.68132  0.01337  0.11787  1.0000
  C   C63       1.0  0.81868  0.51337  0.88213  1.0000
  C   C64       1.0  0.31868  0.98663  0.61787  1.0000
  S   S1        1.0  0.37576  0.42394  0.33554  1.0000
  S   S2        1.0  0.12424  0.92394  0.83554  1.0000
  S   S3        1.0  0.37576  0.42394  0.16446  1.0000
  S   S4        1.0  0.87576  0.07606  0.33554  1.0000
  S   S5        1.0  0.62424  0.57606  0.66446  1.0000
  S   S6        1.0  0.87576  0.07606  0.16446  1.0000
  S   S7        1.0  0.62424  0.57606  0.83554  1.0000
  S   S8        1.0  0.12425  0.92394  0.66446  1.0000
  Br  Br1       1.0  0.89066  0.35466  0.24999  1.0000
  Br  Br2       1.0  0.60936  0.85467  0.75002  1.0000
  Br  Br3       1.0  0.39064  0.14532  0.25000  1.0000
  Br  Br4       1.0  0.10935  0.64535  0.75001  1.0000
