data_image0
_chemical_formula_structural       Cu4H64C64S8Cl4
_chemical_formula_sum              "Cu4 H64 C64 S8 Cl4"
_cell_length_a       7.25691
_cell_length_b       11.9144
_cell_length_c       20.5689
_cell_angle_alpha    90.0005
_cell_angle_beta     89.9998
_cell_angle_gamma    104.407

_space_group_name_H-M_alt    "P 1"
_space_group_IT_number       1

loop_
  _space_group_symop_operation_xyz
  'x, y, z'

loop_
  _atom_site_type_symbol
  _atom_site_label
  _atom_site_symmetry_multiplicity
  _atom_site_fract_x
  _atom_site_fract_y
  _atom_site_fract_z
  _atom_site_occupancy
  Cu  Cu1       1.0  0.06987  0.89433  0.99728  1.0000
  Cu  Cu2       1.0  0.56986  0.39432  0.50272  1.0000
  Cu  Cu3       1.0  0.93014  0.10567  0.00272  1.0000
  Cu  Cu4       1.0  0.43015  0.60567  0.49728  1.0000
  H   H1        1.0  0.20566  0.52140  0.85825  1.0000
  H   H2        1.0  0.70567  0.02142  0.64174  1.0000
  H   H3        1.0  0.79434  0.47858  0.14175  1.0000
  H   H4        1.0  0.29435  0.97858  0.35826  1.0000
  H   H5        1.0  0.27204  0.46605  0.74630  1.0000
  H   H6        1.0  0.77204  0.96605  0.75369  1.0000
  H   H7        1.0  0.72798  0.53396  0.25370  1.0000
  H   H8        1.0  0.22797  0.03396  0.24631  1.0000
  H   H9        1.0  0.62775  0.80658  0.71308  1.0000
  H   H10       1.0  0.12773  0.30658  0.78692  1.0000
  H   H11       1.0  0.37223  0.19342  0.28692  1.0000
  H   H12       1.0  0.87227  0.69342  0.21307  1.0000
  H   H13       1.0  0.56175  0.86320  0.82554  1.0000
  H   H14       1.0  0.06174  0.36320  0.67447  1.0000
  H   H15       1.0  0.43823  0.13680  0.17446  1.0000
  H   H16       1.0  0.93826  0.63679  0.32553  1.0000
  H   H17       1.0  0.43489  0.78654  0.94153  1.0000
  H   H18       1.0  0.93491  0.28656  0.55847  1.0000
  H   H19       1.0  0.56508  0.21344  0.05847  1.0000
  H   H20       1.0  0.06510  0.71344  0.44153  1.0000
  H   H21       1.0  0.23273  0.66465  0.94246  1.0000
  H   H22       1.0  0.73275  0.16465  0.55753  1.0000
  H   H23       1.0  0.76725  0.33534  0.05753  1.0000
  H   H24       1.0  0.26726  0.83534  0.44247  1.0000
  H   H25       1.0  0.89874  0.67685  0.89143  1.0000
  H   H26       1.0  0.39877  0.17686  0.60857  1.0000
  H   H27       1.0  0.10123  0.32315  0.10857  1.0000
  H   H28       1.0  0.60126  0.82314  0.39143  1.0000
  H   H29       1.0  0.84892  0.81028  0.87259  1.0000
  H   H30       1.0  0.34893  0.31027  0.62741  1.0000
  H   H31       1.0  0.15107  0.18973  0.12741  1.0000
  H   H32       1.0  0.65109  0.68971  0.37259  1.0000
  H   H33       1.0  0.18660  0.86151  0.65463  1.0000
  H   H34       1.0  0.68660  0.36150  0.84537  1.0000
  H   H35       1.0  0.81340  0.13850  0.34536  1.0000
  H   H36       1.0  0.31340  0.63850  0.15463  1.0000
  H   H37       1.0  0.11385  0.90886  0.76732  1.0000
  H   H38       1.0  0.61387  0.40886  0.73269  1.0000
  H   H39       1.0  0.88614  0.09113  0.23268  1.0000
  H   H40       1.0  0.38614  0.59114  0.26731  1.0000
  H   H41       1.0  0.82650  0.55223  0.80056  1.0000
  H   H42       1.0  0.32650  0.05223  0.69943  1.0000
  H   H43       1.0  0.17349  0.44778  0.19943  1.0000
  H   H44       1.0  0.67351  0.94777  0.30057  1.0000
  H   H45       1.0  0.89826  0.50474  0.68741  1.0000
  H   H46       1.0  0.39824  0.00474  0.81259  1.0000
  H   H47       1.0  0.10175  0.49527  0.31259  1.0000
  H   H48       1.0  0.60175  0.99526  0.18742  1.0000
  H   H49       1.0  0.07355  0.68864  0.55868  1.0000
  H   H50       1.0  0.57354  0.18864  0.94132  1.0000
  H   H51       1.0  0.92645  0.31136  0.44131  1.0000
  H   H52       1.0  0.42647  0.81138  0.05868  1.0000
  H   H53       1.0  0.07826  0.55231  0.59080  1.0000
  H   H54       1.0  0.57824  0.05230  0.90920  1.0000
  H   H55       1.0  0.92174  0.44770  0.40919  1.0000
  H   H56       1.0  0.42174  0.94771  0.09081  1.0000
  H   H57       1.0  0.39852  0.51060  0.64140  1.0000
  H   H58       1.0  0.89849  0.01059  0.85859  1.0000
  H   H59       1.0  0.60149  0.48940  0.35860  1.0000
  H   H60       1.0  0.10150  0.98940  0.14141  1.0000
  H   H61       1.0  0.62077  0.61451  0.63765  1.0000
  H   H62       1.0  0.12075  0.11450  0.86235  1.0000
  H   H63       1.0  0.37924  0.38550  0.36234  1.0000
  H   H64       1.0  0.87923  0.88549  0.13766  1.0000
  C   C1        1.0  0.30094  0.58430  0.82702  1.0000
  C   C2        1.0  0.80096  0.08431  0.67297  1.0000
  C   C3        1.0  0.69904  0.41569  0.17298  1.0000
  C   C4        1.0  0.19905  0.91569  0.32703  1.0000
  C   C5        1.0  0.33722  0.55313  0.76378  1.0000
  C   C6        1.0  0.83722  0.05313  0.73621  1.0000
  C   C7        1.0  0.66277  0.44688  0.23622  1.0000
  C   C8        1.0  0.16279  0.94687  0.26379  1.0000
  C   C9        1.0  0.44854  0.63336  0.72123  1.0000
  C   C10       1.0  0.94853  0.13336  0.77877  1.0000
  C   C11       1.0  0.55146  0.36665  0.27877  1.0000
  C   C12       1.0  0.05148  0.86664  0.22123  1.0000
  C   C13       1.0  0.53490  0.74429  0.74512  1.0000
  C   C14       1.0  0.03489  0.24428  0.75488  1.0000
  C   C15       1.0  0.46509  0.25571  0.25488  1.0000
  C   C16       1.0  0.96513  0.75571  0.24512  1.0000
  C   C17       1.0  0.49884  0.77560  0.80802  1.0000
  C   C18       1.0  0.99885  0.27560  0.69198  1.0000
  C   C19       1.0  0.50114  0.22439  0.19199  1.0000
  C   C20       1.0  0.00116  0.72439  0.30802  1.0000
  C   C21       1.0  0.37547  0.69730  0.84922  1.0000
  C   C22       1.0  0.87548  0.19730  0.65077  1.0000
  C   C23       1.0  0.62452  0.30270  0.15077  1.0000
  C   C24       1.0  0.12453  0.80270  0.34923  1.0000
  C   C25       1.0  0.31336  0.73713  0.91291  1.0000
  C   C26       1.0  0.81336  0.23714  0.58708  1.0000
  C   C27       1.0  0.68662  0.26286  0.08709  1.0000
  C   C28       1.0  0.18665  0.76286  0.41291  1.0000
  C   C29       1.0  0.95074  0.75720  0.86358  1.0000
  C   C30       1.0  0.45075  0.25721  0.63642  1.0000
  C   C31       1.0  0.04926  0.24280  0.13642  1.0000
  C   C32       1.0  0.54927  0.74278  0.36358  1.0000
  C   C33       1.0  0.10480  0.79358  0.68633  1.0000
  C   C34       1.0  0.60480  0.29358  0.81367  1.0000
  C   C35       1.0  0.89519  0.20642  0.31367  1.0000
  C   C36       1.0  0.39521  0.70642  0.18633  1.0000
  C   C37       1.0  0.06498  0.82009  0.74979  1.0000
  C   C38       1.0  0.56499  0.32009  0.75021  1.0000
  C   C39       1.0  0.93501  0.17990  0.25021  1.0000
  C   C40       1.0  0.43502  0.67991  0.24979  1.0000
  C   C41       1.0  0.97214  0.73278  0.79269  1.0000
  C   C42       1.0  0.47216  0.23278  0.70731  1.0000
  C   C43       1.0  0.02785  0.26722  0.20731  1.0000
  C   C44       1.0  0.52785  0.76721  0.29269  1.0000
  C   C45       1.0  0.90461  0.62057  0.76840  1.0000
  C   C46       1.0  0.40461  0.12057  0.73160  1.0000
  C   C47       1.0  0.09538  0.37943  0.23159  1.0000
  C   C48       1.0  0.59540  0.87943  0.26841  1.0000
  C   C49       1.0  0.94511  0.59375  0.70485  1.0000
  C   C50       1.0  0.44510  0.09375  0.79515  1.0000
  C   C51       1.0  0.05488  0.40626  0.29514  1.0000
  C   C52       1.0  0.55489  0.90626  0.20486  1.0000
  C   C53       1.0  0.05342  0.67881  0.66400  1.0000
  C   C54       1.0  0.55342  0.17881  0.83600  1.0000
  C   C55       1.0  0.94658  0.32120  0.33600  1.0000
  C   C56       1.0  0.44657  0.82120  0.16400  1.0000
  C   C57       1.0  0.12415  0.64587  0.59995  1.0000
  C   C58       1.0  0.62415  0.14587  0.90005  1.0000
  C   C59       1.0  0.87585  0.35412  0.40004  1.0000
  C   C60       1.0  0.37585  0.85414  0.09996  1.0000
  C   C61       1.0  0.47041  0.60149  0.65150  1.0000
  C   C62       1.0  0.97039  0.10148  0.84849  1.0000
  C   C63       1.0  0.52959  0.39851  0.34850  1.0000
  C   C64       1.0  0.02959  0.89852  0.15151  1.0000
  S   S1        1.0  0.16790  0.84236  0.90228  1.0000
  S   S2        1.0  0.66792  0.34236  0.59771  1.0000
  S   S3        1.0  0.83208  0.15764  0.09772  1.0000
  S   S4        1.0  0.33209  0.65763  0.40228  1.0000
  S   S5        1.0  0.38413  0.69049  0.59142  1.0000
  S   S6        1.0  0.88413  0.19049  0.90858  1.0000
  S   S7        1.0  0.61587  0.30951  0.40858  1.0000
  S   S8        1.0  0.11588  0.80953  0.09142  1.0000
  Cl  Cl1       1.0  0.75534  0.90444  0.98625  1.0000
  Cl  Cl2       1.0  0.25534  0.40444  0.51375  1.0000
  Cl  Cl3       1.0  0.24466  0.09556  0.01375  1.0000
  Cl  Cl4       1.0  0.74466  0.59555  0.48625  1.0000
