data_image0
_chemical_formula_structural       Cr4Ni2H32C24N8O14
_chemical_formula_sum              "Cr4 Ni2 H32 C24 N8 O14"
_cell_length_a       9.22864
_cell_length_b       8.4713
_cell_length_c       10.4259
_cell_angle_alpha    97.1562
_cell_angle_beta     89.9978
_cell_angle_gamma    89.9988

_space_group_name_H-M_alt    "P 1"
_space_group_IT_number       1

loop_
  _space_group_symop_operation_xyz
  'x, y, z'

loop_
  _atom_site_type_symbol
  _atom_site_label
  _atom_site_symmetry_multiplicity
  _atom_site_fract_x
  _atom_site_fract_y
  _atom_site_fract_z
  _atom_site_occupancy
  Cr  Cr1       1.0  0.34238  0.85215  0.22642  1.0000
  Cr  Cr2       1.0  0.84234  0.14786  0.77358  1.0000
  Cr  Cr3       1.0  0.56768  0.14973  0.25592  1.0000
  Cr  Cr4       1.0  0.06770  0.85028  0.74406  1.0000
  Ni  Ni1       1.0  0.95189  0.01155  0.25533  1.0000
  Ni  Ni2       1.0  0.45188  0.98845  0.74467  1.0000
  H   H1        1.0  0.68463  0.52187  0.30444  1.0000
  H   H2        1.0  0.18465  0.47815  0.69556  1.0000
  H   H3        1.0  0.75341  0.37036  0.09136  1.0000
  H   H4        1.0  0.25341  0.62965  0.90865  1.0000
  H   H5        1.0  0.91598  0.50588  0.94273  1.0000
  H   H6        1.0  0.41598  0.49411  0.05726  1.0000
  H   H7        1.0  0.99997  0.77579  0.01187  1.0000
  H   H8        1.0  0.49995  0.22419  0.98812  1.0000
  H   H9        1.0  0.79367  0.75212  0.48033  1.0000
  H   H10       1.0  0.29369  0.24786  0.51966  1.0000
  H   H11       1.0  0.66455  0.86010  0.40052  1.0000
  H   H12       1.0  0.16456  0.13991  0.59948  1.0000
  H   H13       1.0  0.21501  0.50305  0.19932  1.0000
  H   H14       1.0  0.71502  0.49694  0.80067  1.0000
  H   H15       1.0  0.14023  0.65959  0.40925  1.0000
  H   H16       1.0  0.64022  0.34041  0.59075  1.0000
  H   H17       1.0  0.97857  0.52591  0.55915  1.0000
  H   H18       1.0  0.47857  0.47410  0.44086  1.0000
  H   H19       1.0  0.90033  0.25213  0.49499  1.0000
  H   H20       1.0  0.40036  0.74789  0.50503  1.0000
  H   H21       1.0  0.25030  0.16849  0.11299  1.0000
  H   H22       1.0  0.75030  0.83154  0.88700  1.0000
  H   H23       1.0  0.11368  0.25989  0.02875  1.0000
  H   H24       1.0  0.61370  0.74012  0.97125  1.0000
  H   H25       1.0  0.80867  0.05460  0.46181  1.0000
  H   H26       1.0  0.30866  0.94538  0.53821  1.0000
  H   H27       1.0  0.95746  0.94514  0.47532  1.0000
  H   H28       1.0  0.45746  0.05482  0.52467  1.0000
  H   H29       1.0  0.98100  0.04175  0.02193  1.0000
  H   H30       1.0  0.48098  0.95824  0.97806  1.0000
  H   H31       1.0  0.12118  0.95050  0.08135  1.0000
  H   H32       1.0  0.62115  0.04950  0.91864  1.0000
  C   C1        1.0  0.81123  0.72605  0.27331  1.0000
  C   C2        1.0  0.31123  0.27395  0.72668  1.0000
  C   C3        1.0  0.75668  0.57372  0.23853  1.0000
  C   C4        1.0  0.25669  0.42628  0.76147  1.0000
  C   C5        1.0  0.79316  0.49062  0.11950  1.0000
  C   C6        1.0  0.29316  0.50938  0.88049  1.0000
  C   C7        1.0  0.88339  0.56428  0.03746  1.0000
  C   C8        1.0  0.38338  0.43572  0.96253  1.0000
  C   C9        1.0  0.93167  0.71780  0.07630  1.0000
  C   C10       1.0  0.43166  0.28219  0.92370  1.0000
  C   C11       1.0  0.77832  0.82180  0.39915  1.0000
  C   C12       1.0  0.27833  0.17819  0.60085  1.0000
  C   C13       1.0  0.09462  0.29577  0.23521  1.0000
  C   C14       1.0  0.59463  0.70424  0.76479  1.0000
  C   C15       1.0  0.14453  0.45102  0.26649  1.0000
  C   C16       1.0  0.64454  0.54898  0.73351  1.0000
  C   C17       1.0  0.10365  0.53742  0.38308  1.0000
  C   C18       1.0  0.60365  0.46258  0.61692  1.0000
  C   C19       1.0  0.01327  0.46488  0.46586  1.0000
  C   C20       1.0  0.51327  0.53511  0.53415  1.0000
  C   C21       1.0  0.96810  0.30944  0.42941  1.0000
  C   C22       1.0  0.46811  0.69057  0.57061  1.0000
  C   C23       1.0  0.13378  0.19566  0.11231  1.0000
  C   C24       1.0  0.63378  0.80435  0.88769  1.0000
  N   N1        1.0  0.89684  0.79940  0.19223  1.0000
  N   N2        1.0  0.39684  0.20060  0.80776  1.0000
  N   N3        1.0  0.00811  0.22430  0.31656  1.0000
  N   N4        1.0  0.50812  0.77570  0.68346  1.0000
  N   N5        1.0  0.87142  0.96514  0.41491  1.0000
  N   N6        1.0  0.37143  0.03486  0.58509  1.0000
  N   N7        1.0  0.04993  0.04551  0.09991  1.0000
  N   N8        1.0  0.54990  0.95448  0.90009  1.0000
  O   O1        1.0  0.72647  0.14217  0.18845  1.0000
  O   O2        1.0  0.22647  0.85787  0.81155  1.0000
  O   O3        1.0  0.43055  0.71019  0.28190  1.0000
  O   O4        1.0  0.93046  0.28988  0.71815  1.0000
  O   O5        1.0  0.48810  0.31633  0.23946  1.0000
  O   O6        1.0  0.98812  0.68365  0.76058  1.0000
  O   O7        1.0  0.58317  0.12772  0.40957  1.0000
  O   O8        1.0  0.08319  0.87222  0.59041  1.0000
  O   O9        1.0  0.24669  0.78338  0.10015  1.0000
  O   O10       1.0  0.74661  0.21653  0.89986  1.0000
  O   O11       1.0  0.46464  0.99182  0.17013  1.0000
  O   O12       1.0  0.96464  0.00820  0.82983  1.0000
  O   O13       1.0  0.23586  0.94170  0.33654  1.0000
  O   O14       1.0  0.73585  0.05832  0.66343  1.0000
