data_image0
_chemical_formula_structural       CoH10C12N10
_chemical_formula_sum              "Co1 H10 C12 N10"
_cell_length_a       3.44362
_cell_length_b       9.59901
_cell_length_c       11.3184
_cell_angle_alpha    99.8884
_cell_angle_beta     96.0089
_cell_angle_gamma    92.1623

_space_group_name_H-M_alt    "P 1"
_space_group_IT_number       1

loop_
  _space_group_symop_operation_xyz
  'x, y, z'

loop_
  _atom_site_type_symbol
  _atom_site_label
  _atom_site_symmetry_multiplicity
  _atom_site_fract_x
  _atom_site_fract_y
  _atom_site_fract_z
  _atom_site_occupancy
  Co  Co1       1.0  0.00000  0.50000  0.50000  1.0000
  H   H1        1.0  0.11643  0.34866  0.23454  1.0000
  H   H2        1.0  0.88355  0.65134  0.76546  1.0000
  H   H3        1.0  0.75638  0.16272  0.51909  1.0000
  H   H4        1.0  0.24362  0.83728  0.48091  1.0000
  H   H5        1.0  0.73750  0.95303  0.31561  1.0000
  H   H6        1.0  0.26251  0.04697  0.68439  1.0000
  H   H7        1.0  0.81504  0.24982  0.04074  1.0000
  H   H8        1.0  0.18496  0.75018  0.95926  1.0000
  H   H9        1.0  0.11677  0.86298  0.16694  1.0000
  H   H10       1.0  0.88324  0.13702  0.83306  1.0000
  C   C1        1.0  0.00791  0.27181  0.28454  1.0000
  C   C2        1.0  0.99208  0.72819  0.71546  1.0000
  C   C3        1.0  0.82815  0.17084  0.42953  1.0000
  C   C4        1.0  0.17186  0.82916  0.57047  1.0000
  C   C5        1.0  0.96469  0.06465  0.11783  1.0000
  C   C6        1.0  0.03531  0.93535  0.88217  1.0000
  C   C7        1.0  0.81936  0.06563  0.33041  1.0000
  C   C8        1.0  0.18064  0.93437  0.66959  1.0000
  C   C9        1.0  0.90321  0.14102  0.02352  1.0000
  C   C10       1.0  0.09679  0.85898  0.97648  1.0000
  C   C11       1.0  0.06075  0.92323  0.09427  1.0000
  C   C12       1.0  0.93925  0.07677  0.90573  1.0000
  N   N1        1.0  0.94684  0.29860  0.39991  1.0000
  N   N2        1.0  0.05316  0.70140  0.60009  1.0000
  N   N3        1.0  0.93110  0.13130  0.23815  1.0000
  N   N4        1.0  0.06889  0.86871  0.76185  1.0000
  N   N5        1.0  0.48726  0.55404  0.39565  1.0000
  N   N6        1.0  0.51275  0.44596  0.60435  1.0000
  N   N7        1.0  0.50837  0.64119  0.33112  1.0000
  N   N8        1.0  0.49163  0.35880  0.66888  1.0000
  N   N9        1.0  0.53167  0.72495  0.26781  1.0000
  N   N10       1.0  0.46834  0.27505  0.73219  1.0000
