data_image0
_chemical_formula_structural       Zn3H18C26N6O10
_chemical_formula_sum              "Zn3 H18 C26 N6 O10"
_cell_length_a       9.14109
_cell_length_b       10.6479
_cell_length_c       11.4317
_cell_angle_alpha    120.226
_cell_angle_beta     99.5417
_cell_angle_gamma    97.4529

_space_group_name_H-M_alt    "P 1"
_space_group_IT_number       1

loop_
  _space_group_symop_operation_xyz
  'x, y, z'

loop_
  _atom_site_type_symbol
  _atom_site_label
  _atom_site_symmetry_multiplicity
  _atom_site_fract_x
  _atom_site_fract_y
  _atom_site_fract_z
  _atom_site_occupancy
  Zn  Zn1       1.0  0.31551  0.37414  0.37296  1.0000
  Zn  Zn2       1.0  0.68449  0.62586  0.62703  1.0000
  Zn  Zn3       1.0  0.00000  0.50000  0.50000  1.0000
  H   H1        1.0  0.87159  0.58090  0.19292  1.0000
  H   H2        1.0  0.12841  0.41911  0.80708  1.0000
  H   H3        1.0  0.24769  0.99825  0.43682  1.0000
  H   H4        1.0  0.75230  0.00174  0.56318  1.0000
  H   H5        1.0  0.85515  0.18123  0.49634  1.0000
  H   H6        1.0  0.14486  0.81877  0.50367  1.0000
  H   H7        1.0  0.21868  0.38495  0.00778  1.0000
  H   H8        1.0  0.78132  0.61504  0.99221  1.0000
  H   H9        1.0  0.21174  0.75425  0.82372  1.0000
  H   H10       1.0  0.78827  0.24575  0.17629  1.0000
  H   H11       1.0  0.53420  0.81359  0.88404  1.0000
  H   H12       1.0  0.46580  0.18641  0.11595  1.0000
  H   H13       1.0  0.76535  0.93442  0.15806  1.0000
  H   H14       1.0  0.23464  0.06557  0.84194  1.0000
  H   H15       1.0  0.98877  0.09713  0.84229  1.0000
  H   H16       1.0  0.01121  0.90285  0.15772  1.0000
  H   H17       1.0  0.75742  0.04685  0.91426  1.0000
  H   H18       1.0  0.24256  0.95313  0.08574  1.0000
  C   C1        1.0  0.92681  0.54609  0.10778  1.0000
  C   C2        1.0  0.07318  0.45393  0.89223  1.0000
  C   C3        1.0  0.13968  0.99806  0.46519  1.0000
  C   C4        1.0  0.86032  0.00195  0.53480  1.0000
  C   C5        1.0  0.11557  0.20417  0.42074  1.0000
  C   C6        1.0  0.88442  0.79579  0.57926  1.0000
  C   C7        1.0  0.91625  0.10006  0.49667  1.0000
  C   C8        1.0  0.08377  0.89995  0.50332  1.0000
  C   C9        1.0  0.12312  0.43525  0.00295  1.0000
  C   C10       1.0  0.87688  0.56476  0.99706  1.0000
  C   C11       1.0  0.28635  0.70499  0.75798  1.0000
  C   C12       1.0  0.71366  0.29501  0.24202  1.0000
  C   C13       1.0  0.05633  0.09836  0.46153  1.0000
  C   C14       1.0  0.94368  0.90164  0.53846  1.0000
  C   C15       1.0  0.10482  0.46401  0.23239  1.0000
  C   C16       1.0  0.89519  0.53600  0.76761  1.0000
  C   C17       1.0  0.05042  0.48143  0.11149  1.0000
  C   C18       1.0  0.94958  0.51859  0.88851  1.0000
  C   C19       1.0  0.44500  0.73532  0.78729  1.0000
  C   C20       1.0  0.55501  0.26468  0.21271  1.0000
  C   C21       1.0  0.99349  0.05349  0.91075  1.0000
  C   C22       1.0  0.00651  0.94650  0.08925  1.0000
  C   C23       1.0  0.86386  0.02664  0.95207  1.0000
  C   C24       1.0  0.13613  0.97335  0.04793  1.0000
  C   C25       1.0  0.87041  0.97342  0.04188  1.0000
  C   C26       1.0  0.12958  0.02658  0.95812  1.0000
  N   N1        1.0  0.34653  0.55996  0.56646  1.0000
  N   N2        1.0  0.65347  0.44005  0.43354  1.0000
  N   N3        1.0  0.22950  0.59588  0.62079  1.0000
  N   N4        1.0  0.77050  0.40412  0.37921  1.0000
  N   N5        1.0  0.47856  0.64296  0.66604  1.0000
  N   N6        1.0  0.52143  0.35704  0.33396  1.0000
  O   O1        1.0  0.20792  0.38994  0.22121  1.0000
  O   O2        1.0  0.79209  0.61006  0.77879  1.0000
  O   O3        1.0  0.25367  0.21406  0.40915  1.0000
  O   O4        1.0  0.74630  0.78595  0.59084  1.0000
  O   O5        1.0  0.04814  0.52406  0.33534  1.0000
  O   O6        1.0  0.95186  0.47595  0.66467  1.0000
  O   O7        1.0  0.02856  0.27703  0.39793  1.0000
  O   O8        1.0  0.97148  0.72295  0.60206  1.0000
  O   O9        1.0  0.73890  0.94854  0.08005  1.0000
  O   O10       1.0  0.26108  0.05146  0.91997  1.0000
