data_image0
_chemical_formula_structural       Zn6H24C40N12O16
_chemical_formula_sum              "Zn6 H24 C40 N12 O16"
_cell_length_a       7.8146
_cell_length_b       8.58192
_cell_length_c       19.9414
_cell_angle_alpha    90
_cell_angle_beta     90
_cell_angle_gamma    112.53

_space_group_name_H-M_alt    "P 1"
_space_group_IT_number       1

loop_
  _space_group_symop_operation_xyz
  'x, y, z'

loop_
  _atom_site_type_symbol
  _atom_site_label
  _atom_site_symmetry_multiplicity
  _atom_site_fract_x
  _atom_site_fract_y
  _atom_site_fract_z
  _atom_site_occupancy
  Zn  Zn1       1.0  1.00000  0.50000  0.50000  1.0000
  Zn  Zn2       1.0  0.50000  0.50000  1.00000  1.0000
  Zn  Zn3       1.0  0.53078  0.22055  0.47946  1.0000
  Zn  Zn4       1.0  0.96922  0.77945  0.97946  1.0000
  Zn  Zn5       1.0  0.46922  0.77945  0.52054  1.0000
  Zn  Zn6       1.0  0.03078  0.22055  0.02054  1.0000
  H   H1        1.0  0.01072  0.66667  0.31247  1.0000
  H   H2        1.0  0.48928  0.33333  0.81248  1.0000
  H   H3        1.0  0.98928  0.33333  0.68752  1.0000
  H   H4        1.0  0.51072  0.66667  0.18753  1.0000
  H   H5        1.0  0.06512  0.73734  0.19047  1.0000
  H   H6        1.0  0.43487  0.26265  0.69047  1.0000
  H   H7        1.0  0.93487  0.26265  0.80953  1.0000
  H   H8        1.0  0.56513  0.73734  0.30953  1.0000
  H   H9        1.0  0.57965  0.30352  0.14164  1.0000
  H   H10       1.0  0.92035  0.69648  0.64164  1.0000
  H   H11       1.0  0.42035  0.69648  0.85836  1.0000
  H   H12       1.0  0.07965  0.30352  0.35836  1.0000
  H   H13       1.0  0.52116  0.23456  0.26382  1.0000
  H   H14       1.0  0.97884  0.76544  0.76382  1.0000
  H   H15       1.0  0.47884  0.76545  0.73618  1.0000
  H   H16       1.0  0.02115  0.23456  0.23618  1.0000
  H   H17       1.0  0.12869  0.22221  0.57756  1.0000
  H   H18       1.0  0.37131  0.77779  0.07756  1.0000
  H   H19       1.0  0.87131  0.77779  0.42244  1.0000
  H   H20       1.0  0.62869  0.22221  0.92244  1.0000
  H   H21       1.0  0.86907  0.88737  0.59264  1.0000
  H   H22       1.0  0.63093  0.11264  0.09264  1.0000
  H   H23       1.0  0.13093  0.11263  0.40736  1.0000
  H   H24       1.0  0.36907  0.88737  0.90736  1.0000
  C   C1        1.0  0.73723  0.40412  0.36839  1.0000
  C   C2        1.0  0.76277  0.59588  0.86839  1.0000
  C   C3        1.0  0.26277  0.59588  0.63161  1.0000
  C   C4        1.0  0.23723  0.40412  0.13161  1.0000
  C   C5        1.0  0.76314  0.44625  0.29535  1.0000
  C   C6        1.0  0.73686  0.55375  0.79535  1.0000
  C   C7        1.0  0.23686  0.55375  0.70465  1.0000
  C   C8        1.0  0.26314  0.44625  0.20465  1.0000
  C   C9        1.0  0.91549  0.58888  0.27473  1.0000
  C   C10       1.0  0.58450  0.41111  0.77473  1.0000
  C   C11       1.0  0.08451  0.41112  0.72527  1.0000
  C   C12       1.0  0.41549  0.58888  0.22528  1.0000
  C   C13       1.0  0.94681  0.62729  0.20696  1.0000
  C   C14       1.0  0.55319  0.37271  0.70696  1.0000
  C   C15       1.0  0.05319  0.37271  0.79304  1.0000
  C   C16       1.0  0.44681  0.62729  0.29304  1.0000
  C   C17       1.0  0.82801  0.52161  0.15869  1.0000
  C   C18       1.0  0.67199  0.47839  0.65870  1.0000
  C   C19       1.0  0.17199  0.47839  0.84130  1.0000
  C   C20       1.0  0.32801  0.52161  0.34131  1.0000
  C   C21       1.0  0.67553  0.37950  0.17953  1.0000
  C   C22       1.0  0.82447  0.62050  0.67953  1.0000
  C   C23       1.0  0.32447  0.62050  0.82047  1.0000
  C   C24       1.0  0.17553  0.37950  0.32047  1.0000
  C   C25       1.0  0.64217  0.34227  0.24730  1.0000
  C   C26       1.0  0.85783  0.65773  0.74730  1.0000
  C   C27       1.0  0.35783  0.65773  0.75270  1.0000
  C   C28       1.0  0.14217  0.34227  0.25270  1.0000
  C   C29       1.0  0.85790  0.56208  0.08569  1.0000
  C   C30       1.0  0.64210  0.43792  0.58569  1.0000
  C   C31       1.0  0.14210  0.43793  0.91431  1.0000
  C   C32       1.0  0.35790  0.56207  0.41431  1.0000
  C   C33       1.0  0.98670  0.16068  0.56063  1.0000
  C   C34       1.0  0.51330  0.83932  0.06063  1.0000
  C   C35       1.0  0.01330  0.83932  0.43937  1.0000
  C   C36       1.0  0.48670  0.16068  0.93937  1.0000
  C   C37       1.0  0.86003  0.99595  0.56762  1.0000
  C   C38       1.0  0.63997  0.00405  0.06762  1.0000
  C   C39       1.0  0.13997  0.00405  0.43238  1.0000
  C   C40       1.0  0.36003  0.99595  0.93238  1.0000
  N   N1        1.0  0.90323  0.24355  0.52390  1.0000
  N   N2        1.0  0.59678  0.75645  0.02390  1.0000
  N   N3        1.0  0.09677  0.75645  0.47610  1.0000
  N   N4        1.0  0.40323  0.24355  0.97610  1.0000
  N   N5        1.0  0.73365  0.13593  0.50822  1.0000
  N   N6        1.0  0.76636  0.86407  0.00822  1.0000
  N   N7        1.0  0.26636  0.86407  0.49178  1.0000
  N   N8        1.0  0.23364  0.13593  0.99178  1.0000
  N   N9        1.0  0.70475  0.98460  0.53466  1.0000
  N   N10       1.0  0.79525  0.01540  0.03466  1.0000
  N   N11       1.0  0.29525  0.01540  0.46534  1.0000
  N   N12       1.0  0.20475  0.98460  0.96534  1.0000
  O   O1        1.0  0.87959  0.46110  0.40480  1.0000
  O   O2        1.0  0.62041  0.53890  0.90480  1.0000
  O   O3        1.0  0.12041  0.53891  0.59520  1.0000
  O   O4        1.0  0.37959  0.46110  0.09520  1.0000
  O   O5        1.0  0.57301  0.31058  0.38837  1.0000
  O   O6        1.0  0.92699  0.68942  0.88837  1.0000
  O   O7        1.0  0.42699  0.68942  0.61163  1.0000
  O   O8        1.0  0.07301  0.31058  0.11163  1.0000
  O   O9        1.0  0.00143  0.69340  0.06892  1.0000
  O   O10       1.0  0.49857  0.30660  0.56892  1.0000
  O   O11       1.0  0.99857  0.30660  0.93108  1.0000
  O   O12       1.0  0.50143  0.69340  0.43108  1.0000
  O   O13       1.0  0.74193  0.47097  0.04327  1.0000
  O   O14       1.0  0.75807  0.52902  0.54327  1.0000
  O   O15       1.0  0.25807  0.52903  0.95673  1.0000
  O   O16       1.0  0.24193  0.47097  0.45673  1.0000
