data_image0
_chemical_formula_structural       CuNiH12C12N8
_chemical_formula_sum              "Cu1 Ni1 H12 C12 N8"
_cell_length_a       6.91261
_cell_length_b       7.34282
_cell_length_c       8.7654
_cell_angle_alpha    112.485
_cell_angle_beta     112.626
_cell_angle_gamma    92.9518

_space_group_name_H-M_alt    "P 1"
_space_group_IT_number       1

loop_
  _space_group_symop_operation_xyz
  'x, y, z'

loop_
  _atom_site_type_symbol
  _atom_site_label
  _atom_site_symmetry_multiplicity
  _atom_site_fract_x
  _atom_site_fract_y
  _atom_site_fract_z
  _atom_site_occupancy
  Cu  Cu1       1.0  0.50000  0.50000  0.50000  1.0000
  Ni  Ni1       1.0  0.99999  1.00000  0.50000  1.0000
  H   H1        1.0  0.15339  0.20331  0.09237  1.0000
  H   H2        1.0  0.84661  0.79670  0.90762  1.0000
  H   H3        1.0  0.26678  0.07908  0.80068  1.0000
  H   H4        1.0  0.73322  0.92092  0.19931  1.0000
  H   H5        1.0  0.81382  0.45886  0.29472  1.0000
  H   H6        1.0  0.18619  0.54112  0.70528  1.0000
  H   H7        1.0  0.63041  0.30555  0.81267  1.0000
  H   H8        1.0  0.36960  0.69446  0.18733  1.0000
  H   H9        1.0  0.70909  0.09245  0.84857  1.0000
  H   H10       1.0  0.29093  0.90756  0.15143  1.0000
  H   H11       1.0  0.86520  0.34485  0.01290  1.0000
  H   H12       1.0  0.13481  0.65515  0.98711  1.0000
  C   C1        1.0  0.30666  0.23715  0.09082  1.0000
  C   C2        1.0  0.69334  0.76285  0.90919  1.0000
  C   C3        1.0  0.36043  0.17658  0.94636  1.0000
  C   C4        1.0  0.63957  0.82342  0.05364  1.0000
  C   C5        1.0  0.64863  0.37387  0.20312  1.0000
  C   C6        1.0  0.35138  0.62613  0.79689  1.0000
  C   C7        1.0  0.70255  0.25051  0.91680  1.0000
  C   C8        1.0  0.29747  0.74950  0.08320  1.0000
  C   C9        1.0  0.81725  0.84556  0.53380  1.0000
  C   C10       1.0  0.18273  0.15443  0.46619  1.0000
  C   C11       1.0  0.11155  0.77807  0.42119  1.0000
  C   C12       1.0  0.88843  0.22194  0.57881  1.0000
  N   N1        1.0  0.48791  0.35965  0.24967  1.0000
  N   N2        1.0  0.51209  0.64034  0.75032  1.0000
  N   N3        1.0  0.57626  0.26521  0.01952  1.0000
  N   N4        1.0  0.42376  0.73480  0.98049  1.0000
  N   N5        1.0  0.69952  0.73866  0.54737  1.0000
  N   N6        1.0  0.30047  0.26133  0.45263  1.0000
  N   N7        1.0  0.17711  0.63309  0.36995  1.0000
  N   N8        1.0  0.82289  0.36691  0.63004  1.0000
