data_image0
_chemical_formula_structural       ZnNiH12C12N8
_chemical_formula_sum              "Zn1 Ni1 H12 C12 N8"
_cell_length_a       6.99177
_cell_length_b       7.28436
_cell_length_c       9.07081
_cell_angle_alpha    113.703
_cell_angle_beta     113.536
_cell_angle_gamma    89.9443

_space_group_name_H-M_alt    "P 1"
_space_group_IT_number       1

loop_
  _space_group_symop_operation_xyz
  'x, y, z'

loop_
  _atom_site_type_symbol
  _atom_site_label
  _atom_site_symmetry_multiplicity
  _atom_site_fract_x
  _atom_site_fract_y
  _atom_site_fract_z
  _atom_site_occupancy
  Zn  Zn1       1.0  0.00000  0.50002  0.00000  1.0000
  Ni  Ni1       1.0  0.50000  0.00001  0.00000  1.0000
  H   H1        1.0  0.31148  0.39254  0.78280  1.0000
  H   H2        1.0  0.68851  0.60749  0.21720  1.0000
  H   H3        1.0  0.74528  0.14879  0.29978  1.0000
  H   H4        1.0  0.25471  0.85115  0.70022  1.0000
  H   H5        1.0  0.64554  0.29461  0.59174  1.0000
  H   H6        1.0  0.35446  0.70536  0.40827  1.0000
  H   H7        1.0  0.07563  0.13340  0.26483  1.0000
  H   H8        1.0  0.92436  0.86660  0.73517  1.0000
  H   H9        1.0  0.28378  0.09437  0.43574  1.0000
  H   H10       1.0  0.71597  0.65750  0.56340  1.0000
  H   H11       1.0  0.71619  0.90560  0.56424  1.0000
  H   H12       1.0  0.28404  0.34248  0.43660  1.0000
  C   C1        1.0  0.14291  0.34713  0.69322  1.0000
  C   C2        1.0  0.85708  0.65288  0.30678  1.0000
  C   C3        1.0  0.84497  0.22087  0.44311  1.0000
  C   C4        1.0  0.15503  0.77910  0.55690  1.0000
  C   C5        1.0  0.79806  0.29289  0.58744  1.0000
  C   C6        1.0  0.20195  0.70709  0.41256  1.0000
  C   C7        1.0  0.18546  0.20401  0.40711  1.0000
  C   C8        1.0  0.81453  0.79598  0.59289  1.0000
  C   C9        1.0  0.65259  0.15096  0.94891  1.0000
  C   C10       1.0  0.35062  0.20503  0.05227  1.0000
  C   C11       1.0  0.34742  0.84907  0.05111  1.0000
  C   C12       1.0  0.64940  0.79501  0.94773  1.0000
  N   N1        1.0  0.98515  0.37103  0.74221  1.0000
  N   N2        1.0  0.01485  0.62898  0.25779  1.0000
  N   N3        1.0  0.06377  0.25616  0.51198  1.0000
  N   N4        1.0  0.93622  0.74382  0.48802  1.0000
  N   N5        1.0  0.75434  0.25022  0.92179  1.0000
  N   N6        1.0  0.25049  0.33298  0.07990  1.0000
  N   N7        1.0  0.24567  0.74980  0.07820  1.0000
  N   N8        1.0  0.74952  0.66704  0.92011  1.0000
