data_image0
_chemical_formula_structural       Ba8H24C56N8O40
_chemical_formula_sum              "Ba8 H24 C56 N8 O40"
_cell_length_a       7.88535
_cell_length_b       9.60316
_cell_length_c       21.3986
_cell_angle_alpha    90
_cell_angle_beta     89.9999
_cell_angle_gamma    90

_space_group_name_H-M_alt    "P 1"
_space_group_IT_number       1

loop_
  _space_group_symop_operation_xyz
  'x, y, z'

loop_
  _atom_site_type_symbol
  _atom_site_label
  _atom_site_symmetry_multiplicity
  _atom_site_fract_x
  _atom_site_fract_y
  _atom_site_fract_z
  _atom_site_occupancy
  Ba  Ba1       1.0  0.10381  0.79876  0.45777  1.0000
  Ba  Ba2       1.0  0.39619  0.20124  0.95777  1.0000
  Ba  Ba3       1.0  0.89619  0.29876  0.04223  1.0000
  Ba  Ba4       1.0  0.60381  0.70124  0.54223  1.0000
  Ba  Ba5       1.0  0.89619  0.20124  0.54223  1.0000
  Ba  Ba6       1.0  0.60381  0.79876  0.04223  1.0000
  Ba  Ba7       1.0  0.10381  0.70124  0.95777  1.0000
  Ba  Ba8       1.0  0.39619  0.29876  0.45777  1.0000
  H   H1        1.0  0.29136  0.46846  0.69016  1.0000
  H   H2        1.0  0.20864  0.53154  0.19016  1.0000
  H   H3        1.0  0.70864  0.96847  0.80984  1.0000
  H   H4        1.0  0.79136  0.03154  0.30984  1.0000
  H   H5        1.0  0.70864  0.53153  0.30984  1.0000
  H   H6        1.0  0.79136  0.46846  0.80984  1.0000
  H   H7        1.0  0.29136  0.03154  0.19016  1.0000
  H   H8        1.0  0.20864  0.96846  0.69016  1.0000
  H   H9        1.0  0.19553  0.61805  0.78074  1.0000
  H   H10       1.0  0.30446  0.38195  0.28074  1.0000
  H   H11       1.0  0.80446  0.11805  0.71926  1.0000
  H   H12       1.0  0.69554  0.88195  0.21926  1.0000
  H   H13       1.0  0.80446  0.38195  0.21926  1.0000
  H   H14       1.0  0.69554  0.61805  0.71926  1.0000
  H   H15       1.0  0.19554  0.88195  0.28074  1.0000
  H   H16       1.0  0.30446  0.11805  0.78074  1.0000
  H   H17       1.0  0.00191  0.81728  0.75960  1.0000
  H   H18       1.0  0.49809  0.18272  0.25960  1.0000
  H   H19       1.0  0.99809  0.31728  0.74040  1.0000
  H   H20       1.0  0.50192  0.68272  0.24040  1.0000
  H   H21       1.0  0.99809  0.18272  0.24040  1.0000
  H   H22       1.0  0.50192  0.81728  0.74040  1.0000
  H   H23       1.0  0.00191  0.68272  0.25960  1.0000
  H   H24       1.0  0.49809  0.31728  0.75960  1.0000
  C   C1        1.0  0.20231  0.49515  0.56784  1.0000
  C   C2        1.0  0.29769  0.50485  0.06784  1.0000
  C   C3        1.0  0.79769  0.99515  0.93216  1.0000
  C   C4        1.0  0.70231  0.00485  0.43216  1.0000
  C   C5        1.0  0.79769  0.50485  0.43216  1.0000
  C   C6        1.0  0.70231  0.49515  0.93216  1.0000
  C   C7        1.0  0.20231  0.00485  0.06784  1.0000
  C   C8        1.0  0.29769  0.99515  0.56784  1.0000
  C   C9        1.0  0.13923  0.57637  0.62409  1.0000
  C   C10       1.0  0.36077  0.42363  0.12409  1.0000
  C   C11       1.0  0.86077  0.07637  0.87591  1.0000
  C   C12       1.0  0.63923  0.92363  0.37591  1.0000
  C   C13       1.0  0.86078  0.42363  0.37591  1.0000
  C   C14       1.0  0.63923  0.57637  0.87591  1.0000
  C   C15       1.0  0.13922  0.92363  0.12409  1.0000
  C   C16       1.0  0.36077  0.07637  0.62409  1.0000
  C   C17       1.0  0.20053  0.55233  0.68396  1.0000
  C   C18       1.0  0.29948  0.44767  0.18396  1.0000
  C   C19       1.0  0.79948  0.05234  0.81604  1.0000
  C   C20       1.0  0.70052  0.94767  0.31604  1.0000
  C   C21       1.0  0.79948  0.44766  0.31604  1.0000
  C   C22       1.0  0.70052  0.55233  0.81604  1.0000
  C   C23       1.0  0.20052  0.94767  0.18396  1.0000
  C   C24       1.0  0.29947  0.05233  0.68396  1.0000
  C   C25       1.0  0.14993  0.63667  0.73354  1.0000
  C   C26       1.0  0.35008  0.36333  0.23354  1.0000
  C   C27       1.0  0.85007  0.13667  0.76646  1.0000
  C   C28       1.0  0.64993  0.86333  0.26646  1.0000
  C   C29       1.0  0.85008  0.36333  0.26646  1.0000
  C   C30       1.0  0.64993  0.63667  0.76646  1.0000
  C   C31       1.0  0.14993  0.86333  0.23354  1.0000
  C   C32       1.0  0.35007  0.13667  0.73354  1.0000
  C   C33       1.0  0.03964  0.74716  0.72206  1.0000
  C   C34       1.0  0.46036  0.25284  0.22206  1.0000
  C   C35       1.0  0.96036  0.24716  0.77794  1.0000
  C   C36       1.0  0.53964  0.75284  0.27794  1.0000
  C   C37       1.0  0.96036  0.25284  0.27794  1.0000
  C   C38       1.0  0.53964  0.74716  0.77794  1.0000
  C   C39       1.0  0.03964  0.75284  0.22206  1.0000
  C   C40       1.0  0.46036  0.24716  0.72206  1.0000
  C   C41       1.0  0.85697  0.88445  0.64299  1.0000
  C   C42       1.0  0.64302  0.11555  0.14299  1.0000
  C   C43       1.0  0.14303  0.38445  0.85701  1.0000
  C   C44       1.0  0.35697  0.61555  0.35701  1.0000
  C   C45       1.0  0.14303  0.11555  0.35701  1.0000
  C   C46       1.0  0.35697  0.88445  0.85701  1.0000
  C   C47       1.0  0.85697  0.61555  0.14299  1.0000
  C   C48       1.0  0.64302  0.38445  0.64299  1.0000
  C   C49       1.0  0.97671  0.76782  0.66220  1.0000
  C   C50       1.0  0.52329  0.23218  0.16220  1.0000
  C   C51       1.0  0.02329  0.26782  0.83780  1.0000
  C   C52       1.0  0.47671  0.73218  0.33780  1.0000
  C   C53       1.0  0.02329  0.23218  0.33780  1.0000
  C   C54       1.0  0.47671  0.76782  0.83780  1.0000
  C   C55       1.0  0.97671  0.73218  0.16220  1.0000
  C   C56       1.0  0.52329  0.26782  0.66220  1.0000
  N   N1        1.0  0.02320  0.67961  0.61518  1.0000
  N   N2        1.0  0.47680  0.32039  0.11518  1.0000
  N   N3        1.0  0.97680  0.17961  0.88482  1.0000
  N   N4        1.0  0.52320  0.82039  0.38482  1.0000
  N   N5        1.0  0.97680  0.32039  0.38482  1.0000
  N   N6        1.0  0.52320  0.67961  0.88482  1.0000
  N   N7        1.0  0.02320  0.82039  0.11518  1.0000
  N   N8        1.0  0.47680  0.17961  0.61518  1.0000
  O   O1        1.0  0.28060  0.56175  0.52506  1.0000
  O   O2        1.0  0.21940  0.43825  0.02506  1.0000
  O   O3        1.0  0.71940  0.06175  0.97494  1.0000
  O   O4        1.0  0.78060  0.93825  0.47494  1.0000
  O   O5        1.0  0.71940  0.43825  0.47494  1.0000
  O   O6        1.0  0.78060  0.56175  0.97494  1.0000
  O   O7        1.0  0.28060  0.93825  0.02506  1.0000
  O   O8        1.0  0.21940  0.06175  0.52506  1.0000
  O   O9        1.0  0.18095  0.36495  0.56873  1.0000
  O   O10       1.0  0.31905  0.63505  0.06873  1.0000
  O   O11       1.0  0.81905  0.86495  0.93127  1.0000
  O   O12       1.0  0.68096  0.13505  0.43127  1.0000
  O   O13       1.0  0.81905  0.63505  0.43127  1.0000
  O   O14       1.0  0.68095  0.36495  0.93127  1.0000
  O   O15       1.0  0.18095  0.13505  0.06873  1.0000
  O   O16       1.0  0.31905  0.86495  0.56873  1.0000
  O   O17       1.0  0.70053  0.85636  0.64171  1.0000
  O   O18       1.0  0.79947  0.14364  0.14171  1.0000
  O   O19       1.0  0.29947  0.35637  0.85829  1.0000
  O   O20       1.0  0.20053  0.64364  0.35829  1.0000
  O   O21       1.0  0.29947  0.14364  0.35829  1.0000
  O   O22       1.0  0.20053  0.85636  0.85829  1.0000
  O   O23       1.0  0.70053  0.64364  0.14171  1.0000
  O   O24       1.0  0.79947  0.35637  0.64171  1.0000
  O   O25       1.0  0.92763  0.99904  0.63029  1.0000
  O   O26       1.0  0.57237  0.00096  0.13028  1.0000
  O   O27       1.0  0.07237  0.49904  0.86972  1.0000
  O   O28       1.0  0.42763  0.50096  0.36971  1.0000
  O   O29       1.0  0.07237  0.00096  0.36971  1.0000
  O   O30       1.0  0.42763  0.99904  0.86971  1.0000
  O   O31       1.0  0.92763  0.50096  0.13029  1.0000
  O   O32       1.0  0.57237  0.49904  0.63029  1.0000
  O   O33       1.0  0.95130  0.69527  0.55958  1.0000
  O   O34       1.0  0.54871  0.30473  0.05958  1.0000
  O   O35       1.0  0.04871  0.19527  0.94042  1.0000
  O   O36       1.0  0.45130  0.80473  0.44042  1.0000
  O   O37       1.0  0.04871  0.30473  0.44042  1.0000
  O   O38       1.0  0.45129  0.69527  0.94042  1.0000
  O   O39       1.0  0.95129  0.80473  0.05958  1.0000
  O   O40       1.0  0.54870  0.19527  0.55958  1.0000
