data_image0
_chemical_formula_structural       Zn2H24C34N4O8
_chemical_formula_sum              "Zn2 H24 C34 N4 O8"
_cell_length_a       9.18052
_cell_length_b       9.14733
_cell_length_c       10.4371
_cell_angle_alpha    79.564
_cell_angle_beta     88.4057
_cell_angle_gamma    62.4571

_space_group_name_H-M_alt    "P 1"
_space_group_IT_number       1

loop_
  _space_group_symop_operation_xyz
  'x, y, z'

loop_
  _atom_site_type_symbol
  _atom_site_label
  _atom_site_symmetry_multiplicity
  _atom_site_fract_x
  _atom_site_fract_y
  _atom_site_fract_z
  _atom_site_occupancy
  Zn  Zn1       1.0  0.90970  0.09875  0.83840  1.0000
  Zn  Zn2       1.0  0.09030  0.90125  0.16160  1.0000
  H   H1        1.0  0.86102  0.86076  0.45383  1.0000
  H   H2        1.0  0.13898  0.13925  0.54617  1.0000
  H   H3        1.0  0.49103  0.92582  0.92210  1.0000
  H   H4        1.0  0.50897  0.07419  0.07790  1.0000
  H   H5        1.0  0.74612  0.82961  0.80120  1.0000
  H   H6        1.0  0.25388  0.17039  0.19880  1.0000
  H   H7        1.0  0.80860  0.61145  0.66587  1.0000
  H   H8        1.0  0.19141  0.38854  0.33414  1.0000
  H   H9        1.0  0.62122  0.48686  0.65720  1.0000
  H   H10       1.0  0.37878  0.51314  0.34280  1.0000
  H   H11       1.0  0.33817  0.58662  0.56329  1.0000
  H   H12       1.0  0.66183  0.41337  0.43671  1.0000
  H   H13       1.0  0.16899  0.44096  0.54966  1.0000
  H   H14       1.0  0.83101  0.55904  0.45034  1.0000
  H   H15       1.0  0.13798  0.37543  0.96563  1.0000
  H   H16       1.0  0.86202  0.62457  0.03437  1.0000
  H   H17       1.0  0.30715  0.51901  0.98097  1.0000
  H   H18       1.0  0.69285  0.48099  0.01903  1.0000
  H   H19       1.0  0.03602  0.84779  0.64427  1.0000
  H   H20       1.0  0.96398  0.15221  0.35573  1.0000
  H   H21       1.0  0.56147  0.10008  0.44943  1.0000
  H   H22       1.0  0.43853  0.89993  0.55057  1.0000
  H   H23       1.0  0.56030  0.24534  0.66227  1.0000
  H   H24       1.0  0.43970  0.75466  0.33773  1.0000
  C   C1        1.0  0.52022  0.83027  0.86288  1.0000
  C   C2        1.0  0.47978  0.16973  0.13712  1.0000
  C   C3        1.0  0.66244  0.77691  0.79447  1.0000
  C   C4        1.0  0.33756  0.22308  0.20553  1.0000
  C   C5        1.0  0.69731  0.65442  0.71929  1.0000
  C   C6        1.0  0.30269  0.34557  0.28071  1.0000
  C   C7        1.0  0.59065  0.58572  0.71346  1.0000
  C   C8        1.0  0.40935  0.41428  0.28654  1.0000
  C   C9        1.0  0.44539  0.63926  0.78044  1.0000
  C   C10       1.0  0.55461  0.36074  0.21956  1.0000
  C   C11       1.0  0.41080  0.76433  0.85544  1.0000
  C   C12       1.0  0.58920  0.23567  0.14456  1.0000
  C   C13       1.0  0.33784  0.56003  0.77322  1.0000
  C   C14       1.0  0.66216  0.43997  0.22678  1.0000
  C   C15       1.0  0.29733  0.53693  0.65197  1.0000
  C   C16       1.0  0.70267  0.46307  0.34803  1.0000
  C   C17       1.0  0.20244  0.45595  0.64391  1.0000
  C   C18       1.0  0.79756  0.54405  0.35609  1.0000
  C   C19       1.0  0.14632  0.39527  0.75723  1.0000
  C   C20       1.0  0.85368  0.60473  0.24277  1.0000
  C   C21       1.0  0.18306  0.42140  0.87802  1.0000
  C   C22       1.0  0.81694  0.57860  0.12198  1.0000
  C   C23       1.0  0.27770  0.50239  0.88593  1.0000
  C   C24       1.0  0.72230  0.49762  0.11407  1.0000
  C   C25       1.0  0.05139  0.30118  0.74832  1.0000
  C   C26       1.0  0.94861  0.69882  0.25168  1.0000
  C   C27       1.0  0.25475  0.83916  0.92344  1.0000
  C   C28       1.0  0.74525  0.16084  0.07656  1.0000
  C   C29       1.0  0.90748  0.93747  0.62055  1.0000
  C   C30       1.0  0.09252  0.06253  0.37945  1.0000
  C   C31       1.0  0.65830  0.07057  0.52158  1.0000
  C   C32       1.0  0.34170  0.92944  0.47842  1.0000
  C   C33       1.0  0.65988  0.14311  0.62574  1.0000
  C   C34       1.0  0.34012  0.85689  0.37426  1.0000
  N   N1        1.0  0.81662  0.05898  0.68638  1.0000
  N   N2        1.0  0.18338  0.94102  0.31362  1.0000
  N   N3        1.0  0.81495  0.94165  0.52068  1.0000
  N   N4        1.0  0.18505  0.05835  0.47932  1.0000
  O   O1        1.0  0.02655  0.27182  0.63950  1.0000
  O   O2        1.0  0.97345  0.72817  0.36050  1.0000
  O   O3        1.0  0.99803  0.25392  0.85567  1.0000
  O   O4        1.0  0.00197  0.74608  0.14433  1.0000
  O   O5        1.0  0.12024  0.88247  0.86016  1.0000
  O   O6        1.0  0.87976  0.11753  0.13984  1.0000
  O   O7        1.0  0.26858  0.85854  0.03979  1.0000
  O   O8        1.0  0.73142  0.14146  0.96021  1.0000
