data_image0
_chemical_formula_structural       Ba2H6C14N2O10
_chemical_formula_sum              "Ba2 H6 C14 N2 O10"
_cell_length_a       4.40015
_cell_length_b       9.73462
_cell_length_c       10.4429
_cell_angle_alpha    90.3214
_cell_angle_beta     103.958
_cell_angle_gamma    99.8065

_space_group_name_H-M_alt    "P 1"
_space_group_IT_number       1

loop_
  _space_group_symop_operation_xyz
  'x, y, z'

loop_
  _atom_site_type_symbol
  _atom_site_label
  _atom_site_symmetry_multiplicity
  _atom_site_fract_x
  _atom_site_fract_y
  _atom_site_fract_z
  _atom_site_occupancy
  Ba  Ba1       1.0  0.04839  0.25580  0.07573  1.0000
  Ba  Ba2       1.0  0.95156  0.74418  0.92430  1.0000
  H   H1        1.0  0.69213  0.98939  0.45944  1.0000
  H   H2        1.0  0.30777  0.01059  0.54055  1.0000
  H   H3        1.0  0.87188  0.78884  0.59161  1.0000
  H   H4        1.0  0.12809  0.21118  0.40839  1.0000
  H   H5        1.0  0.87191  0.56729  0.46646  1.0000
  H   H6        1.0  0.12810  0.43270  0.53355  1.0000
  C   C1        1.0  0.46348  0.99253  0.19561  1.0000
  C   C2        1.0  0.53647  0.00746  0.80439  1.0000
  C   C3        1.0  0.60373  0.87900  0.27488  1.0000
  C   C4        1.0  0.39626  0.12101  0.72511  1.0000
  C   C5        1.0  0.69698  0.89054  0.41183  1.0000
  C   C6        1.0  0.30294  0.10945  0.58816  1.0000
  C   C7        1.0  0.79523  0.77957  0.48430  1.0000
  C   C8        1.0  0.20469  0.22042  0.51569  1.0000
  C   C9        1.0  0.80211  0.65803  0.41520  1.0000
  C   C10       1.0  0.19785  0.34195  0.58480  1.0000
  C   C11       1.0  0.77319  0.52696  0.20064  1.0000
  C   C12       1.0  0.22698  0.47306  0.79937  1.0000
  C   C13       1.0  0.72536  0.65009  0.27795  1.0000
  C   C14       1.0  0.27474  0.34992  0.72204  1.0000
  N   N1        1.0  0.62355  0.75999  0.20963  1.0000
  N   N2        1.0  0.37649  0.24002  0.79038  1.0000
  O   O1        1.0  0.18048  0.96031  0.12708  1.0000
  O   O2        1.0  0.81949  0.03966  0.87292  1.0000
  O   O3        1.0  0.63276  0.11325  0.21143  1.0000
  O   O4        1.0  0.36710  0.88676  0.78854  1.0000
  O   O5        1.0  0.62780  0.40792  0.21935  1.0000
  O   O6        1.0  0.37237  0.59211  0.78068  1.0000
  O   O7        1.0  0.97025  0.55184  0.12969  1.0000
  O   O8        1.0  0.02992  0.44816  0.87030  1.0000
  O   O9        1.0  0.54470  0.75136  0.07983  1.0000
  O   O10       1.0  0.45525  0.24863  0.92018  1.0000
