data_image0
_chemical_formula_structural       Zn5P2H16C16O20
_chemical_formula_sum              "Zn5 P2 H16 C16 O20"
_cell_length_a       7.26546
_cell_length_b       9.58656
_cell_length_c       10.9619
_cell_angle_alpha    67.0454
_cell_angle_beta     75.7528
_cell_angle_gamma    73.4021

_space_group_name_H-M_alt    "P 1"
_space_group_IT_number       1

loop_
  _space_group_symop_operation_xyz
  'x, y, z'

loop_
  _atom_site_type_symbol
  _atom_site_label
  _atom_site_symmetry_multiplicity
  _atom_site_fract_x
  _atom_site_fract_y
  _atom_site_fract_z
  _atom_site_occupancy
  Zn  Zn1       1.0  0.43696  0.65552  0.70685  1.0000
  Zn  Zn2       1.0  0.56304  0.34448  0.29315  1.0000
  Zn  Zn3       1.0  0.07350  0.72587  0.96518  1.0000
  Zn  Zn4       1.0  0.92650  0.27413  0.03482  1.0000
  Zn  Zn5       1.0  0.50000  0.50000  1.00000  1.0000
  P   P1        1.0  0.86255  0.62178  0.80344  1.0000
  P   P2        1.0  0.13744  0.37823  0.19656  1.0000
  H   H1        1.0  0.72190  0.90493  0.58612  1.0000
  H   H2        1.0  0.27810  0.09507  0.41388  1.0000
  H   H3        1.0  0.18586  0.49652  0.62857  1.0000
  H   H4        1.0  0.81413  0.50347  0.37143  1.0000
  H   H5        1.0  0.14665  0.86109  0.24570  1.0000
  H   H6        1.0  0.85334  0.13890  0.75430  1.0000
  H   H7        1.0  0.20763  0.49839  0.88503  1.0000
  H   H8        1.0  0.79237  0.50161  0.11497  1.0000
  H   H9        1.0  0.41829  0.80842  0.96296  1.0000
  H   H10       1.0  0.58172  0.19158  0.03704  1.0000
  H   H11       1.0  0.38586  0.71177  0.12126  1.0000
  H   H12       1.0  0.61414  0.28823  0.87874  1.0000
  H   H13       1.0  0.82231  0.77452  0.15367  1.0000
  H   H14       1.0  0.17770  0.22547  0.84633  1.0000
  H   H15       1.0  0.88734  0.93039  0.11966  1.0000
  H   H16       1.0  0.11266  0.06961  0.88034  1.0000
  C   C1        1.0  0.85108  0.83683  0.54424  1.0000
  C   C2        1.0  0.14892  0.16317  0.45576  1.0000
  C   C3        1.0  0.94803  0.69435  0.62536  1.0000
  C   C4        1.0  0.05196  0.30565  0.37464  1.0000
  C   C5        1.0  0.11242  0.60973  0.56766  1.0000
  C   C6        1.0  0.88757  0.39027  0.43233  1.0000
  C   C7        1.0  0.91807  0.89384  0.40652  1.0000
  C   C8        1.0  0.08193  0.10616  0.59348  1.0000
  C   C9        1.0  0.18587  0.67084  0.43144  1.0000
  C   C10       1.0  0.81412  0.32915  0.56856  1.0000
  C   C11       1.0  0.36248  0.58438  0.36803  1.0000
  C   C12       1.0  0.63752  0.41562  0.63198  1.0000
  C   C13       1.0  0.08879  0.81292  0.35131  1.0000
  C   C14       1.0  0.91121  0.18708  0.64869  1.0000
  C   C15       1.0  0.81077  0.04201  0.31876  1.0000
  C   C16       1.0  0.18923  0.95799  0.68125  1.0000
  O   O1        1.0  0.28266  0.57024  0.88438  1.0000
  O   O2        1.0  0.71735  0.42976  0.11562  1.0000
  O   O3        1.0  0.64625  0.61461  0.81739  1.0000
  O   O4        1.0  0.35375  0.38539  0.18261  1.0000
  O   O5        1.0  0.35508  0.72727  0.03040  1.0000
  O   O6        1.0  0.64493  0.27273  0.96960  1.0000
  O   O7        1.0  0.87434  0.85732  0.07924  1.0000
  O   O8        1.0  0.12567  0.14268  0.92076  1.0000
  O   O9        1.0  0.40752  0.43632  0.42722  1.0000
  O   O10       1.0  0.59248  0.56367  0.57278  1.0000
  O   O11       1.0  0.45652  0.65607  0.25829  1.0000
  O   O12       1.0  0.54347  0.34392  0.74171  1.0000
  O   O13       1.0  0.69043  0.13008  0.37840  1.0000
  O   O14       1.0  0.30957  0.86992  0.62160  1.0000
  O   O15       1.0  0.84286  0.07118  0.19192  1.0000
  O   O16       1.0  0.15714  0.92882  0.80808  1.0000
  O   O17       1.0  0.86781  0.73748  0.86596  1.0000
  O   O18       1.0  0.13219  0.26253  0.13403  1.0000
  O   O19       1.0  0.98931  0.45860  0.85936  1.0000
  O   O20       1.0  0.01068  0.54141  0.14064  1.0000
