data_image0
_chemical_formula_structural       Ag4H20C24N4Cl4
_chemical_formula_sum              "Ag4 H20 C24 N4 Cl4"
_cell_length_a       3.84772
_cell_length_b       10.6989
_cell_length_c       15.5591
_cell_angle_alpha    90.0001
_cell_angle_beta     90.0005
_cell_angle_gamma    95.2587

_space_group_name_H-M_alt    "P 1"
_space_group_IT_number       1

loop_
  _space_group_symop_operation_xyz
  'x, y, z'

loop_
  _atom_site_type_symbol
  _atom_site_label
  _atom_site_symmetry_multiplicity
  _atom_site_fract_x
  _atom_site_fract_y
  _atom_site_fract_z
  _atom_site_occupancy
  Ag  Ag1       1.0  0.77716  0.07376  0.43891  1.0000
  Ag  Ag2       1.0  0.22283  0.42624  0.93891  1.0000
  Ag  Ag3       1.0  0.22284  0.92624  0.56109  1.0000
  Ag  Ag4       1.0  0.77716  0.57376  0.06109  1.0000
  H   H1        1.0  0.12885  0.20664  0.27648  1.0000
  H   H2        1.0  0.87116  0.29337  0.77648  1.0000
  H   H3        1.0  0.87117  0.79338  0.72352  1.0000
  H   H4        1.0  0.12883  0.70663  0.22352  1.0000
  H   H5        1.0  0.18983  0.17586  0.11965  1.0000
  H   H6        1.0  0.81014  0.32413  0.61964  1.0000
  H   H7        1.0  0.81014  0.82412  0.88036  1.0000
  H   H8        1.0  0.18988  0.67587  0.38036  1.0000
  H   H9        1.0  0.58275  0.81793  0.14898  1.0000
  H   H10       1.0  0.41719  0.68206  0.64898  1.0000
  H   H11       1.0  0.41719  0.18206  0.85102  1.0000
  H   H12       1.0  0.58284  0.31793  0.35102  1.0000
  H   H13       1.0  0.55347  0.86370  0.30756  1.0000
  H   H14       1.0  0.44654  0.63631  0.80756  1.0000
  H   H15       1.0  0.44654  0.13631  0.69244  1.0000
  H   H16       1.0  0.55347  0.36369  0.19244  1.0000
  H   H17       1.0  0.76425  0.87575  0.00972  1.0000
  H   H18       1.0  0.23572  0.62424  0.50972  1.0000
  H   H19       1.0  0.23569  0.12424  0.99029  1.0000
  H   H20       1.0  0.76431  0.37576  0.49028  1.0000
  C   C1        1.0  0.01201  0.12132  0.24578  1.0000
  C   C2        1.0  0.98797  0.37867  0.74578  1.0000
  C   C3        1.0  0.98798  0.87867  0.75422  1.0000
  C   C4        1.0  0.01204  0.62133  0.25422  1.0000
  C   C5        1.0  0.04502  0.10360  0.15808  1.0000
  C   C6        1.0  0.95497  0.39639  0.65810  1.0000
  C   C7        1.0  0.95497  0.89640  0.84190  1.0000
  C   C8        1.0  0.04506  0.60360  0.34190  1.0000
  C   C9        1.0  0.88997  0.99244  0.12030  1.0000
  C   C10       1.0  0.11004  0.50758  0.62030  1.0000
  C   C11       1.0  0.11004  0.00758  0.87970  1.0000
  C   C12       1.0  0.88999  0.49242  0.37970  1.0000
  C   C13       1.0  0.70836  0.90514  0.17558  1.0000
  C   C14       1.0  0.29163  0.59487  0.67557  1.0000
  C   C15       1.0  0.29160  0.09488  0.82443  1.0000
  C   C16       1.0  0.70842  0.40512  0.32443  1.0000
  C   C17       1.0  0.68891  0.93011  0.26293  1.0000
  C   C18       1.0  0.31107  0.56989  0.76292  1.0000
  C   C19       1.0  0.31105  0.06988  0.73708  1.0000
  C   C20       1.0  0.68895  0.43011  0.23707  1.0000
  C   C21       1.0  0.90951  0.96361  0.02937  1.0000
  C   C22       1.0  0.09048  0.53640  0.52936  1.0000
  C   C23       1.0  0.09045  0.03640  0.97064  1.0000
  C   C24       1.0  0.90956  0.46360  0.47063  1.0000
  N   N1        1.0  0.83735  0.03689  0.29840  1.0000
  N   N2        1.0  0.16262  0.46311  0.79839  1.0000
  N   N3        1.0  0.16260  0.96311  0.70161  1.0000
  N   N4        1.0  0.83740  0.53689  0.20161  1.0000
  Cl  Cl1       1.0  0.67619  0.81669  0.47951  1.0000
  Cl  Cl2       1.0  0.32379  0.68331  0.97952  1.0000
  Cl  Cl3       1.0  0.32382  0.18332  0.52048  1.0000
  Cl  Cl4       1.0  0.67617  0.31668  0.02049  1.0000
