data_image0
_chemical_formula_structural       Nd4H24C24N4O24
_chemical_formula_sum              "Nd4 H24 C24 N4 O24"
_cell_length_a       6.63455
_cell_length_b       7.02976
_cell_length_c       17.4399
_cell_angle_alpha    89.9999
_cell_angle_beta     90
_cell_angle_gamma    90

_space_group_name_H-M_alt    "P 1"
_space_group_IT_number       1

loop_
  _space_group_symop_operation_xyz
  'x, y, z'

loop_
  _atom_site_type_symbol
  _atom_site_label
  _atom_site_symmetry_multiplicity
  _atom_site_fract_x
  _atom_site_fract_y
  _atom_site_fract_z
  _atom_site_occupancy
  Nd  Nd1       1.0  0.55077  0.22083  0.82936  1.0000
  Nd  Nd2       1.0  0.94923  0.77917  0.32936  1.0000
  Nd  Nd3       1.0  0.44923  0.72083  0.67064  1.0000
  Nd  Nd4       1.0  0.05077  0.27917  0.17064  1.0000
  H   H1        1.0  0.97446  0.82360  0.82911  1.0000
  H   H2        1.0  0.52554  0.17640  0.32912  1.0000
  H   H3        1.0  0.02554  0.32360  0.67089  1.0000
  H   H4        1.0  0.47446  0.67640  0.17088  1.0000
  H   H5        1.0  0.11205  0.93287  0.90469  1.0000
  H   H6        1.0  0.38795  0.06713  0.40469  1.0000
  H   H7        1.0  0.88795  0.43287  0.59531  1.0000
  H   H8        1.0  0.61205  0.56713  0.09531  1.0000
  H   H9        1.0  0.57575  0.80150  0.96550  1.0000
  H   H10       1.0  0.92424  0.19850  0.46550  1.0000
  H   H11       1.0  0.42425  0.30150  0.53450  1.0000
  H   H12       1.0  0.07575  0.69850  0.03450  1.0000
  H   H13       1.0  0.78316  0.66569  0.93162  1.0000
  H   H14       1.0  0.71684  0.33431  0.43162  1.0000
  H   H15       1.0  0.21684  0.16569  0.56838  1.0000
  H   H16       1.0  0.28316  0.83431  0.06838  1.0000
  H   H17       1.0  0.97107  0.99811  0.01221  1.0000
  H   H18       1.0  0.52893  0.00189  0.51221  1.0000
  H   H19       1.0  0.02893  0.49811  0.48779  1.0000
  H   H20       1.0  0.47107  0.50189  0.98779  1.0000
  H   H21       1.0  0.70773  0.01478  0.02575  1.0000
  H   H22       1.0  0.79226  0.98523  0.52575  1.0000
  H   H23       1.0  0.29227  0.51478  0.47425  1.0000
  H   H24       1.0  0.20773  0.48523  0.97425  1.0000
  C   C1        1.0  0.98172  0.95006  0.86626  1.0000
  C   C2        1.0  0.51828  0.04994  0.36626  1.0000
  C   C3        1.0  0.01828  0.45006  0.63374  1.0000
  C   C4        1.0  0.48172  0.54994  0.13374  1.0000
  C   C5        1.0  0.02260  0.11381  0.81058  1.0000
  C   C6        1.0  0.47740  0.88619  0.31058  1.0000
  C   C7        1.0  0.97740  0.61381  0.68942  1.0000
  C   C8        1.0  0.52259  0.38619  0.18942  1.0000
  C   C9        1.0  0.68460  0.78737  0.91816  1.0000
  C   C10       1.0  0.81540  0.21263  0.41816  1.0000
  C   C11       1.0  0.31540  0.28737  0.58184  1.0000
  C   C12       1.0  0.18460  0.71263  0.08184  1.0000
  C   C13       1.0  0.56000  0.73763  0.84803  1.0000
  C   C14       1.0  0.94000  0.26237  0.34803  1.0000
  C   C15       1.0  0.44000  0.23762  0.65197  1.0000
  C   C16       1.0  0.06000  0.76237  0.15197  1.0000
  C   C17       1.0  0.83087  0.05226  0.98644  1.0000
  C   C18       1.0  0.66913  0.94774  0.48644  1.0000
  C   C19       1.0  0.16913  0.55226  0.51356  1.0000
  C   C20       1.0  0.33087  0.44774  0.01356  1.0000
  C   C21       1.0  0.84121  0.26813  0.98586  1.0000
  C   C22       1.0  0.65880  0.73187  0.48585  1.0000
  C   C23       1.0  0.15880  0.76813  0.51414  1.0000
  C   C24       1.0  0.34119  0.23187  0.01415  1.0000
  N   N1        1.0  0.79178  0.96972  0.91048  1.0000
  N   N2        1.0  0.70822  0.03027  0.41048  1.0000
  N   N3        1.0  0.20822  0.46972  0.58952  1.0000
  N   N4        1.0  0.29178  0.53027  0.08952  1.0000
  O   O1        1.0  0.87212  0.18363  0.77492  1.0000
  O   O2        1.0  0.62788  0.81638  0.27493  1.0000
  O   O3        1.0  0.12788  0.68362  0.72508  1.0000
  O   O4        1.0  0.37212  0.31637  0.22507  1.0000
  O   O5        1.0  0.20203  0.16641  0.79901  1.0000
  O   O6        1.0  0.29797  0.83360  0.29901  1.0000
  O   O7        1.0  0.79797  0.66641  0.70099  1.0000
  O   O8        1.0  0.70203  0.33359  0.20099  1.0000
  O   O9        1.0  0.51209  0.87292  0.80235  1.0000
  O   O10       1.0  0.98790  0.12708  0.30235  1.0000
  O   O11       1.0  0.48791  0.37292  0.69765  1.0000
  O   O12       1.0  0.01209  0.62707  0.19765  1.0000
  O   O13       1.0  0.50275  0.56841  0.83683  1.0000
  O   O14       1.0  0.99725  0.43158  0.33683  1.0000
  O   O15       1.0  0.49725  0.06841  0.66317  1.0000
  O   O16       1.0  0.00275  0.93158  0.16317  1.0000
  O   O17       1.0  0.78845  0.35596  0.92576  1.0000
  O   O18       1.0  0.71155  0.64405  0.42577  1.0000
  O   O19       1.0  0.21154  0.85595  0.57424  1.0000
  O   O20       1.0  0.28846  0.14405  0.07423  1.0000
  O   O21       1.0  0.89805  0.34896  0.04743  1.0000
  O   O22       1.0  0.60194  0.65103  0.54744  1.0000
  O   O23       1.0  0.10195  0.84896  0.45257  1.0000
  O   O24       1.0  0.39807  0.15103  0.95256  1.0000
