data_image0
_chemical_formula_structural       AgH8C12N2Cl
_chemical_formula_sum              "Ag1 H8 C12 N2 Cl1"
_cell_length_a       4.21712
_cell_length_b       8.02188
_cell_length_c       8.02194
_cell_angle_alpha    78.7023
_cell_angle_beta     77.4915
_cell_angle_gamma    77.4925

_space_group_name_H-M_alt    "P 1"
_space_group_IT_number       1

loop_
  _space_group_symop_operation_xyz
  'x, y, z'

loop_
  _atom_site_type_symbol
  _atom_site_label
  _atom_site_symmetry_multiplicity
  _atom_site_fract_x
  _atom_site_fract_y
  _atom_site_fract_z
  _atom_site_occupancy
  Ag  Ag1       1.0  0.99999  0.00871  0.99129  1.0000
  H   H1        1.0  0.28055  0.12771  0.29824  1.0000
  H   H2        1.0  0.71946  0.70174  0.87229  1.0000
  H   H3        1.0  0.40559  0.01342  0.59777  1.0000
  H   H4        1.0  0.59438  0.40223  0.98660  1.0000
  H   H5        1.0  0.30275  0.71691  0.73455  1.0000
  H   H6        1.0  0.69725  0.26544  0.28309  1.0000
  H   H7        1.0  0.12315  0.44426  0.71309  1.0000
  H   H8        1.0  0.87685  0.28690  0.55574  1.0000
  C   C1        1.0  0.23884  0.99940  0.36334  1.0000
  C   C2        1.0  0.76116  0.63665  0.00060  1.0000
  C   C3        1.0  0.31085  0.93506  0.52953  1.0000
  C   C4        1.0  0.68914  0.47046  0.06495  1.0000
  C   C5        1.0  0.25404  0.77134  0.60502  1.0000
  C   C6        1.0  0.74596  0.39498  0.22866  1.0000
  C   C7        1.0  0.12950  0.67301  0.51461  1.0000
  C   C8        1.0  0.87051  0.48539  0.32699  1.0000
  C   C9        1.0  0.06372  0.75001  0.34700  1.0000
  C   C10       1.0  0.93629  0.65300  0.24999  1.0000
  C   C11       1.0  0.06452  0.50318  0.58622  1.0000
  C   C12       1.0  0.93549  0.41378  0.49681  1.0000
  N   N1        1.0  0.11507  0.91180  0.27579  1.0000
  N   N2        1.0  0.88495  0.72420  0.08819  1.0000
  Cl  Cl1       1.0  0.49999  0.14748  0.85252  1.0000
