data_image0
_chemical_formula_structural       V2P2H18C24N4O10
_chemical_formula_sum              "V2 P2 H18 C24 N4 O10"
_cell_length_a       6.34936
_cell_length_b       9.79872
_cell_length_c       9.93301
_cell_angle_alpha    102.54
_cell_angle_beta     90.0003
_cell_angle_gamma    89.9992

_space_group_name_H-M_alt    "P 1"
_space_group_IT_number       1

loop_
  _space_group_symop_operation_xyz
  'x, y, z'

loop_
  _atom_site_type_symbol
  _atom_site_label
  _atom_site_symmetry_multiplicity
  _atom_site_fract_x
  _atom_site_fract_y
  _atom_site_fract_z
  _atom_site_occupancy
  V   V1        1.0  0.75000  0.20352  0.06870  1.0000
  V   V2        1.0  0.25000  0.79648  0.93130  1.0000
  P   P1        1.0  0.25000  0.11726  0.09395  1.0000
  P   P2        1.0  0.75000  0.88274  0.90605  1.0000
  H   H1        1.0  0.25001  0.93999  0.18984  1.0000
  H   H2        1.0  0.75000  0.06001  0.81016  1.0000
  H   H3        1.0  0.75000  0.49248  0.99185  1.0000
  H   H4        1.0  0.25002  0.50753  0.00816  1.0000
  H   H5        1.0  0.75001  0.74257  0.11486  1.0000
  H   H6        1.0  0.25001  0.25743  0.88514  1.0000
  H   H7        1.0  0.75000  0.80181  0.37555  1.0000
  H   H8        1.0  0.25000  0.19819  0.62446  1.0000
  H   H9        1.0  0.75000  0.71534  0.59705  1.0000
  H   H10       1.0  0.24999  0.28466  0.40295  1.0000
  H   H11       1.0  0.75000  0.51886  0.71472  1.0000
  H   H12       1.0  0.24999  0.48114  0.28527  1.0000
  H   H13       1.0  0.74999  0.25358  0.69766  1.0000
  H   H14       1.0  0.24999  0.74642  0.30234  1.0000
  H   H15       1.0  0.75000  0.01426  0.54592  1.0000
  H   H16       1.0  0.24999  0.98574  0.45408  1.0000
  H   H17       1.0  0.75000  0.99023  0.28555  1.0000
  H   H18       1.0  0.25000  0.00977  0.71445  1.0000
  C   C1        1.0  0.75000  0.52166  0.10409  1.0000
  C   C2        1.0  0.25002  0.47834  0.89592  1.0000
  C   C3        1.0  0.75000  0.66196  0.17463  1.0000
  C   C4        1.0  0.25001  0.33805  0.82537  1.0000
  C   C5        1.0  0.75000  0.69389  0.31745  1.0000
  C   C6        1.0  0.25000  0.30611  0.68255  1.0000
  C   C7        1.0  0.75000  0.58491  0.38962  1.0000
  C   C8        1.0  0.24999  0.41509  0.61037  1.0000
  C   C9        1.0  0.74999  0.60791  0.53709  1.0000
  C   C10       1.0  0.24999  0.39209  0.46290  1.0000
  C   C11       1.0  0.74999  0.49861  0.60231  1.0000
  C   C12       1.0  0.25000  0.50139  0.39768  1.0000
  C   C13       1.0  0.74999  0.35703  0.52504  1.0000
  C   C14       1.0  0.25000  0.64297  0.47496  1.0000
  C   C15       1.0  0.74999  0.23925  0.58546  1.0000
  C   C16       1.0  0.24999  0.76075  0.41454  1.0000
  C   C17       1.0  0.75000  0.10641  0.50103  1.0000
  C   C18       1.0  0.25000  0.89359  0.49896  1.0000
  C   C19       1.0  0.75000  0.09183  0.35706  1.0000
  C   C20       1.0  0.25000  0.90817  0.64294  1.0000
  C   C21       1.0  0.75000  0.33156  0.37896  1.0000
  C   C22       1.0  0.25000  0.66843  0.62104  1.0000
  C   C23       1.0  0.75000  0.44599  0.31057  1.0000
  C   C24       1.0  0.25000  0.55400  0.68943  1.0000
  N   N1        1.0  0.75000  0.41574  0.16983  1.0000
  N   N2        1.0  0.25001  0.58426  0.83017  1.0000
  N   N3        1.0  0.75000  0.20132  0.29819  1.0000
  N   N4        1.0  0.25000  0.79867  0.70181  1.0000
  O   O1        1.0  0.75000  0.22608  0.91000  1.0000
  O   O2        1.0  0.25001  0.77393  0.09000  1.0000
  O   O3        1.0  0.25001  0.04401  0.22369  1.0000
  O   O4        1.0  0.75001  0.95599  0.77631  1.0000
  O   O5        1.0  0.44298  0.21253  0.10418  1.0000
  O   O6        1.0  0.05702  0.21253  0.10418  1.0000
  O   O7        1.0  0.55702  0.78747  0.89582  1.0000
  O   O8        1.0  0.94298  0.78747  0.89582  1.0000
  O   O9        1.0  0.25000  0.00070  0.96147  1.0000
  O   O10       1.0  0.75000  0.99930  0.03853  1.0000
