data_image0
_chemical_formula_structural       Cu4H20C20N8Cl4O12
_chemical_formula_sum              "Cu4 H20 C20 N8 Cl4 O12"
_cell_length_a       5.51786
_cell_length_b       10.9487
_cell_length_c       12.836
_cell_angle_alpha    90.0003
_cell_angle_beta     89.9995
_cell_angle_gamma    104.026

_space_group_name_H-M_alt    "P 1"
_space_group_IT_number       1

loop_
  _space_group_symop_operation_xyz
  'x, y, z'

loop_
  _atom_site_type_symbol
  _atom_site_label
  _atom_site_symmetry_multiplicity
  _atom_site_fract_x
  _atom_site_fract_y
  _atom_site_fract_z
  _atom_site_occupancy
  Cu  Cu1       1.0  0.93757  0.66145  0.77636  1.0000
  Cu  Cu2       1.0  0.56243  0.83855  0.27636  1.0000
  Cu  Cu3       1.0  0.06243  0.33855  0.22364  1.0000
  Cu  Cu4       1.0  0.43756  0.16145  0.72364  1.0000
  H   H1        1.0  0.41573  0.39321  0.59911  1.0000
  H   H2        1.0  0.08426  0.10678  0.09911  1.0000
  H   H3        1.0  0.58426  0.60679  0.40089  1.0000
  H   H4        1.0  0.91574  0.89322  0.90089  1.0000
  H   H5        1.0  0.18897  0.25784  0.89697  1.0000
  H   H6        1.0  0.31103  0.24216  0.39697  1.0000
  H   H7        1.0  0.81103  0.74216  0.10303  1.0000
  H   H8        1.0  0.68898  0.75784  0.60304  1.0000
  H   H9        1.0  0.94793  0.42626  0.91642  1.0000
  H   H10       1.0  0.55207  0.07375  0.41642  1.0000
  H   H11       1.0  0.05207  0.57374  0.08358  1.0000
  H   H12       1.0  0.44793  0.92625  0.58358  1.0000
  H   H13       1.0  0.25138  0.80502  0.92939  1.0000
  H   H14       1.0  0.24862  0.69498  0.42939  1.0000
  H   H15       1.0  0.74862  0.19498  0.07061  1.0000
  H   H16       1.0  0.75138  0.30502  0.57061  1.0000
  H   H17       1.0  0.38493  0.70054  0.88827  1.0000
  H   H18       1.0  0.11507  0.79946  0.38827  1.0000
  H   H19       1.0  0.61507  0.29946  0.11173  1.0000
  H   H20       1.0  0.88492  0.20054  0.61173  1.0000
  C   C1        1.0  0.19268  0.49624  0.68425  1.0000
  C   C2        1.0  0.30732  0.00376  0.18426  1.0000
  C   C3        1.0  0.80732  0.50377  0.31574  1.0000
  C   C4        1.0  0.69268  0.99624  0.81574  1.0000
  C   C5        1.0  0.31533  0.40047  0.67100  1.0000
  C   C6        1.0  0.18466  0.09952  0.17100  1.0000
  C   C7        1.0  0.68466  0.59953  0.32900  1.0000
  C   C8        1.0  0.81534  0.90048  0.82900  1.0000
  C   C9        1.0  0.18537  0.32506  0.83490  1.0000
  C   C10       1.0  0.31463  0.17495  0.33490  1.0000
  C   C11       1.0  0.81463  0.67494  0.16510  1.0000
  C   C12       1.0  0.68537  0.82506  0.66510  1.0000
  C   C13       1.0  0.05634  0.41922  0.84681  1.0000
  C   C14       1.0  0.44367  0.08078  0.34681  1.0000
  C   C15       1.0  0.94367  0.58078  0.15319  1.0000
  C   C16       1.0  0.55634  0.91922  0.65319  1.0000
  C   C17       1.0  0.18974  0.59553  0.60382  1.0000
  C   C18       1.0  0.31026  0.90447  0.10382  1.0000
  C   C19       1.0  0.81026  0.40447  0.39618  1.0000
  C   C20       1.0  0.68973  0.09553  0.89618  1.0000
  N   N1        1.0  0.06228  0.50400  0.77162  1.0000
  N   N2        1.0  0.43772  0.99600  0.27162  1.0000
  N   N3        1.0  0.93773  0.49600  0.22838  1.0000
  N   N4        1.0  0.56228  0.00400  0.72838  1.0000
  N   N5        1.0  0.30937  0.31492  0.74669  1.0000
  N   N6        1.0  0.19063  0.18508  0.24669  1.0000
  N   N7        1.0  0.69063  0.68508  0.25331  1.0000
  N   N8        1.0  0.80938  0.81492  0.75331  1.0000
  Cl  Cl1       1.0  0.66207  0.59339  0.90681  1.0000
  Cl  Cl2       1.0  0.83793  0.90661  0.40681  1.0000
  Cl  Cl3       1.0  0.33793  0.40661  0.09319  1.0000
  Cl  Cl4       1.0  0.16207  0.09339  0.59319  1.0000
  O   O1        1.0  0.29779  0.59222  0.51841  1.0000
  O   O2        1.0  0.20221  0.90778  0.01841  1.0000
  O   O3        1.0  0.70220  0.40778  0.48158  1.0000
  O   O4        1.0  0.79779  0.09222  0.98159  1.0000
  O   O5        1.0  0.07409  0.67942  0.63054  1.0000
  O   O6        1.0  0.42592  0.82058  0.13054  1.0000
  O   O7        1.0  0.92592  0.32058  0.36946  1.0000
  O   O8        1.0  0.57407  0.17942  0.86946  1.0000
  O   O9        1.0  0.27438  0.75465  0.86665  1.0000
  O   O10       1.0  0.22562  0.74535  0.36665  1.0000
  O   O11       1.0  0.72562  0.24535  0.13335  1.0000
  O   O12       1.0  0.77438  0.25465  0.63335  1.0000
