data_image0
_chemical_formula_structural       Cu4H20C20N8Cl4O12
_chemical_formula_sum              "Cu4 H20 C20 N8 Cl4 O12"
_cell_length_a       6.07795
_cell_length_b       9.72143
_cell_length_c       13.3784
_cell_angle_alpha    104.903
_cell_angle_beta     90.0007
_cell_angle_gamma    108.21

_space_group_name_H-M_alt    "P 1"
_space_group_IT_number       1

loop_
  _space_group_symop_operation_xyz
  'x, y, z'

loop_
  _atom_site_type_symbol
  _atom_site_label
  _atom_site_symmetry_multiplicity
  _atom_site_fract_x
  _atom_site_fract_y
  _atom_site_fract_z
  _atom_site_occupancy
  Cu  Cu1       1.0  0.05637  0.23311  0.64611  1.0000
  Cu  Cu2       1.0  0.82412  0.76665  0.85389  1.0000
  Cu  Cu3       1.0  0.94353  0.76698  0.35395  1.0000
  Cu  Cu4       1.0  0.17607  0.23345  0.14618  1.0000
  H   H1        1.0  0.48695  0.32810  0.34223  1.0000
  H   H2        1.0  0.16012  0.67260  0.15831  1.0000
  H   H3        1.0  0.51309  0.67252  0.65809  1.0000
  H   H4        1.0  0.84048  0.32797  0.84199  1.0000
  H   H5        1.0  0.76910  0.14378  0.26442  1.0000
  H   H6        1.0  0.62547  0.85583  0.23553  1.0000
  H   H7        1.0  0.23095  0.85599  0.73557  1.0000
  H   H8        1.0  0.37413  0.14382  0.76447  1.0000
  H   H9        1.0  0.71186  0.11213  0.44628  1.0000
  H   H10       1.0  0.59996  0.88731  0.05341  1.0000
  H   H11       1.0  0.28813  0.88777  0.55360  1.0000
  H   H12       1.0  0.39992  0.11246  0.94643  1.0000
  H   H13       1.0  0.90010  0.45501  0.62990  1.0000
  H   H14       1.0  0.44578  0.54479  0.86996  1.0000
  H   H15       1.0  0.09973  0.54497  0.37003  1.0000
  H   H16       1.0  0.55435  0.45514  0.12997  1.0000
  H   H17       1.0  0.05401  0.53625  0.73982  1.0000
  H   H18       1.0  0.51789  0.46356  0.75995  1.0000
  H   H19       1.0  0.94576  0.46373  0.26012  1.0000
  H   H20       1.0  0.48235  0.53640  0.24001  1.0000
  C   C1        1.0  0.27832  0.27465  0.46690  1.0000
  C   C2        1.0  0.00464  0.72531  0.03320  1.0000
  C   C3        1.0  0.72151  0.72533  0.53312  1.0000
  C   C4        1.0  0.99547  0.27461  0.96683  1.0000
  C   C5        1.0  0.31294  0.28159  0.36509  1.0000
  C   C6        1.0  0.03256  0.71880  0.13509  1.0000
  C   C7        1.0  0.68695  0.71867  0.63498  1.0000
  C   C8        1.0  0.96778  0.28143  0.86499  1.0000
  C   C9        1.0  0.91636  0.17679  0.32211  1.0000
  C   C10       1.0  0.73974  0.82300  0.17779  1.0000
  C   C11       1.0  0.08382  0.82314  0.67785  1.0000
  C   C12       1.0  0.25996  0.17686  0.82217  1.0000
  C   C13       1.0  0.88318  0.16325  0.42265  1.0000
  C   C14       1.0  0.72025  0.83643  0.07726  1.0000
  C   C15       1.0  0.11687  0.83672  0.57735  1.0000
  C   C16       1.0  0.27956  0.16343  0.92274  1.0000
  C   C17       1.0  0.47012  0.33836  0.55331  1.0000
  C   C18       1.0  0.13258  0.66151  0.94680  1.0000
  C   C19       1.0  0.52986  0.66163  0.44667  1.0000
  C   C20       1.0  0.86741  0.33841  0.05319  1.0000
  N   N1        1.0  0.06449  0.21402  0.49409  1.0000
  N   N2        1.0  0.85094  0.78555  0.00588  1.0000
  N   N3        1.0  0.93545  0.78584  0.50592  1.0000
  N   N4        1.0  0.14886  0.21418  0.99412  1.0000
  N   N5        1.0  0.13114  0.23409  0.29389  1.0000
  N   N6        1.0  0.89778  0.76620  0.20616  1.0000
  N   N7        1.0  0.86898  0.76600  0.70611  1.0000
  N   N8        1.0  0.10225  0.23392  0.79386  1.0000
  Cl  Cl1       1.0  0.69183  0.07370  0.63366  1.0000
  Cl  Cl2       1.0  0.61853  0.92584  0.86638  1.0000
  Cl  Cl3       1.0  0.30809  0.92627  0.36631  1.0000
  Cl  Cl4       1.0  0.38152  0.07418  0.13361  1.0000
  O   O1        1.0  0.40429  0.32337  0.64273  1.0000
  O   O2        1.0  0.08194  0.67650  0.85734  1.0000
  O   O3        1.0  0.59568  0.67672  0.35727  1.0000
  O   O4        1.0  0.91823  0.32360  0.14267  1.0000
  O   O5        1.0  0.67241  0.40254  0.53514  1.0000
  O   O6        1.0  0.27058  0.59720  0.96490  1.0000
  O   O7        1.0  0.32752  0.59741  0.46476  1.0000
  O   O8        1.0  0.72939  0.40265  0.03501  1.0000
  O   O9        1.0  0.04309  0.46478  0.67107  1.0000
  O   O10       1.0  0.57873  0.53499  0.82868  1.0000
  O   O11       1.0  0.95671  0.53522  0.32888  1.0000
  O   O12       1.0  0.42145  0.46496  0.17128  1.0000
