data_image0
_chemical_formula_structural       Ag4H44C38S4O8
_chemical_formula_sum              "Ag4 H44 C38 S4 O8"
_cell_length_a       7.74467
_cell_length_b       9.81069
_cell_length_c       13.3956
_cell_angle_alpha    94.0184
_cell_angle_beta     106.826
_cell_angle_gamma    89.9668

_space_group_name_H-M_alt    "P 1"
_space_group_IT_number       1

loop_
  _space_group_symop_operation_xyz
  'x, y, z'

loop_
  _atom_site_type_symbol
  _atom_site_label
  _atom_site_symmetry_multiplicity
  _atom_site_fract_x
  _atom_site_fract_y
  _atom_site_fract_z
  _atom_site_occupancy
  Ag  Ag1       1.0  0.15734  0.92784  0.05576  1.0000
  Ag  Ag2       1.0  0.10131  0.57227  0.94423  1.0000
  Ag  Ag3       1.0  0.84267  0.07216  0.94425  1.0000
  Ag  Ag4       1.0  0.89869  0.42774  0.05577  1.0000
  H   H1        1.0  0.27284  0.86856  0.25683  1.0000
  H   H2        1.0  0.01693  0.63148  0.74313  1.0000
  H   H3        1.0  0.72716  0.13144  0.74317  1.0000
  H   H4        1.0  0.98307  0.36852  0.25687  1.0000
  H   H5        1.0  0.50269  0.97002  0.41617  1.0000
  H   H6        1.0  0.08765  0.53007  0.58389  1.0000
  H   H7        1.0  0.49732  0.02997  0.58384  1.0000
  H   H8        1.0  0.91235  0.46993  0.41611  1.0000
  H   H9        1.0  0.71351  0.81821  0.53513  1.0000
  H   H10       1.0  0.17882  0.68200  0.46485  1.0000
  H   H11       1.0  0.28650  0.18178  0.46487  1.0000
  H   H12       1.0  0.82118  0.31801  0.53515  1.0000
  H   H13       1.0  0.68862  0.56696  0.49574  1.0000
  H   H14       1.0  0.19225  0.93321  0.50411  1.0000
  H   H15       1.0  0.31138  0.43304  0.50426  1.0000
  H   H16       1.0  0.80774  0.06680  0.49589  1.0000
  H   H17       1.0  0.46484  0.46734  0.33245  1.0000
  H   H18       1.0  0.13149  0.03284  0.66724  1.0000
  H   H19       1.0  0.53516  0.53266  0.66755  1.0000
  H   H20       1.0  0.86850  0.96716  0.33276  1.0000
  H   H21       1.0  0.50684  0.22177  0.30145  1.0000
  H   H22       1.0  0.20509  0.27816  0.69885  1.0000
  H   H23       1.0  0.49316  0.77823  0.69855  1.0000
  H   H24       1.0  0.79491  0.72184  0.30115  1.0000
  H   H25       1.0  0.31641  0.11552  0.29625  1.0000
  H   H26       1.0  0.01991  0.38463  0.70404  1.0000
  H   H27       1.0  0.68359  0.88448  0.70375  1.0000
  H   H28       1.0  0.98009  0.61538  0.29596  1.0000
  H   H29       1.0  0.28829  0.25274  0.21258  1.0000
  H   H30       1.0  0.07562  0.24747  0.78778  1.0000
  H   H31       1.0  0.71171  0.74726  0.78742  1.0000
  H   H32       1.0  0.92439  0.75254  0.21222  1.0000
  H   H33       1.0  0.59793  0.24553  0.12459  1.0000
  H   H34       1.0  0.47312  0.25415  0.87558  1.0000
  H   H35       1.0  0.40207  0.75447  0.87541  1.0000
  H   H36       1.0  0.52688  0.74585  0.12442  1.0000
  H   H37       1.0  0.56945  0.11119  0.02695  1.0000
  H   H38       1.0  0.54267  0.38845  0.97324  1.0000
  H   H39       1.0  0.43055  0.88881  0.97305  1.0000
  H   H40       1.0  0.45733  0.61156  0.02676  1.0000
  H   H41       1.0  0.23761  0.17738  0.95458  1.0000
  H   H42       1.0  0.28334  0.32268  0.04573  1.0000
  H   H43       1.0  0.76239  0.82262  0.04542  1.0000
  H   H44       1.0  0.71667  0.67732  0.95426  1.0000
  C   C1        1.0  0.23369  0.60106  0.18221  1.0000
  C   C2        1.0  0.05159  0.89901  0.81768  1.0000
  C   C3        1.0  0.76631  0.39894  0.81780  1.0000
  C   C4        1.0  0.94841  0.10099  0.18233  1.0000
  C   C5        1.0  0.35900  0.66220  0.28315  1.0000
  C   C6        1.0  0.07572  0.83793  0.71668  1.0000
  C   C7        1.0  0.64101  0.33780  0.71685  1.0000
  C   C8        1.0  0.92428  0.16207  0.28332  1.0000
  C   C9        1.0  0.36757  0.80362  0.30839  1.0000
  C   C10       1.0  0.05975  0.69648  0.69154  1.0000
  C   C11       1.0  0.63243  0.19638  0.69161  1.0000
  C   C12       1.0  0.94025  0.30352  0.30846  1.0000
  C   C13       1.0  0.49391  0.85963  0.39875  1.0000
  C   C14       1.0  0.09576  0.64048  0.60121  1.0000
  C   C15       1.0  0.50609  0.14037  0.60125  1.0000
  C   C16       1.0  0.90423  0.35952  0.39879  1.0000
  C   C17       1.0  0.61153  0.77494  0.46559  1.0000
  C   C18       1.0  0.14606  0.72523  0.53430  1.0000
  C   C19       1.0  0.38847  0.22506  0.53441  1.0000
  C   C20       1.0  0.85393  0.27477  0.46570  1.0000
  C   C21       1.0  0.59916  0.63338  0.44277  1.0000
  C   C22       1.0  0.15591  0.86676  0.55705  1.0000
  C   C23       1.0  0.40084  0.36662  0.55723  1.0000
  C   C24       1.0  0.84408  0.13324  0.44295  1.0000
  C   C25       1.0  0.47368  0.57719  0.35214  1.0000
  C   C26       1.0  0.12085  0.92297  0.64761  1.0000
  C   C27       1.0  0.52632  0.42281  0.64786  1.0000
  C   C28       1.0  0.87914  0.07703  0.35239  1.0000
  C   C29       1.0  0.38094  0.17475  0.25018  1.0000
  C   C30       1.0  0.13061  0.32536  0.75014  1.0000
  C   C31       1.0  0.61906  0.82525  0.74982  1.0000
  C   C32       1.0  0.86940  0.67464  0.24985  1.0000
  C   C33       1.0  0.49672  0.17402  0.07239  1.0000
  C   C34       1.0  0.42435  0.32576  0.92786  1.0000
  C   C35       1.0  0.50328  0.82598  0.92761  1.0000
  C   C36       1.0  0.57565  0.67424  0.07214  1.0000
  C   C37       1.0  0.34429  0.24998  0.00015  1.0000
  C   C38       1.0  0.65571  0.75002  0.99985  1.0000
  S   S1        1.0  0.43515  0.05631  0.15492  1.0000
  S   S2        1.0  0.28028  0.44367  0.84536  1.0000
  S   S3        1.0  0.56485  0.94369  0.84508  1.0000
  S   S4        1.0  0.71972  0.55633  0.15464  1.0000
  O   O1        1.0  0.17543  0.68004  0.10754  1.0000
  O   O2        1.0  0.06885  0.82005  0.89241  1.0000
  O   O3        1.0  0.82456  0.31996  0.89246  1.0000
  O   O4        1.0  0.93115  0.17995  0.10759  1.0000
  O   O5        1.0  0.19467  0.47459  0.17587  1.0000
  O   O6        1.0  0.01832  0.02542  0.82397  1.0000
  O   O7        1.0  0.80534  0.52541  0.82413  1.0000
  O   O8        1.0  0.98168  0.97458  0.17603  1.0000
