data_image0
_chemical_formula_structural       Ag2H24C14S4O4F4
_chemical_formula_sum              "Ag2 H24 C14 S4 O4 F4"
_cell_length_a       7.51005
_cell_length_b       8.24778
_cell_length_c       10.0404
_cell_angle_alpha    112.137
_cell_angle_beta     107.324
_cell_angle_gamma    94.0835

_space_group_name_H-M_alt    "P 1"
_space_group_IT_number       1

loop_
  _space_group_symop_operation_xyz
  'x, y, z'

loop_
  _atom_site_type_symbol
  _atom_site_label
  _atom_site_symmetry_multiplicity
  _atom_site_fract_x
  _atom_site_fract_y
  _atom_site_fract_z
  _atom_site_occupancy
  Ag  Ag1       1.0  0.58512  0.70092  0.53269  1.0000
  Ag  Ag2       1.0  0.41487  0.29908  0.46731  1.0000
  H   H1        1.0  0.21551  0.90062  0.63423  1.0000
  H   H2        1.0  0.78449  0.09939  0.36577  1.0000
  H   H3        1.0  0.21086  0.72386  0.69787  1.0000
  H   H4        1.0  0.78914  0.27615  0.30213  1.0000
  H   H5        1.0  0.00006  0.73210  0.56046  1.0000
  H   H6        1.0  0.99994  0.26790  0.43954  1.0000
  H   H7        1.0  0.05993  0.81263  0.07821  1.0000
  H   H8        1.0  0.94007  0.18737  0.92178  1.0000
  H   H9        1.0  0.95660  0.92968  0.21366  1.0000
  H   H10       1.0  0.04340  0.07031  0.78633  1.0000
  H   H11       1.0  0.27160  0.96683  0.97969  1.0000
  H   H12       1.0  0.72840  0.03317  0.02031  1.0000
  H   H13       1.0  0.43936  0.17232  0.11084  1.0000
  H   H14       1.0  0.56064  0.82769  0.88916  1.0000
  H   H15       1.0  0.45225  0.97600  0.14855  1.0000
  H   H16       1.0  0.54776  0.02401  0.85146  1.0000
  H   H17       1.0  0.12792  0.56420  0.19191  1.0000
  H   H18       1.0  0.87208  0.43580  0.80810  1.0000
  H   H19       1.0  0.97283  0.66910  0.28447  1.0000
  H   H20       1.0  0.02717  0.33090  0.71553  1.0000
  H   H21       1.0  0.23928  0.95714  0.43076  1.0000
  H   H22       1.0  0.76072  0.04286  0.56924  1.0000
  H   H23       1.0  0.35905  0.84840  0.30510  1.0000
  H   H24       1.0  0.64095  0.15160  0.69489  1.0000
  C   C1        1.0  0.62716  0.63504  0.22737  1.0000
  C   C2        1.0  0.37284  0.36494  0.77262  1.0000
  C   C3        1.0  0.60487  0.52692  0.05581  1.0000
  C   C4        1.0  0.39514  0.47308  0.94419  1.0000
  C   C5        1.0  0.15650  0.75995  0.60085  1.0000
  C   C6        1.0  0.84350  0.24005  0.39915  1.0000
  C   C7        1.0  0.09311  0.91190  0.19676  1.0000
  C   C8        1.0  0.90689  0.08810  0.80324  1.0000
  C   C9        1.0  0.35707  0.05039  0.10060  1.0000
  C   C10       1.0  0.64293  0.94961  0.89941  1.0000
  C   C11       1.0  0.12281  0.67331  0.29489  1.0000
  C   C12       1.0  0.87718  0.32669  0.70511  1.0000
  C   C13       1.0  0.21764  0.85522  0.31513  1.0000
  C   C14       1.0  0.78236  0.14478  0.68487  1.0000
  S   S1        1.0  0.19718  0.12261  0.20465  1.0000
  S   S2        1.0  0.80282  0.87738  0.79535  1.0000
  S   S3        1.0  0.22918  0.61116  0.45114  1.0000
  S   S4        1.0  0.77082  0.38884  0.54886  1.0000
  O   O1        1.0  0.65934  0.80194  0.27788  1.0000
  O   O2        1.0  0.34066  0.19808  0.72214  1.0000
  O   O3        1.0  0.60370  0.53629  0.29453  1.0000
  O   O4        1.0  0.39630  0.46371  0.70547  1.0000
  F   F1        1.0  0.71036  0.62365  0.00864  1.0000
  F   F2        1.0  0.28964  0.37636  0.99137  1.0000
  F   F3        1.0  0.67440  0.37155  0.03662  1.0000
  F   F4        1.0  0.32561  0.62846  0.96339  1.0000
