data_image0
_chemical_formula_structural       Ag2H24C18S4O4F14
_chemical_formula_sum              "Ag2 H24 C18 S4 O4 F14"
_cell_length_a       7.61102
_cell_length_b       8.06499
_cell_length_c       12.6624
_cell_angle_alpha    78.2672
_cell_angle_beta     74.9585
_cell_angle_gamma    78.7237

_space_group_name_H-M_alt    "P 1"
_space_group_IT_number       1

loop_
  _space_group_symop_operation_xyz
  'x, y, z'

loop_
  _atom_site_type_symbol
  _atom_site_label
  _atom_site_symmetry_multiplicity
  _atom_site_fract_x
  _atom_site_fract_y
  _atom_site_fract_z
  _atom_site_occupancy
  Ag  Ag1       1.0  0.57860  0.78806  0.02279  1.0000
  Ag  Ag2       1.0  0.42140  0.21194  0.97721  1.0000
  H   H1        1.0  0.97228  0.82317  0.11980  1.0000
  H   H2        1.0  0.02772  0.17683  0.88020  1.0000
  H   H3        1.0  0.13522  0.83851  0.19586  1.0000
  H   H4        1.0  0.86478  0.16149  0.80414  1.0000
  H   H5        1.0  0.16007  0.65143  0.13386  1.0000
  H   H6        1.0  0.83993  0.34857  0.86614  1.0000
  H   H7        1.0  0.06097  0.83165  0.90633  1.0000
  H   H8        1.0  0.93903  0.16835  0.09367  1.0000
  H   H9        1.0  0.26544  0.90010  0.81686  1.0000
  H   H10       1.0  0.73456  0.09990  0.18314  1.0000
  H   H11       1.0  0.26720  0.55274  0.97251  1.0000
  H   H12       1.0  0.73281  0.44726  0.02749  1.0000
  H   H13       1.0  0.44965  0.62132  0.86414  1.0000
  H   H14       1.0  0.55035  0.37868  0.13586  1.0000
  H   H15       1.0  0.25177  0.62261  0.72658  1.0000
  H   H16       1.0  0.74823  0.37739  0.27342  1.0000
  H   H17       1.0  0.07988  0.54740  0.84036  1.0000
  H   H18       1.0  0.92012  0.45261  0.15964  1.0000
  H   H19       1.0  0.51658  0.42217  0.62061  1.0000
  H   H20       1.0  0.48341  0.57783  0.37939  1.0000
  H   H21       1.0  0.62209  0.22917  0.69322  1.0000
  H   H22       1.0  0.37791  0.77083  0.30679  1.0000
  H   H23       1.0  0.62830  0.43255  0.72755  1.0000
  H   H24       1.0  0.37170  0.56745  0.27245  1.0000
  C   C1        1.0  0.75314  0.79619  0.78614  1.0000
  C   C2        1.0  0.24686  0.20381  0.21386  1.0000
  C   C3        1.0  0.85350  0.76359  0.66608  1.0000
  C   C4        1.0  0.14650  0.23641  0.33392  1.0000
  C   C5        1.0  0.73470  0.83930  0.57922  1.0000
  C   C6        1.0  0.26530  0.16070  0.42078  1.0000
  C   C7        1.0  0.80427  0.77195  0.46542  1.0000
  C   C8        1.0  0.19573  0.22806  0.53457  1.0000
  C   C9        1.0  0.11673  0.79043  0.12518  1.0000
  C   C10       1.0  0.88327  0.20957  0.87482  1.0000
  C   C11       1.0  0.21171  0.81533  0.89339  1.0000
  C   C12       1.0  0.78830  0.18467  0.10661  1.0000
  C   C13       1.0  0.29918  0.62894  0.88925  1.0000
  C   C14       1.0  0.70082  0.37107  0.11075  1.0000
  C   C15       1.0  0.22862  0.55049  0.81128  1.0000
  C   C16       1.0  0.77138  0.44951  0.18872  1.0000
  C   C17       1.0  0.54709  0.35847  0.70034  1.0000
  C   C18       1.0  0.45291  0.64152  0.29966  1.0000
  S   S1        1.0  0.25711  0.90149  0.00396  1.0000
  S   S2        1.0  0.74290  0.09851  0.99605  1.0000
  S   S3        1.0  0.33312  0.33021  0.80003  1.0000
  S   S4        1.0  0.66688  0.66979  0.19998  1.0000
  O   O1        1.0  0.76411  0.66807  0.86230  1.0000
  O   O2        1.0  0.23589  0.33194  0.13770  1.0000
  O   O3        1.0  0.67609  0.94647  0.79396  1.0000
  O   O4        1.0  0.32391  0.05353  0.20605  1.0000
  F   F1        1.0  0.01248  0.83695  0.63434  1.0000
  F   F2        1.0  0.98752  0.16306  0.36566  1.0000
  F   F3        1.0  0.90546  0.59125  0.66096  1.0000
  F   F4        1.0  0.09454  0.40876  0.33904  1.0000
  F   F5        1.0  0.56039  0.79805  0.62398  1.0000
  F   F6        1.0  0.43962  0.20195  0.37602  1.0000
  F   F7        1.0  0.72304  0.01288  0.55702  1.0000
  F   F8        1.0  0.27695  0.98711  0.44298  1.0000
  F   F9        1.0  0.71764  0.87641  0.39018  1.0000
  F   F10       1.0  0.28235  0.12359  0.60982  1.0000
  F   F11       1.0  0.98776  0.77020  0.42699  1.0000
  F   F12       1.0  0.01225  0.22981  0.57301  1.0000
  F   F13       1.0  0.76640  0.61161  0.47487  1.0000
  F   F14       1.0  0.23361  0.38839  0.52513  1.0000
