data_image0
_chemical_formula_structural       Ag2H28C34N6O8
_chemical_formula_sum              "Ag2 H28 C34 N6 O8"
_cell_length_a       7.58921
_cell_length_b       9.03527
_cell_length_c       11.7642
_cell_angle_alpha    72.211
_cell_angle_beta     85.4821
_cell_angle_gamma    89.8026

_space_group_name_H-M_alt    "P 1"
_space_group_IT_number       1

loop_
  _space_group_symop_operation_xyz
  'x, y, z'

loop_
  _atom_site_type_symbol
  _atom_site_label
  _atom_site_symmetry_multiplicity
  _atom_site_fract_x
  _atom_site_fract_y
  _atom_site_fract_z
  _atom_site_occupancy
  Ag  Ag1       1.0  0.39663  0.77296  0.28200  1.0000
  Ag  Ag2       1.0  0.60337  0.22705  0.71801  1.0000
  H   H1        1.0  0.58821  0.09482  0.04265  1.0000
  H   H2        1.0  0.41179  0.90518  0.95734  1.0000
  H   H3        1.0  0.99763  0.88282  0.26913  1.0000
  H   H4        1.0  0.00237  0.11718  0.73087  1.0000
  H   H5        1.0  0.26370  0.33095  0.58694  1.0000
  H   H6        1.0  0.73631  0.66906  0.41306  1.0000
  H   H7        1.0  0.89100  0.39186  0.86905  1.0000
  H   H8        1.0  0.10901  0.60814  0.13094  1.0000
  H   H9        1.0  0.20708  0.38602  0.91872  1.0000
  H   H10       1.0  0.79292  0.61398  0.08128  1.0000
  H   H11       1.0  0.30827  0.17307  0.09026  1.0000
  H   H12       1.0  0.69173  0.82694  0.90974  1.0000
  H   H13       1.0  0.12312  0.41454  0.71863  1.0000
  H   H14       1.0  0.87688  0.58546  0.28137  1.0000
  H   H15       1.0  0.01053  0.63936  0.78462  1.0000
  H   H16       1.0  0.98947  0.36062  0.21539  1.0000
  H   H17       1.0  0.04338  0.90851  0.63709  1.0000
  H   H18       1.0  0.95659  0.09147  0.36292  1.0000
  H   H19       1.0  0.18818  0.93838  0.43342  1.0000
  H   H20       1.0  0.81181  0.06162  0.56659  1.0000
  H   H21       1.0  0.35362  0.15404  0.51041  1.0000
  H   H22       1.0  0.64638  0.84596  0.48959  1.0000
  H   H23       1.0  0.48380  0.08113  0.33284  1.0000
  H   H24       1.0  0.51620  0.91887  0.66716  1.0000
  H   H25       1.0  0.54511  0.29312  0.13614  1.0000
  H   H26       1.0  0.45488  0.70688  0.86386  1.0000
  H   H27       1.0  0.46249  0.56446  0.12637  1.0000
  H   H28       1.0  0.53751  0.43554  0.87364  1.0000
  C   C1        1.0  0.87146  0.06599  0.11338  1.0000
  C   C2        1.0  0.12854  0.93401  0.88662  1.0000
  C   C3        1.0  0.81770  0.18578  0.01333  1.0000
  C   C4        1.0  0.18229  0.81422  0.98667  1.0000
  C   C5        1.0  0.93763  0.30159  0.94453  1.0000
  C   C6        1.0  0.06237  0.69842  0.05546  1.0000
  C   C7        1.0  0.11290  0.29641  0.97299  1.0000
  C   C8        1.0  0.88710  0.70359  0.02701  1.0000
  C   C9        1.0  0.17166  0.17816  0.06832  1.0000
  C   C10       1.0  0.82835  0.82183  0.93168  1.0000
  C   C11       1.0  0.05166  0.06350  0.13835  1.0000
  C   C12       1.0  0.94834  0.93650  0.86165  1.0000
  C   C13       1.0  0.74463  0.94809  0.19058  1.0000
  C   C14       1.0  0.25536  0.05192  0.80941  1.0000
  C   C15       1.0  0.21600  0.56017  0.54145  1.0000
  C   C16       1.0  0.78400  0.43983  0.45855  1.0000
  C   C17       1.0  0.13465  0.53335  0.65873  1.0000
  C   C18       1.0  0.86534  0.46665  0.34126  1.0000
  C   C19       1.0  0.07232  0.65737  0.69439  1.0000
  C   C20       1.0  0.92768  0.34262  0.30561  1.0000
  C   C21       1.0  0.09010  0.80749  0.61291  1.0000
  C   C22       1.0  0.90989  0.19251  0.38710  1.0000
  C   C23       1.0  0.17069  0.82419  0.49998  1.0000
  C   C24       1.0  0.82931  0.17581  0.50003  1.0000
  C   C25       1.0  0.34584  0.39893  0.41118  1.0000
  C   C26       1.0  0.65416  0.60107  0.58882  1.0000
  C   C27       1.0  0.38263  0.24123  0.42347  1.0000
  C   C28       1.0  0.61737  0.75876  0.57653  1.0000
  C   C29       1.0  0.45477  0.20185  0.32542  1.0000
  C   C30       1.0  0.54524  0.79815  0.67458  1.0000
  C   C31       1.0  0.48777  0.31863  0.21553  1.0000
  C   C32       1.0  0.51223  0.68137  0.78447  1.0000
  C   C33       1.0  0.44423  0.46928  0.21011  1.0000
  C   C34       1.0  0.55577  0.53072  0.78989  1.0000
  N   N1        1.0  0.27728  0.42967  0.51402  1.0000
  N   N2        1.0  0.72273  0.57033  0.48598  1.0000
  N   N3        1.0  0.23343  0.70458  0.46314  1.0000
  N   N4        1.0  0.76657  0.29542  0.53685  1.0000
  N   N5        1.0  0.37568  0.51089  0.30538  1.0000
  N   N6        1.0  0.62433  0.48911  0.69462  1.0000
  O   O1        1.0  0.79710  0.84538  0.28275  1.0000
  O   O2        1.0  0.20290  0.15463  0.71725  1.0000
  O   O3        1.0  0.58255  0.95421  0.16371  1.0000
  O   O4        1.0  0.41745  0.04579  0.83629  1.0000
  O   O5        1.0  0.64882  0.19006  0.98270  1.0000
  O   O6        1.0  0.35119  0.80994  0.01730  1.0000
  O   O7        1.0  0.10859  0.94986  0.23193  1.0000
  O   O8        1.0  0.89141  0.05014  0.76806  1.0000
