data_image0
_chemical_formula_structural       Ag4H40C44N12O8
_chemical_formula_sum              "Ag4 H40 C44 N12 O8"
_cell_length_a       6.44803
_cell_length_b       6.87446
_cell_length_c       25.5584
_cell_angle_alpha    90.0004
_cell_angle_beta     89.9994
_cell_angle_gamma    106.796

_space_group_name_H-M_alt    "P 1"
_space_group_IT_number       1

loop_
  _space_group_symop_operation_xyz
  'x, y, z'

loop_
  _atom_site_type_symbol
  _atom_site_label
  _atom_site_symmetry_multiplicity
  _atom_site_fract_x
  _atom_site_fract_y
  _atom_site_fract_z
  _atom_site_occupancy
  Ag  Ag1       1.0  0.47838  0.78290  0.98158  1.0000
  Ag  Ag2       1.0  0.97839  0.28290  0.51842  1.0000
  Ag  Ag3       1.0  0.52161  0.21711  0.01842  1.0000
  Ag  Ag4       1.0  0.02162  0.71710  0.48158  1.0000
  H   H1        1.0  0.81470  0.67711  0.03256  1.0000
  H   H2        1.0  0.31469  0.17711  0.46745  1.0000
  H   H3        1.0  0.18530  0.32290  0.96745  1.0000
  H   H4        1.0  0.68531  0.82289  0.53256  1.0000
  H   H5        1.0  0.09601  0.70770  0.03775  1.0000
  H   H6        1.0  0.59601  0.20769  0.46225  1.0000
  H   H7        1.0  0.90399  0.29231  0.96225  1.0000
  H   H8        1.0  0.40399  0.79231  0.53776  1.0000
  H   H9        1.0  0.15871  0.53738  0.17763  1.0000
  H   H10       1.0  0.65870  0.03739  0.32237  1.0000
  H   H11       1.0  0.84130  0.46264  0.82237  1.0000
  H   H12       1.0  0.34130  0.96263  0.67763  1.0000
  H   H13       1.0  0.19489  0.34752  0.25958  1.0000
  H   H14       1.0  0.69486  0.84753  0.24042  1.0000
  H   H15       1.0  0.80514  0.65249  0.74042  1.0000
  H   H16       1.0  0.30511  0.15249  0.75958  1.0000
  H   H17       1.0  0.52088  0.22662  0.27150  1.0000
  H   H18       1.0  0.02084  0.72662  0.22850  1.0000
  H   H19       1.0  0.47914  0.77337  0.72850  1.0000
  H   H20       1.0  0.97911  0.27338  0.77150  1.0000
  H   H21       1.0  0.80648  0.29476  0.20309  1.0000
  H   H22       1.0  0.30644  0.79475  0.29690  1.0000
  H   H23       1.0  0.19354  0.70523  0.79690  1.0000
  H   H24       1.0  0.69352  0.20524  0.70309  1.0000
  H   H25       1.0  0.76501  0.48114  0.12167  1.0000
  H   H26       1.0  0.26499  0.98113  0.37833  1.0000
  H   H27       1.0  0.23500  0.51886  0.87833  1.0000
  H   H28       1.0  0.73500  0.01886  0.62167  1.0000
  H   H29       1.0  0.70578  0.93450  0.87593  1.0000
  H   H30       1.0  0.20578  0.43451  0.62407  1.0000
  H   H31       1.0  0.29422  0.06549  0.12407  1.0000
  H   H32       1.0  0.79423  0.56549  0.37594  1.0000
  H   H33       1.0  0.07287  0.05037  0.83366  1.0000
  H   H34       1.0  0.57287  0.55036  0.66634  1.0000
  H   H35       1.0  0.92711  0.94962  0.16634  1.0000
  H   H36       1.0  0.42713  0.44963  0.33366  1.0000
  H   H37       1.0  0.38602  0.99239  0.88430  1.0000
  H   H38       1.0  0.88602  0.49239  0.61570  1.0000
  H   H39       1.0  0.61397  0.00760  0.11570  1.0000
  H   H40       1.0  0.11399  0.50761  0.38430  1.0000
  C   C1        1.0  0.41846  0.61909  0.09495  1.0000
  C   C2        1.0  0.91846  0.11909  0.40505  1.0000
  C   C3        1.0  0.58155  0.38091  0.90504  1.0000
  C   C4        1.0  0.08155  0.88091  0.59496  1.0000
  C   C5        1.0  0.45826  0.52039  0.14514  1.0000
  C   C6        1.0  0.95825  0.02039  0.35486  1.0000
  C   C7        1.0  0.54174  0.47961  0.85486  1.0000
  C   C8        1.0  0.04174  0.97962  0.64513  1.0000
  C   C9        1.0  0.30033  0.48473  0.18451  1.0000
  C   C10       1.0  0.80031  0.98473  0.31549  1.0000
  C   C11       1.0  0.69969  0.51528  0.81549  1.0000
  C   C12       1.0  0.19967  0.01528  0.68451  1.0000
  C   C13       1.0  0.32178  0.37936  0.22981  1.0000
  C   C14       1.0  0.82174  0.87937  0.27019  1.0000
  C   C15       1.0  0.67825  0.62064  0.77019  1.0000
  C   C16       1.0  0.17823  0.12065  0.72981  1.0000
  C   C17       1.0  0.50421  0.31074  0.23638  1.0000
  C   C18       1.0  0.00418  0.81075  0.26362  1.0000
  C   C19       1.0  0.49581  0.68924  0.76362  1.0000
  C   C20       1.0  0.99578  0.18926  0.73638  1.0000
  C   C21       1.0  0.66482  0.34923  0.19784  1.0000
  C   C22       1.0  0.16479  0.84923  0.30215  1.0000
  C   C23       1.0  0.33519  0.65077  0.80215  1.0000
  C   C24       1.0  0.83519  0.15077  0.69785  1.0000
  C   C25       1.0  0.64217  0.45340  0.15226  1.0000
  C   C26       1.0  0.14215  0.95340  0.34774  1.0000
  C   C27       1.0  0.35784  0.54659  0.84774  1.0000
  C   C28       1.0  0.85784  0.04661  0.65226  1.0000
  C   C29       1.0  0.99265  0.79999  0.96817  1.0000
  C   C30       1.0  0.49265  0.29998  0.53183  1.0000
  C   C31       1.0  0.00735  0.20001  0.03183  1.0000
  C   C32       1.0  0.50735  0.70001  0.46818  1.0000
  C   C33       1.0  0.84808  0.91468  0.89557  1.0000
  C   C34       1.0  0.34808  0.41469  0.60443  1.0000
  C   C35       1.0  0.15191  0.08531  0.10443  1.0000
  C   C36       1.0  0.65193  0.58531  0.39557  1.0000
  C   C37       1.0  0.05065  0.97876  0.87187  1.0000
  C   C38       1.0  0.55064  0.47876  0.62813  1.0000
  C   C39       1.0  0.94934  0.02123  0.12813  1.0000
  C   C40       1.0  0.44935  0.52123  0.37187  1.0000
  C   C41       1.0  0.22150  0.94559  0.89970  1.0000
  C   C42       1.0  0.72150  0.44559  0.60030  1.0000
  C   C43       1.0  0.77849  0.05441  0.10030  1.0000
  C   C44       1.0  0.27850  0.55441  0.39970  1.0000
  N   N1        1.0  0.96517  0.71602  0.01539  1.0000
  N   N2        1.0  0.46517  0.21601  0.48461  1.0000
  N   N3        1.0  0.03484  0.28400  0.98461  1.0000
  N   N4        1.0  0.53484  0.78400  0.51539  1.0000
  N   N5        1.0  0.81683  0.82939  0.94295  1.0000
  N   N6        1.0  0.31683  0.32939  0.55705  1.0000
  N   N7        1.0  0.18316  0.17061  0.05705  1.0000
  N   N8        1.0  0.68318  0.67061  0.44295  1.0000
  N   N9        1.0  0.19627  0.85450  0.94667  1.0000
  N   N10       1.0  0.69627  0.35450  0.55333  1.0000
  N   N11       1.0  0.80373  0.14549  0.05333  1.0000
  N   N12       1.0  0.30374  0.64550  0.44667  1.0000
  O   O1        1.0  0.54776  0.61962  0.05661  1.0000
  O   O2        1.0  0.04775  0.11961  0.44339  1.0000
  O   O3        1.0  0.45225  0.38038  0.94338  1.0000
  O   O4        1.0  0.95225  0.88038  0.55662  1.0000
  O   O5        1.0  0.26074  0.69266  0.09325  1.0000
  O   O6        1.0  0.76074  0.19267  0.40675  1.0000
  O   O7        1.0  0.73928  0.30734  0.90675  1.0000
  O   O8        1.0  0.23927  0.80734  0.59325  1.0000
