data_image0
_chemical_formula_structural       Zn4P4H28C8N4O12
_chemical_formula_sum              "Zn4 P4 H28 C8 N4 O12"
_cell_length_a       7.9682
_cell_length_b       8.21016
_cell_length_c       8.38475
_cell_angle_alpha    90
_cell_angle_beta     95.15
_cell_angle_gamma    90

_space_group_name_H-M_alt    "P 1"
_space_group_IT_number       1

loop_
  _space_group_symop_operation_xyz
  'x, y, z'

loop_
  _atom_site_type_symbol
  _atom_site_label
  _atom_site_symmetry_multiplicity
  _atom_site_fract_x
  _atom_site_fract_y
  _atom_site_fract_z
  _atom_site_occupancy
  Zn  Zn1       1.0  0.78519  0.53276  0.10234  1.0000
  Zn  Zn2       1.0  0.28519  0.96724  0.10234  1.0000
  Zn  Zn3       1.0  0.21481  0.46724  0.89766  1.0000
  Zn  Zn4       1.0  0.71481  0.03276  0.89766  1.0000
  P   P1        1.0  0.41589  0.60934  0.19814  1.0000
  P   P2        1.0  0.91588  0.89066  0.19814  1.0000
  P   P3        1.0  0.58412  0.39066  0.80186  1.0000
  P   P4        1.0  0.08412  0.10934  0.80186  1.0000
  H   H1        1.0  0.36623  0.65105  0.35009  1.0000
  H   H2        1.0  0.86623  0.84895  0.35010  1.0000
  H   H3        1.0  0.63377  0.34895  0.64991  1.0000
  H   H4        1.0  0.13377  0.15105  0.64991  1.0000
  H   H5        1.0  0.93623  0.26086  0.13649  1.0000
  H   H6        1.0  0.43623  0.23914  0.13649  1.0000
  H   H7        1.0  0.06377  0.73914  0.86352  1.0000
  H   H8        1.0  0.56377  0.76086  0.86351  1.0000
  H   H9        1.0  0.06431  0.40520  0.20417  1.0000
  H   H10       1.0  0.56431  0.09480  0.20417  1.0000
  H   H11       1.0  0.93569  0.59480  0.79583  1.0000
  H   H12       1.0  0.43569  0.90520  0.79583  1.0000
  H   H13       1.0  0.00011  0.21950  0.41469  1.0000
  H   H14       1.0  0.50011  0.28050  0.41469  1.0000
  H   H15       1.0  0.99989  0.78050  0.58531  1.0000
  H   H16       1.0  0.49989  0.71950  0.58531  1.0000
  H   H17       1.0  0.78392  0.25873  0.36395  1.0000
  H   H18       1.0  0.28392  0.24127  0.36394  1.0000
  H   H19       1.0  0.21608  0.74127  0.63606  1.0000
  H   H20       1.0  0.71608  0.75873  0.63605  1.0000
  H   H21       1.0  0.88392  0.40671  0.60462  1.0000
  H   H22       1.0  0.38392  0.09329  0.60462  1.0000
  H   H23       1.0  0.11608  0.59329  0.39538  1.0000
  H   H24       1.0  0.61608  0.90671  0.39538  1.0000
  H   H25       1.0  0.81415  0.54346  0.45035  1.0000
  H   H26       1.0  0.31415  0.95654  0.45035  1.0000
  H   H27       1.0  0.18585  0.45654  0.54965  1.0000
  H   H28       1.0  0.68585  0.04346  0.54965  1.0000
  C   C1        1.0  0.90940  0.31451  0.37200  1.0000
  C   C2        1.0  0.40940  0.18549  0.37200  1.0000
  C   C3        1.0  0.09060  0.68549  0.62800  1.0000
  C   C4        1.0  0.59060  0.81451  0.62800  1.0000
  C   C5        1.0  0.91511  0.45654  0.48910  1.0000
  C   C6        1.0  0.41511  0.04346  0.48909  1.0000
  C   C7        1.0  0.08489  0.54346  0.51091  1.0000
  C   C8        1.0  0.58489  0.95654  0.51091  1.0000
  N   N1        1.0  0.94267  0.36300  0.20726  1.0000
  N   N2        1.0  0.44268  0.13700  0.20726  1.0000
  N   N3        1.0  0.05732  0.63700  0.79274  1.0000
  N   N4        1.0  0.55733  0.86300  0.79274  1.0000
  O   O1        1.0  0.59179  0.53415  0.23049  1.0000
  O   O2        1.0  0.09179  0.96585  0.23049  1.0000
  O   O3        1.0  0.40821  0.46585  0.76951  1.0000
  O   O4        1.0  0.90821  0.03415  0.76951  1.0000
  O   O5        1.0  0.28380  0.48352  0.12960  1.0000
  O   O6        1.0  0.78380  0.01648  0.12960  1.0000
  O   O7        1.0  0.71620  0.51648  0.87040  1.0000
  O   O8        1.0  0.21620  0.98352  0.87040  1.0000
  O   O9        1.0  0.41708  0.76460  0.09660  1.0000
  O   O10       1.0  0.91708  0.73540  0.09660  1.0000
  O   O11       1.0  0.58292  0.23540  0.90340  1.0000
  O   O12       1.0  0.08292  0.26460  0.90340  1.0000
