data_image0
_chemical_formula_structural       Ag4H36C40N8O8
_chemical_formula_sum              "Ag4 H36 C40 N8 O8"
_cell_length_a       9.0712
_cell_length_b       10.4473
_cell_length_c       11.0066
_cell_angle_alpha    90
_cell_angle_beta     112.323
_cell_angle_gamma    90.0001

_space_group_name_H-M_alt    "P 1"
_space_group_IT_number       1

loop_
  _space_group_symop_operation_xyz
  'x, y, z'

loop_
  _atom_site_type_symbol
  _atom_site_label
  _atom_site_symmetry_multiplicity
  _atom_site_fract_x
  _atom_site_fract_y
  _atom_site_fract_z
  _atom_site_occupancy
  Ag  Ag1       1.0  0.65856  0.61780  0.57426  1.0000
  Ag  Ag2       1.0  0.65856  0.88220  0.07426  1.0000
  Ag  Ag3       1.0  0.34144  0.38220  0.42573  1.0000
  Ag  Ag4       1.0  0.34144  0.11780  0.92573  1.0000
  H   H1        1.0  0.90627  0.42236  0.74180  1.0000
  H   H2        1.0  0.90627  0.07764  0.24180  1.0000
  H   H3        1.0  0.09371  0.57764  0.25820  1.0000
  H   H4        1.0  0.09372  0.92236  0.75820  1.0000
  H   H5        1.0  0.07916  0.25274  0.70985  1.0000
  H   H6        1.0  0.07916  0.24726  0.20985  1.0000
  H   H7        1.0  0.92083  0.74726  0.29015  1.0000
  H   H8        1.0  0.92083  0.75274  0.79015  1.0000
  H   H9        1.0  0.86635  0.33041  0.29263  1.0000
  H   H10       1.0  0.86635  0.16959  0.79263  1.0000
  H   H11       1.0  0.13366  0.66959  0.70738  1.0000
  H   H12       1.0  0.13366  0.83041  0.20738  1.0000
  H   H13       1.0  0.70015  0.49616  0.34132  1.0000
  H   H14       1.0  0.70015  0.00383  0.84132  1.0000
  H   H15       1.0  0.29986  0.50383  0.65867  1.0000
  H   H16       1.0  0.29986  0.99617  0.15867  1.0000
  H   H17       1.0  0.59629  0.31054  0.10684  1.0000
  H   H18       1.0  0.59629  0.18946  0.60684  1.0000
  H   H19       1.0  0.40370  0.68946  0.89316  1.0000
  H   H20       1.0  0.40370  0.81054  0.39316  1.0000
  H   H21       1.0  0.76479  0.48566  0.07930  1.0000
  H   H22       1.0  0.76479  0.01434  0.57930  1.0000
  H   H23       1.0  0.23521  0.51434  0.92070  1.0000
  H   H24       1.0  0.23521  0.98566  0.42070  1.0000
  H   H25       1.0  0.55721  0.41294  0.66083  1.0000
  H   H26       1.0  0.55721  0.08706  0.16083  1.0000
  H   H27       1.0  0.44279  0.58706  0.33917  1.0000
  H   H28       1.0  0.44279  0.91294  0.83917  1.0000
  H   H29       1.0  0.39426  0.24183  0.70579  1.0000
  H   H30       1.0  0.39426  0.25817  0.20579  1.0000
  H   H31       1.0  0.60574  0.75817  0.29421  1.0000
  H   H32       1.0  0.60574  0.74183  0.79421  1.0000
  H   H33       1.0  0.14557  0.13071  0.55137  1.0000
  H   H34       1.0  0.14557  0.36929  0.05137  1.0000
  H   H35       1.0  0.85443  0.86928  0.44863  1.0000
  H   H36       1.0  0.85443  0.63072  0.94863  1.0000
  C   C1        1.0  0.89986  0.39841  0.64341  1.0000
  C   C2        1.0  0.89986  0.10159  0.14341  1.0000
  C   C3        1.0  0.10013  0.60159  0.35658  1.0000
  C   C4        1.0  0.10013  0.89841  0.85658  1.0000
  C   C5        1.0  0.99624  0.30373  0.62491  1.0000
  C   C6        1.0  0.99625  0.19627  0.12491  1.0000
  C   C7        1.0  0.00375  0.69626  0.37509  1.0000
  C   C8        1.0  0.00375  0.80374  0.87509  1.0000
  C   C9        1.0  0.98674  0.27581  0.49637  1.0000
  C   C10       1.0  0.98674  0.22419  0.99637  1.0000
  C   C11       1.0  0.01326  0.72419  0.50363  1.0000
  C   C12       1.0  0.01326  0.77581  0.00363  1.0000
  C   C13       1.0  0.87711  0.34784  0.39313  1.0000
  C   C14       1.0  0.87711  0.15216  0.89313  1.0000
  C   C15       1.0  0.12290  0.65216  0.60687  1.0000
  C   C16       1.0  0.12290  0.84784  0.10687  1.0000
  C   C17       1.0  0.78560  0.44016  0.42024  1.0000
  C   C18       1.0  0.78561  0.05984  0.92024  1.0000
  C   C19       1.0  0.21440  0.55984  0.57975  1.0000
  C   C20       1.0  0.21440  0.94016  0.07975  1.0000
  C   C21       1.0  0.59035  0.33653  0.00922  1.0000
  C   C22       1.0  0.59035  0.16347  0.50922  1.0000
  C   C23       1.0  0.40965  0.66347  0.99079  1.0000
  C   C24       1.0  0.40965  0.83653  0.49078  1.0000
  C   C25       1.0  0.68483  0.43382  0.99368  1.0000
  C   C26       1.0  0.68483  0.06618  0.49368  1.0000
  C   C27       1.0  0.31517  0.56618  0.00632  1.0000
  C   C28       1.0  0.31517  0.93382  0.50632  1.0000
  C   C29       1.0  0.67733  0.46699  0.86595  1.0000
  C   C30       1.0  0.67733  0.03301  0.36595  1.0000
  C   C31       1.0  0.32267  0.53301  0.13405  1.0000
  C   C32       1.0  0.32267  0.96699  0.63405  1.0000
  C   C33       1.0  0.56900  0.39313  0.76173  1.0000
  C   C34       1.0  0.56900  0.10687  0.26173  1.0000
  C   C35       1.0  0.43100  0.60687  0.23827  1.0000
  C   C36       1.0  0.43100  0.89313  0.73827  1.0000
  C   C37       1.0  0.47816  0.29829  0.78573  1.0000
  C   C38       1.0  0.47816  0.20171  0.28573  1.0000
  C   C39       1.0  0.52184  0.70171  0.21427  1.0000
  C   C40       1.0  0.52184  0.79829  0.71427  1.0000
  N   N1        1.0  0.79483  0.46684  0.54338  1.0000
  N   N2        1.0  0.79483  0.03316  0.04338  1.0000
  N   N3        1.0  0.20517  0.53316  0.45662  1.0000
  N   N4        1.0  0.20517  0.96684  0.95662  1.0000
  N   N5        1.0  0.48653  0.26815  0.90800  1.0000
  N   N6        1.0  0.48653  0.23185  0.40800  1.0000
  N   N7        1.0  0.51346  0.73186  0.09199  1.0000
  N   N8        1.0  0.51346  0.76815  0.59199  1.0000
  O   O1        1.0  0.07432  0.18845  0.46762  1.0000
  O   O2        1.0  0.07432  0.31154  0.96762  1.0000
  O   O3        1.0  0.92569  0.81154  0.53238  1.0000
  O   O4        1.0  0.92568  0.68846  0.03238  1.0000
  O   O5        1.0  0.76150  0.55784  0.84268  1.0000
  O   O6        1.0  0.76150  0.94216  0.34268  1.0000
  O   O7        1.0  0.23851  0.44216  0.15732  1.0000
  O   O8        1.0  0.23851  0.05784  0.65732  1.0000
