data_image0
_chemical_formula_structural       Nd2H10C14S2O14
_chemical_formula_sum              "Nd2 H10 C14 S2 O14"
_cell_length_a       5.93167
_cell_length_b       8.2931
_cell_length_c       10.0052
_cell_angle_alpha    111.334
_cell_angle_beta     95.7827
_cell_angle_gamma    92.4764

_space_group_name_H-M_alt    "P 1"
_space_group_IT_number       1

loop_
  _space_group_symop_operation_xyz
  'x, y, z'

loop_
  _atom_site_type_symbol
  _atom_site_label
  _atom_site_symmetry_multiplicity
  _atom_site_fract_x
  _atom_site_fract_y
  _atom_site_fract_z
  _atom_site_occupancy
  Nd  Nd1       1.0  0.76262  0.14995  0.96990  1.0000
  Nd  Nd2       1.0  0.23738  0.85005  0.03010  1.0000
  H   H1        1.0  0.29942  0.29613  0.91757  1.0000
  H   H2        1.0  0.70058  0.70387  0.08243  1.0000
  H   H3        1.0  0.39803  0.40730  0.07777  1.0000
  H   H4        1.0  0.60197  0.59270  0.92223  1.0000
  H   H5        1.0  0.65363  0.69043  0.65672  1.0000
  H   H6        1.0  0.34636  0.30957  0.34327  1.0000
  H   H7        1.0  0.67326  0.56156  0.39103  1.0000
  H   H8        1.0  0.32673  0.43844  0.60897  1.0000
  H   H9        1.0  0.33906  0.83119  0.45721  1.0000
  H   H10       1.0  0.66094  0.16881  0.54279  1.0000
  C   C1        1.0  0.17922  0.86804  0.64880  1.0000
  C   C2        1.0  0.82078  0.13195  0.35120  1.0000
  C   C3        1.0  0.98235  0.83273  0.70763  1.0000
  C   C4        1.0  0.01765  0.16727  0.29237  1.0000
  C   C5        1.0  0.80086  0.72235  0.61161  1.0000
  C   C6        1.0  0.19914  0.27765  0.38839  1.0000
  C   C7        1.0  0.81236  0.64986  0.46385  1.0000
  C   C8        1.0  0.18764  0.35014  0.53615  1.0000
  C   C9        1.0  0.00630  0.68942  0.40878  1.0000
  C   C10       1.0  0.99370  0.31058  0.59122  1.0000
  C   C11       1.0  0.18773  0.80044  0.49993  1.0000
  C   C12       1.0  0.81227  0.19956  0.50007  1.0000
  C   C13       1.0  0.38871  0.95934  0.74398  1.0000
  C   C14       1.0  0.61130  0.04066  0.25602  1.0000
  S   S1        1.0  0.03859  0.59100  0.22470  1.0000
  S   S2        1.0  0.96141  0.40900  0.77530  1.0000
  O   O1        1.0  0.43518  0.31534  0.98889  1.0000
  O   O2        1.0  0.56482  0.68466  0.01111  1.0000
  O   O3        1.0  0.43659  0.92582  0.86084  1.0000
  O   O4        1.0  0.56340  0.07418  0.13916  1.0000
  O   O5        1.0  0.52512  0.05986  0.71591  1.0000
  O   O6        1.0  0.47488  0.94014  0.28409  1.0000
  O   O7        1.0  0.96810  0.90372  0.85040  1.0000
  O   O8        1.0  0.03189  0.09627  0.14960  1.0000
  O   O9        1.0  0.86741  0.44052  0.16191  1.0000
  O   O10       1.0  0.13260  0.55948  0.83809  1.0000
  O   O11       1.0  0.27455  0.54935  0.21638  1.0000
  O   O12       1.0  0.72545  0.45065  0.78362  1.0000
  O   O13       1.0  0.98735  0.72120  0.15566  1.0000
  O   O14       1.0  0.01265  0.27880  0.84434  1.0000
