data_image0
_chemical_formula_structural       Co2H16C20N16O4
_chemical_formula_sum              "Co2 H16 C20 N16 O4"
_cell_length_a       7.48705
_cell_length_b       8.95557
_cell_length_c       10.2038
_cell_angle_alpha    71.68
_cell_angle_beta     72.7548
_cell_angle_gamma    69.5237

_space_group_name_H-M_alt    "P 1"
_space_group_IT_number       1

loop_
  _space_group_symop_operation_xyz
  'x, y, z'

loop_
  _atom_site_type_symbol
  _atom_site_label
  _atom_site_symmetry_multiplicity
  _atom_site_fract_x
  _atom_site_fract_y
  _atom_site_fract_z
  _atom_site_occupancy
  Co  Co1       1.0  1.00000  1.00000  1.00000  1.0000
  Co  Co2       1.0  1.00000  0.50000  0.50000  1.0000
  H   H1        1.0  0.69490  0.90750  0.54979  1.0000
  H   H2        1.0  0.30509  0.09250  0.45022  1.0000
  H   H3        1.0  0.31219  0.61403  0.95727  1.0000
  H   H4        1.0  0.68781  0.38596  0.04274  1.0000
  H   H5        1.0  0.64035  0.37140  0.71448  1.0000
  H   H6        1.0  0.35966  0.62860  0.28553  1.0000
  H   H7        1.0  0.42137  0.46703  0.65233  1.0000
  H   H8        1.0  0.57863  0.53296  0.34768  1.0000
  H   H9        1.0  0.41221  0.39011  0.83892  1.0000
  H   H10       1.0  0.58780  0.60988  0.16108  1.0000
  H   H11       1.0  0.37962  0.15792  0.77324  1.0000
  H   H12       1.0  0.62037  0.84208  0.22676  1.0000
  H   H13       1.0  0.62362  0.11693  0.67358  1.0000
  H   H14       1.0  0.37638  0.88308  0.32642  1.0000
  H   H15       1.0  0.57531  0.05292  0.86232  1.0000
  H   H16       1.0  0.42469  0.94708  0.13768  1.0000
  C   C1        1.0  0.39931  0.67635  0.86525  1.0000
  C   C2        1.0  0.60069  0.32364  0.13476  1.0000
  C   C3        1.0  0.49553  0.60956  0.74992  1.0000
  C   C4        1.0  0.50448  0.39044  0.25008  1.0000
  C   C5        1.0  0.49096  0.45009  0.73909  1.0000
  C   C6        1.0  0.50905  0.54991  0.26092  1.0000
  C   C7        1.0  0.60823  0.84498  0.64187  1.0000
  C   C8        1.0  0.39176  0.15502  0.35814  1.0000
  C   C9        1.0  0.51346  0.91083  0.75768  1.0000
  C   C10       1.0  0.48654  0.08917  0.24233  1.0000
  C   C11       1.0  0.52420  0.06873  0.76705  1.0000
  C   C12       1.0  0.47580  0.93127  0.23295  1.0000
  C   C13       1.0  0.06844  0.93407  0.70693  1.0000
  C   C14       1.0  0.93156  0.06593  0.29306  1.0000
  C   C15       1.0  0.09395  0.76636  0.56784  1.0000
  C   C16       1.0  0.90605  0.23365  0.43216  1.0000
  C   C17       1.0  0.98724  0.66277  0.19533  1.0000
  C   C18       1.0  0.01275  0.33722  0.80466  1.0000
  C   C19       1.0  0.88860  0.69655  0.99399  1.0000
  C   C20       1.0  0.11139  0.30344  0.00601  1.0000
  N   N1        1.0  0.40339  0.82592  0.86864  1.0000
  N   N2        1.0  0.59661  0.17408  0.13136  1.0000
  N   N3        1.0  0.59770  0.69873  0.63522  1.0000
  N   N4        1.0  0.40230  0.30127  0.36478  1.0000
  N   N5        1.0  0.01361  0.99654  0.80314  1.0000
  N   N6        1.0  0.98639  0.00346  0.19686  1.0000
  N   N7        1.0  0.14374  0.87640  0.59510  1.0000
  N   N8        1.0  0.85626  0.12359  0.40490  1.0000
  N   N9        1.0  0.06162  0.67014  0.52893  1.0000
  N   N10       1.0  0.93838  0.32986  0.47106  1.0000
  N   N11       1.0  0.02039  0.59626  0.30790  1.0000
  N   N12       1.0  0.97960  0.40374  0.69210  1.0000
  N   N13       1.0  0.95794  0.74948  0.07022  1.0000
  N   N14       1.0  0.04205  0.25052  0.92978  1.0000
  N   N15       1.0  0.82490  0.65965  0.92004  1.0000
  N   N16       1.0  0.17510  0.34035  0.07995  1.0000
  O   O1        1.0  0.30097  0.89085  0.97747  1.0000
  O   O2        1.0  0.69903  0.10915  0.02253  1.0000
  O   O3        1.0  0.68256  0.64381  0.52171  1.0000
  O   O4        1.0  0.31744  0.35619  0.47829  1.0000
