data_image0
_chemical_formula_structural       Zn2P4H40C14Cl4O18
_chemical_formula_sum              "Zn2 P4 H40 C14 Cl4 O18"
_cell_length_a       7.05491
_cell_length_b       8.92823
_cell_length_c       14.0267
_cell_angle_alpha    77.174
_cell_angle_beta     87.7972
_cell_angle_gamma    71.3336

_space_group_name_H-M_alt    "P 1"
_space_group_IT_number       1

loop_
  _space_group_symop_operation_xyz
  'x, y, z'

loop_
  _atom_site_type_symbol
  _atom_site_label
  _atom_site_symmetry_multiplicity
  _atom_site_fract_x
  _atom_site_fract_y
  _atom_site_fract_z
  _atom_site_occupancy
  Zn  Zn1       1.0  0.78043  0.20766  0.07519  1.0000
  Zn  Zn2       1.0  0.21956  0.79234  0.92481  1.0000
  P   P1        1.0  0.36773  0.29520  0.19735  1.0000
  P   P2        1.0  0.63227  0.70480  0.80265  1.0000
  P   P3        1.0  0.23539  0.99273  0.18545  1.0000
  P   P4        1.0  0.76463  0.00727  0.81455  1.0000
  H   H1        1.0  0.63267  0.95945  0.09226  1.0000
  H   H2        1.0  0.36733  0.04055  0.90774  1.0000
  H   H3        1.0  0.79409  0.94561  0.00588  1.0000
  H   H4        1.0  0.20591  0.05440  0.99412  1.0000
  H   H5        1.0  0.96704  0.41464  0.09429  1.0000
  H   H6        1.0  0.03296  0.58536  0.90571  1.0000
  H   H7        1.0  0.79013  0.50770  0.01402  1.0000
  H   H8        1.0  0.20987  0.49230  0.98598  1.0000
  H   H9        1.0  0.60977  0.24233  0.90092  1.0000
  H   H10       1.0  0.39022  0.75767  0.09908  1.0000
  H   H11       1.0  0.69255  0.39459  0.89720  1.0000
  H   H12       1.0  0.30744  0.60541  0.10280  1.0000
  H   H13       1.0  0.62032  0.25890  0.34647  1.0000
  H   H14       1.0  0.37967  0.74110  0.65353  1.0000
  H   H15       1.0  0.66055  0.51497  0.24897  1.0000
  H   H16       1.0  0.33945  0.48503  0.75103  1.0000
  H   H17       1.0  0.71425  0.49499  0.37480  1.0000
  H   H18       1.0  0.28575  0.50501  0.62520  1.0000
  H   H19       1.0  0.48000  0.62935  0.31996  1.0000
  H   H20       1.0  0.52000  0.37064  0.68004  1.0000
  H   H21       1.0  0.29434  0.48129  0.44990  1.0000
  H   H22       1.0  0.70566  0.51871  0.55010  1.0000
  H   H23       1.0  0.52214  0.33779  0.50574  1.0000
  H   H24       1.0  0.47786  0.66221  0.49426  1.0000
  H   H25       1.0  0.33888  0.27018  0.46090  1.0000
  H   H26       1.0  0.66112  0.72982  0.53910  1.0000
  H   H27       1.0  0.86433  0.98191  0.26139  1.0000
  H   H28       1.0  0.13567  0.01809  0.73861  1.0000
  H   H29       1.0  0.09018  0.72877  0.44067  1.0000
  H   H30       1.0  0.90982  0.27123  0.55933  1.0000
  H   H31       1.0  0.83335  0.84718  0.43572  1.0000
  H   H32       1.0  0.16666  0.15282  0.56428  1.0000
  H   H33       1.0  0.02045  0.94344  0.42599  1.0000
  H   H34       1.0  0.97955  0.05657  0.57401  1.0000
  H   H35       1.0  0.93234  0.73732  0.18761  1.0000
  H   H36       1.0  0.06767  0.26268  0.81239  1.0000
  H   H37       1.0  0.76006  0.74237  0.28236  1.0000
  H   H38       1.0  0.23994  0.25763  0.71764  1.0000
  H   H39       1.0  0.01300  0.60926  0.30556  1.0000
  H   H40       1.0  0.98700  0.39074  0.69444  1.0000
  C   C1        1.0  0.26673  0.13106  0.26167  1.0000
  C   C2        1.0  0.73328  0.86894  0.73833  1.0000
  C   C3        1.0  0.50649  0.37557  0.34888  1.0000
  C   C4        1.0  0.49351  0.62443  0.65112  1.0000
  C   C5        1.0  0.59531  0.51206  0.32137  1.0000
  C   C6        1.0  0.40469  0.48793  0.67863  1.0000
  C   C7        1.0  0.40933  0.36557  0.44719  1.0000
  C   C8        1.0  0.59067  0.63443  0.55281  1.0000
  C   C9        1.0  0.97037  0.86362  0.29614  1.0000
  C   C10       1.0  0.02963  0.13638  0.70386  1.0000
  C   C11       1.0  0.98013  0.84526  0.40619  1.0000
  C   C12       1.0  0.01988  0.15475  0.59381  1.0000
  C   C13       1.0  0.91720  0.72879  0.26645  1.0000
  C   C14       1.0  0.08281  0.27121  0.73355  1.0000
  Cl  Cl1       1.0  0.02572  0.22901  0.30390  1.0000
  Cl  Cl2       1.0  0.97428  0.77099  0.69609  1.0000
  Cl  Cl3       1.0  0.43004  0.00841  0.36410  1.0000
  Cl  Cl4       1.0  0.56996  0.99159  0.63591  1.0000
  O   O1        1.0  0.75596  0.98361  0.06683  1.0000
  O   O2        1.0  0.24404  0.01639  0.93317  1.0000
  O   O3        1.0  0.82605  0.42842  0.07757  1.0000
  O   O4        1.0  0.17395  0.57159  0.92243  1.0000
  O   O5        1.0  0.64615  0.31115  0.93972  1.0000
  O   O6        1.0  0.35383  0.68885  0.06028  1.0000
  O   O7        1.0  0.58459  0.21182  0.17999  1.0000
  O   O8        1.0  0.41543  0.78818  0.82001  1.0000
  O   O9        1.0  0.22581  0.39897  0.11266  1.0000
  O   O10       1.0  0.77420  0.60102  0.88734  1.0000
  O   O11       1.0  0.34955  0.40562  0.27420  1.0000
  O   O12       1.0  0.65046  0.59438  0.72580  1.0000
  O   O13       1.0  0.07700  0.09590  0.10604  1.0000
  O   O14       1.0  0.92299  0.90410  0.89396  1.0000
  O   O15       1.0  0.43513  0.90708  0.14827  1.0000
  O   O16       1.0  0.56486  0.09293  0.85173  1.0000
  O   O17       1.0  0.17157  0.85747  0.25986  1.0000
  O   O18       1.0  0.82843  0.14253  0.74014  1.0000
