data_image0
_chemical_formula_structural       Zn2H38C52N4O12
_chemical_formula_sum              "Zn2 H38 C52 N4 O12"
_cell_length_a       9.78909
_cell_length_b       9.67064
_cell_length_c       12.4076
_cell_angle_alpha    74.6016
_cell_angle_beta     77.5566
_cell_angle_gamma    78.2238

_space_group_name_H-M_alt    "P 1"
_space_group_IT_number       1

loop_
  _space_group_symop_operation_xyz
  'x, y, z'

loop_
  _atom_site_type_symbol
  _atom_site_label
  _atom_site_symmetry_multiplicity
  _atom_site_fract_x
  _atom_site_fract_y
  _atom_site_fract_z
  _atom_site_occupancy
  Zn  Zn1       1.0  0.40333  0.62271  0.94688  1.0000
  Zn  Zn2       1.0  0.59667  0.37729  0.05312  1.0000
  H   H1        1.0  0.04373  0.62701  0.23128  1.0000
  H   H2        1.0  0.95627  0.37299  0.76872  1.0000
  H   H3        1.0  0.87579  0.31466  0.52318  1.0000
  H   H4        1.0  0.12422  0.68534  0.47682  1.0000
  H   H5        1.0  0.29995  0.21492  0.34379  1.0000
  H   H6        1.0  0.70005  0.78508  0.65621  1.0000
  H   H7        1.0  0.93063  0.05221  0.61500  1.0000
  H   H8        1.0  0.06937  0.94779  0.38500  1.0000
  H   H9        1.0  0.99267  0.18839  0.65679  1.0000
  H   H10       1.0  0.00733  0.81161  0.34321  1.0000
  H   H11       1.0  0.27185  0.11133  0.68205  1.0000
  H   H12       1.0  0.72815  0.88866  0.31795  1.0000
  H   H13       1.0  0.41462  0.92051  0.81200  1.0000
  H   H14       1.0  0.58538  0.07949  0.18800  1.0000
  H   H15       1.0  0.13067  0.63415  0.86974  1.0000
  H   H16       1.0  0.86933  0.36584  0.13026  1.0000
  H   H17       1.0  0.97510  0.81249  0.74306  1.0000
  H   H18       1.0  0.02490  0.18751  0.25694  1.0000
  H   H19       1.0  0.71437  0.53690  0.54412  1.0000
  H   H20       1.0  0.28564  0.46310  0.45588  1.0000
  H   H21       1.0  0.68711  0.43081  0.45415  1.0000
  H   H22       1.0  0.31289  0.56919  0.54585  1.0000
  H   H23       1.0  0.58186  0.57950  0.26885  1.0000
  H   H24       1.0  0.41814  0.42050  0.73115  1.0000
  H   H25       1.0  0.37639  0.76407  0.21368  1.0000
  H   H26       1.0  0.62360  0.23593  0.78632  1.0000
  H   H27       1.0  0.33289  0.92876  0.49722  1.0000
  H   H28       1.0  0.66711  0.07124  0.50279  1.0000
  H   H29       1.0  0.53664  0.74785  0.56648  1.0000
  H   H30       1.0  0.46336  0.25214  0.43352  1.0000
  H   H31       1.0  0.12514  0.39165  0.89601  1.0000
  H   H32       1.0  0.87485  0.60835  0.10398  1.0000
  H   H33       1.0  0.93800  0.24695  0.91710  1.0000
  H   H34       1.0  0.06200  0.75305  0.08290  1.0000
  H   H35       1.0  0.20364  0.86544  0.07616  1.0000
  H   H36       1.0  0.79636  0.13456  0.92384  1.0000
  H   H37       1.0  0.38569  0.01378  0.05916  1.0000
  H   H38       1.0  0.61431  0.98623  0.94084  1.0000
  C   C1        1.0  0.30372  0.47006  0.18325  1.0000
  C   C2        1.0  0.69627  0.52995  0.81674  1.0000
  C   C3        1.0  0.18477  0.42647  0.27803  1.0000
  C   C4        1.0  0.81523  0.57353  0.72197  1.0000
  C   C5        1.0  0.05752  0.52160  0.28964  1.0000
  C   C6        1.0  0.94248  0.47840  0.71036  1.0000
  C   C7        1.0  0.94598  0.48061  0.37638  1.0000
  C   C8        1.0  0.05402  0.51939  0.62362  1.0000
  C   C9        1.0  0.96156  0.34632  0.45463  1.0000
  C   C10       1.0  0.03844  0.65368  0.54537  1.0000
  C   C11       1.0  0.09132  0.25324  0.44289  1.0000
  C   C12       1.0  0.90869  0.74676  0.55712  1.0000
  C   C13       1.0  0.20190  0.29064  0.35372  1.0000
  C   C14       1.0  0.79811  0.70937  0.64628  1.0000
  C   C15       1.0  0.02589  0.08936  0.62363  1.0000
  C   C16       1.0  0.97411  0.91064  0.37637  1.0000
  C   C17       1.0  0.11206  0.97638  0.70172  1.0000
  C   C18       1.0  0.88794  0.02361  0.29828  1.0000
  C   C19       1.0  0.23752  0.00644  0.72144  1.0000
  C   C20       1.0  0.76248  0.99356  0.27856  1.0000
  C   C21       1.0  0.31717  0.90173  0.79302  1.0000
  C   C22       1.0  0.68283  0.09826  0.20697  1.0000
  C   C23       1.0  0.15736  0.74134  0.82615  1.0000
  C   C24       1.0  0.84264  0.25866  0.17385  1.0000
  C   C25       1.0  0.07198  0.84091  0.75524  1.0000
  C   C26       1.0  0.92802  0.15909  0.24477  1.0000
  C   C27       1.0  0.70134  0.53951  0.45769  1.0000
  C   C28       1.0  0.29866  0.46049  0.54231  1.0000
  C   C29       1.0  0.57718  0.64972  0.42236  1.0000
  C   C30       1.0  0.42282  0.35028  0.57764  1.0000
  C   C31       1.0  0.53022  0.65499  0.32227  1.0000
  C   C32       1.0  0.46978  0.34501  0.67773  1.0000
  C   C33       1.0  0.41503  0.75890  0.29123  1.0000
  C   C34       1.0  0.58497  0.24110  0.70878  1.0000
  C   C35       1.0  0.39129  0.84965  0.44863  1.0000
  C   C36       1.0  0.60872  0.15034  0.55137  1.0000
  C   C37       1.0  0.50536  0.74939  0.48688  1.0000
  C   C38       1.0  0.49464  0.25061  0.51312  1.0000
  C   C39       1.0  0.37459  0.30554  0.97033  1.0000
  C   C40       1.0  0.62540  0.69447  0.02966  1.0000
  C   C41       1.0  0.26799  0.21257  0.97588  1.0000
  C   C42       1.0  0.73201  0.78743  0.02412  1.0000
  C   C43       1.0  0.14129  0.27593  0.93520  1.0000
  C   C44       1.0  0.85871  0.72408  0.06480  1.0000
  C   C45       1.0  0.03726  0.19296  0.94552  1.0000
  C   C46       1.0  0.96275  0.80704  0.05448  1.0000
  C   C47       1.0  0.05588  0.04327  0.99554  1.0000
  C   C48       1.0  0.94412  0.95673  0.00446  1.0000
  C   C49       1.0  0.18340  0.98083  0.03673  1.0000
  C   C50       1.0  0.81660  0.01917  0.96327  1.0000
  C   C51       1.0  0.28767  0.06388  0.02713  1.0000
  C   C52       1.0  0.71233  0.93612  0.97287  1.0000
  N   N1        1.0  0.27742  0.77107  0.84489  1.0000
  N   N2        1.0  0.72258  0.22893  0.15511  1.0000
  N   N3        1.0  0.34553  0.85556  0.35260  1.0000
  N   N4        1.0  0.65447  0.14444  0.64740  1.0000
  O   O1        1.0  0.27623  0.58524  0.10705  1.0000
  O   O2        1.0  0.72376  0.41476  0.89295  1.0000
  O   O3        1.0  0.42267  0.38782  0.18546  1.0000
  O   O4        1.0  0.57733  0.61218  0.81453  1.0000
  O   O5        1.0  0.11883  0.12101  0.51570  1.0000
  O   O6        1.0  0.88118  0.87899  0.48430  1.0000
  O   O7        1.0  0.82502  0.58054  0.37784  1.0000
  O   O8        1.0  0.17499  0.41946  0.62216  1.0000
  O   O9        1.0  0.34252  0.44124  0.92818  1.0000
  O   O10       1.0  0.65747  0.55876  0.07183  1.0000
  O   O11       1.0  0.48827  0.24543  0.00919  1.0000
  O   O12       1.0  0.51173  0.75458  0.99081  1.0000
