data_image0
_chemical_formula_structural       Cd2H16C8N16Cl4
_chemical_formula_sum              "Cd2 H16 C8 N16 Cl4"
_cell_length_a       3.78589
_cell_length_b       8.34456
_cell_length_c       16.91
_cell_angle_alpha    89.9994
_cell_angle_beta     93.2636
_cell_angle_gamma    90.0038

_space_group_name_H-M_alt    "P 1"
_space_group_IT_number       1

loop_
  _space_group_symop_operation_xyz
  'x, y, z'

loop_
  _atom_site_type_symbol
  _atom_site_label
  _atom_site_symmetry_multiplicity
  _atom_site_fract_x
  _atom_site_fract_y
  _atom_site_fract_z
  _atom_site_occupancy
  Cd  Cd1       1.0  0.49999  0.50000  0.50000  1.0000
  Cd  Cd2       1.0  0.00000  0.00000  1.00000  1.0000
  H   H1        1.0  0.26519  0.46449  0.91941  1.0000
  H   H2        1.0  0.23474  0.96452  0.58058  1.0000
  H   H3        1.0  0.73481  0.53551  0.08060  1.0000
  H   H4        1.0  0.76524  0.03548  0.41942  1.0000
  H   H5        1.0  0.04848  0.30070  0.87411  1.0000
  H   H6        1.0  0.45155  0.80066  0.62590  1.0000
  H   H7        1.0  0.95152  0.69930  0.12589  1.0000
  H   H8        1.0  0.54846  0.19933  0.37410  1.0000
  H   H9        1.0  0.24300  0.71476  0.85702  1.0000
  H   H10       1.0  0.25694  0.21478  0.64297  1.0000
  H   H11       1.0  0.75701  0.28524  0.14298  1.0000
  H   H12       1.0  0.74303  0.78522  0.35703  1.0000
  H   H13       1.0  0.97803  0.74104  0.76962  1.0000
  H   H14       1.0  0.52200  0.24104  0.73039  1.0000
  H   H15       1.0  0.02196  0.25896  0.23038  1.0000
  H   H16       1.0  0.47801  0.75896  0.26962  1.0000
  C   C1        1.0  0.67683  0.51780  0.69221  1.0000
  C   C2        1.0  0.82314  0.01782  0.80779  1.0000
  C   C3        1.0  0.32317  0.48221  0.30779  1.0000
  C   C4        1.0  0.17685  0.98219  0.19221  1.0000
  C   C5        1.0  0.99880  0.51251  0.81312  1.0000
  C   C6        1.0  0.50123  0.01252  0.68690  1.0000
  C   C7        1.0  0.00120  0.48749  0.18688  1.0000
  C   C8        1.0  0.49878  0.98748  0.31310  1.0000
  N   N1        1.0  0.54638  0.57085  0.63237  1.0000
  N   N2        1.0  0.95365  0.07085  0.86764  1.0000
  N   N3        1.0  0.45360  0.42915  0.36763  1.0000
  N   N4        1.0  0.04636  0.92915  0.13236  1.0000
  N   N5        1.0  0.78806  0.44353  0.75536  1.0000
  N   N6        1.0  0.71201  0.94346  0.74465  1.0000
  N   N7        1.0  0.21192  0.55645  0.24464  1.0000
  N   N8        1.0  0.28802  0.05652  0.25536  1.0000
  N   N9        1.0  0.10027  0.42127  0.87509  1.0000
  N   N10       1.0  0.39974  0.92128  0.62491  1.0000
  N   N11       1.0  0.89974  0.57873  0.12492  1.0000
  N   N12       1.0  0.60026  0.07871  0.37509  1.0000
  N   N13       1.0  0.10511  0.66476  0.80919  1.0000
  N   N14       1.0  0.39486  0.16479  0.69081  1.0000
  N   N15       1.0  0.89490  0.33525  0.19081  1.0000
  N   N16       1.0  0.60513  0.83521  0.30919  1.0000
  Cl  Cl1       1.0  0.00663  0.27958  0.52637  1.0000
  Cl  Cl2       1.0  0.49334  0.77958  0.97363  1.0000
  Cl  Cl3       1.0  0.99336  0.72043  0.47363  1.0000
  Cl  Cl4       1.0  0.50666  0.22043  0.02637  1.0000
