data_image0
_chemical_formula_structural       Mo3H16C24N4O9
_chemical_formula_sum              "Mo3 H16 C24 N4 O9"
_cell_length_a       8.88226
_cell_length_b       8.88224
_cell_length_c       10.3221
_cell_angle_alpha    66.8218
_cell_angle_beta     66.8219
_cell_angle_gamma    65.7784

_space_group_name_H-M_alt    "P 1"
_space_group_IT_number       1

loop_
  _space_group_symop_operation_xyz
  'x, y, z'

loop_
  _atom_site_type_symbol
  _atom_site_label
  _atom_site_symmetry_multiplicity
  _atom_site_fract_x
  _atom_site_fract_y
  _atom_site_fract_z
  _atom_site_occupancy
  Mo  Mo1       1.0  0.97834  0.03763  0.67686  1.0000
  Mo  Mo2       1.0  0.96237  0.02166  0.32314  1.0000
  Mo  Mo3       1.0  0.15392  0.84608  1.00000  1.0000
  H   H1        1.0  0.66168  0.86534  0.81975  1.0000
  H   H2        1.0  0.13466  0.33833  0.18025  1.0000
  H   H3        1.0  0.61431  0.58091  0.91772  1.0000
  H   H4        1.0  0.41910  0.38569  0.08228  1.0000
  H   H5        1.0  0.87205  0.31234  0.92316  1.0000
  H   H6        1.0  0.68766  0.12795  0.07684  1.0000
  H   H7        1.0  0.19436  0.18605  0.86439  1.0000
  H   H8        1.0  0.81395  0.80564  0.13561  1.0000
  H   H9        1.0  0.48177  0.22876  0.76575  1.0000
  H   H10       1.0  0.77124  0.51823  0.23425  1.0000
  H   H11       1.0  0.66058  0.42871  0.64504  1.0000
  H   H12       1.0  0.57129  0.33941  0.35496  1.0000
  H   H13       1.0  0.67082  0.73684  0.53587  1.0000
  H   H14       1.0  0.26316  0.32918  0.46413  1.0000
  H   H15       1.0  0.39598  0.97487  0.54579  1.0000
  H   H16       1.0  0.02513  0.60402  0.45421  1.0000
  C   C1        1.0  0.77099  0.74905  0.81992  1.0000
  C   C2        1.0  0.25095  0.22901  0.18008  1.0000
  C   C3        1.0  0.74570  0.58634  0.87650  1.0000
  C   C4        1.0  0.41366  0.25431  0.12350  1.0000
  C   C5        1.0  0.88650  0.44072  0.87854  1.0000
  C   C6        1.0  0.55929  0.11350  0.12146  1.0000
  C   C7        1.0  0.05337  0.45801  0.82212  1.0000
  C   C8        1.0  0.54199  0.94663  0.17788  1.0000
  C   C9        1.0  0.06713  0.62710  0.76489  1.0000
  C   C10       1.0  0.37290  0.93287  0.23511  1.0000
  C   C11       1.0  0.20645  0.31500  0.82027  1.0000
  C   C12       1.0  0.68500  0.79355  0.17973  1.0000
  C   C13       1.0  0.36512  0.33784  0.76529  1.0000
  C   C14       1.0  0.66216  0.63488  0.23471  1.0000
  C   C15       1.0  0.38319  0.50691  0.70506  1.0000
  C   C16       1.0  0.49309  0.61680  0.29494  1.0000
  C   C17       1.0  0.23397  0.65182  0.70368  1.0000
  C   C18       1.0  0.34818  0.76603  0.29632  1.0000
  C   C19       1.0  0.54415  0.53833  0.64424  1.0000
  C   C20       1.0  0.46167  0.45585  0.35576  1.0000
  C   C21       1.0  0.55026  0.70559  0.58576  1.0000
  C   C22       1.0  0.29441  0.44974  0.41424  1.0000
  C   C23       1.0  0.39601  0.84144  0.58909  1.0000
  C   C24       1.0  0.15856  0.60399  0.41091  1.0000
  N   N1        1.0  0.92706  0.76866  0.76570  1.0000
  N   N2        1.0  0.23135  0.07295  0.23430  1.0000
  N   N3        1.0  0.24236  0.81557  0.64625  1.0000
  N   N4        1.0  0.18443  0.75764  0.35374  1.0000
  O   O1        1.0  0.76336  0.14048  0.74165  1.0000
  O   O2        1.0  0.85952  0.23665  0.25835  1.0000
  O   O3        1.0  0.08669  0.18703  0.61004  1.0000
  O   O4        1.0  0.81297  0.91331  0.38997  1.0000
  O   O5        1.0  0.98092  0.01908  0.50000  1.0000
  O   O6        1.0  0.01869  0.94247  0.87518  1.0000
  O   O7        1.0  0.05753  0.98131  0.12482  1.0000
  O   O8        1.0  0.15278  0.63644  0.09182  1.0000
  O   O9        1.0  0.36355  0.84722  0.90819  1.0000
