data_image0
_chemical_formula_structural       CuH18C24N2O8
_chemical_formula_sum              "Cu1 H18 C24 N2 O8"
_cell_length_a       6.65847
_cell_length_b       8.14734
_cell_length_c       10.9929
_cell_angle_alpha    83.7984
_cell_angle_beta     75.8373
_cell_angle_gamma    76.9961

_space_group_name_H-M_alt    "P 1"
_space_group_IT_number       1

loop_
  _space_group_symop_operation_xyz
  'x, y, z'

loop_
  _atom_site_type_symbol
  _atom_site_label
  _atom_site_symmetry_multiplicity
  _atom_site_fract_x
  _atom_site_fract_y
  _atom_site_fract_z
  _atom_site_occupancy
  Cu  Cu1       1.0  0.50000  0.50000  0.50000  1.0000
  H   H1        1.0  0.96830  0.72476  0.81462  1.0000
  H   H2        1.0  0.03170  0.27524  0.18538  1.0000
  H   H3        1.0  0.11320  0.47168  0.61161  1.0000
  H   H4        1.0  0.88680  0.52832  0.38839  1.0000
  H   H5        1.0  0.61934  0.72042  0.65109  1.0000
  H   H6        1.0  0.38067  0.27957  0.34891  1.0000
  H   H7        1.0  0.60260  0.73892  0.87645  1.0000
  H   H8        1.0  0.39740  0.26108  0.12355  1.0000
  H   H9        1.0  0.41475  0.25388  0.94137  1.0000
  H   H10       1.0  0.58526  0.74611  0.05863  1.0000
  H   H11       1.0  0.45207  0.25431  0.71243  1.0000
  H   H12       1.0  0.54793  0.74569  0.28757  1.0000
  H   H13       1.0  0.86962  0.12558  0.94455  1.0000
  H   H14       1.0  0.13038  0.87442  0.05546  1.0000
  H   H15       1.0  0.97087  0.37195  0.80886  1.0000
  H   H16       1.0  0.02913  0.62806  0.19114  1.0000
  H   H17       1.0  0.25379  0.05211  0.49847  1.0000
  H   H18       1.0  0.74621  0.94790  0.50153  1.0000
  C   C1        1.0  0.57504  0.62078  0.71979  1.0000
  C   C2        1.0  0.42495  0.37922  0.28021  1.0000
  C   C3        1.0  0.56308  0.62943  0.84665  1.0000
  C   C4        1.0  0.43692  0.37057  0.15335  1.0000
  C   C5        1.0  0.50566  0.49761  0.93213  1.0000
  C   C6        1.0  0.49434  0.50239  0.06787  1.0000
  C   C7        1.0  0.46298  0.36073  0.88233  1.0000
  C   C8        1.0  0.53702  0.63927  0.11767  1.0000
  C   C9        1.0  0.48082  0.35976  0.75398  1.0000
  C   C10       1.0  0.51918  0.64024  0.24602  1.0000
  C   C11       1.0  0.16880  0.76043  0.62081  1.0000
  C   C12       1.0  0.83120  0.23957  0.37919  1.0000
  C   C13       1.0  0.10601  0.93110  0.67037  1.0000
  C   C14       1.0  0.89400  0.06891  0.32963  1.0000
  C   C15       1.0  0.99097  0.95236  0.79663  1.0000
  C   C16       1.0  0.00904  0.04764  0.20337  1.0000
  C   C17       1.0  0.94864  0.11120  0.84590  1.0000
  C   C18       1.0  0.05136  0.88880  0.15410  1.0000
  C   C19       1.0  0.00734  0.24831  0.77007  1.0000
  C   C20       1.0  0.99266  0.75169  0.22993  1.0000
  C   C21       1.0  0.11177  0.23012  0.64293  1.0000
  C   C22       1.0  0.88823  0.76988  0.35707  1.0000
  C   C23       1.0  0.16609  0.07045  0.59527  1.0000
  C   C24       1.0  0.83391  0.92956  0.40473  1.0000
  N   N1        1.0  0.53285  0.48868  0.67429  1.0000
  N   N2        1.0  0.46715  0.51132  0.32571  1.0000
  O   O1        1.0  0.31868  0.73344  0.52224  1.0000
  O   O2        1.0  0.68132  0.26656  0.47776  1.0000
  O   O3        1.0  0.07544  0.64494  0.68272  1.0000
  O   O4        1.0  0.92456  0.35506  0.31728  1.0000
  O   O5        1.0  0.92518  0.82178  0.87243  1.0000
  O   O6        1.0  0.07482  0.17822  0.12757  1.0000
  O   O7        1.0  0.16352  0.36418  0.56519  1.0000
  O   O8        1.0  0.83647  0.63583  0.43481  1.0000
