data_image0
_chemical_formula_structural       H12Pb2C12O14
_chemical_formula_sum              "H12 Pb2 C12 O14"
_cell_length_a       6.36473
_cell_length_b       6.61276
_cell_length_c       11.8944
_cell_angle_alpha    96.2396
_cell_angle_beta     101.678
_cell_angle_gamma    103.489

_space_group_name_H-M_alt    "P 1"
_space_group_IT_number       1

loop_
  _space_group_symop_operation_xyz
  'x, y, z'

loop_
  _atom_site_type_symbol
  _atom_site_label
  _atom_site_symmetry_multiplicity
  _atom_site_fract_x
  _atom_site_fract_y
  _atom_site_fract_z
  _atom_site_occupancy
  H   H1        1.0  0.27541  0.84078  0.31796  1.0000
  H   H2        1.0  0.72458  0.15925  0.68202  1.0000
  H   H3        1.0  0.10517  0.98437  0.37589  1.0000
  H   H4        1.0  0.89481  0.01564  0.62411  1.0000
  H   H5        1.0  0.70416  0.83806  0.33421  1.0000
  H   H6        1.0  0.29588  0.16202  0.66580  1.0000
  H   H7        1.0  0.75647  0.65423  0.42781  1.0000
  H   H8        1.0  0.24352  0.34577  0.57220  1.0000
  H   H9        1.0  0.92274  0.38212  0.34735  1.0000
  H   H10       1.0  0.07727  0.61789  0.65267  1.0000
  H   H11       1.0  0.45991  0.70143  0.58845  1.0000
  H   H12       1.0  0.54008  0.29858  0.41152  1.0000
  Pb  Pb1       1.0  0.07256  0.29345  0.11217  1.0000
  Pb  Pb2       1.0  0.92748  0.70654  0.88784  1.0000
  C   C1        1.0  0.51258  0.52164  0.26695  1.0000
  C   C2        1.0  0.48744  0.47832  0.73303  1.0000
  C   C3        1.0  0.72413  0.67830  0.33699  1.0000
  C   C4        1.0  0.27581  0.32171  0.66301  1.0000
  C   C5        1.0  0.92889  0.66575  0.28895  1.0000
  C   C6        1.0  0.07107  0.33419  0.71106  1.0000
  C   C7        1.0  0.89560  0.72162  0.16438  1.0000
  C   C8        1.0  0.10439  0.27837  0.83562  1.0000
  C   C9        1.0  0.14155  0.82998  0.36407  1.0000
  C   C10       1.0  0.85846  0.17001  0.63593  1.0000
  C   C11       1.0  0.21505  0.77299  0.48248  1.0000
  C   C12       1.0  0.78497  0.22700  0.51751  1.0000
  O   O1        1.0  0.40428  0.57554  0.17773  1.0000
  O   O2        1.0  0.59571  0.42456  0.82226  1.0000
  O   O3        1.0  0.44570  0.34202  0.29707  1.0000
  O   O4        1.0  0.55424  0.65807  0.70296  1.0000
  O   O5        1.0  0.96127  0.45850  0.28202  1.0000
  O   O6        1.0  0.03873  0.54145  0.71798  1.0000
  O   O7        1.0  0.90273  0.58069  0.08179  1.0000
  O   O8        1.0  0.09727  0.41924  0.91822  1.0000
  O   O9        1.0  0.86755  0.89811  0.14955  1.0000
  O   O10       1.0  0.13251  0.10188  0.85045  1.0000
  O   O11       1.0  0.41293  0.73779  0.50374  1.0000
  O   O12       1.0  0.58707  0.26215  0.49626  1.0000
  O   O13       1.0  0.09323  0.75924  0.55289  1.0000
  O   O14       1.0  0.90679  0.24074  0.44709  1.0000
