data_image0
_chemical_formula_structural       Mn4H32C16O28
_chemical_formula_sum              "Mn4 H32 C16 O28"
_cell_length_a       9.11146
_cell_length_b       8.49199
_cell_length_c       10.2353
_cell_angle_alpha    90.1701
_cell_angle_beta     89.8675
_cell_angle_gamma    87.2837

_space_group_name_H-M_alt    "P 1"
_space_group_IT_number       1

loop_
  _space_group_symop_operation_xyz
  'x, y, z'

loop_
  _atom_site_type_symbol
  _atom_site_label
  _atom_site_symmetry_multiplicity
  _atom_site_fract_x
  _atom_site_fract_y
  _atom_site_fract_z
  _atom_site_occupancy
  Mn  Mn1       1.0  0.77508  0.30693  0.59413  1.0000
  Mn  Mn2       1.0  0.74239  0.66420  0.10376  1.0000
  Mn  Mn3       1.0  0.23418  0.80355  0.90981  1.0000
  Mn  Mn4       1.0  0.27381  0.19389  0.40450  1.0000
  H   H1        1.0  0.78635  0.49295  0.82610  1.0000
  H   H2        1.0  0.71626  0.50829  0.32643  1.0000
  H   H3        1.0  0.21562  0.99247  0.67773  1.0000
  H   H4        1.0  0.28121  0.00488  0.17504  1.0000
  H   H5        1.0  0.66131  0.69372  0.72413  1.0000
  H   H6        1.0  0.83625  0.30213  0.23091  1.0000
  H   H7        1.0  0.33376  0.18450  0.78213  1.0000
  H   H8        1.0  0.18238  0.80324  0.27638  1.0000
  H   H9        1.0  0.98840  0.75147  0.67870  1.0000
  H   H10       1.0  0.50787  0.26126  0.18155  1.0000
  H   H11       1.0  0.00171  0.25259  0.81721  1.0000
  H   H12       1.0  0.51508  0.76436  0.31874  1.0000
  H   H13       1.0  0.84097  0.89532  0.69773  1.0000
  H   H14       1.0  0.64718  0.10599  0.17958  1.0000
  H   H15       1.0  0.13942  0.39554  0.82064  1.0000
  H   H16       1.0  0.38976  0.61081  0.32804  1.0000
  H   H17       1.0  0.72189  0.20531  0.83959  1.0000
  H   H18       1.0  0.74374  0.81671  0.32650  1.0000
  H   H19       1.0  0.31132  0.71932  0.66559  1.0000
  H   H20       1.0  0.19885  0.29741  0.15885  1.0000
  H   H21       1.0  0.62076  0.09056  0.75866  1.0000
  H   H22       1.0  0.83582  0.91768  0.22679  1.0000
  H   H23       1.0  0.40909  0.59789  0.75210  1.0000
  H   H24       1.0  0.09670  0.40994  0.25227  1.0000
  H   H25       1.0  0.52735  0.34642  0.73792  1.0000
  H   H26       1.0  0.99060  0.69064  0.21293  1.0000
  H   H27       1.0  0.48954  0.86110  0.78344  1.0000
  H   H28       1.0  0.01888  0.11892  0.25372  1.0000
  H   H29       1.0  0.38700  0.38842  0.64920  1.0000
  H   H30       1.0  0.01047  0.64214  0.06535  1.0000
  H   H31       1.0  0.62035  0.88919  0.88026  1.0000
  H   H32       1.0  0.89348  0.08820  0.35359  1.0000
  C   C1        1.0  0.75197  0.65484  0.53565  1.0000
  C   C2        1.0  0.75707  0.34191  0.03881  1.0000
  C   C3        1.0  0.23986  0.15167  0.96867  1.0000
  C   C4        1.0  0.26134  0.85022  0.46646  1.0000
  C   C5        1.0  0.77001  0.65747  0.68420  1.0000
  C   C6        1.0  0.73088  0.33901  0.18548  1.0000
  C   C7        1.0  0.22542  0.15510  0.82043  1.0000
  C   C8        1.0  0.28546  0.84250  0.31891  1.0000
  C   C9        1.0  0.88248  0.77724  0.72732  1.0000
  C   C10       1.0  0.61506  0.22195  0.22159  1.0000
  C   C11       1.0  0.10952  0.28210  0.77892  1.0000
  C   C12       1.0  0.41085  0.72414  0.28128  1.0000
  C   C13       1.0  0.90102  0.76632  0.87364  1.0000
  C   C14       1.0  0.60830  0.20872  0.36852  1.0000
  C   C15       1.0  0.10748  0.29142  0.63164  1.0000
  C   C16       1.0  0.41721  0.70167  0.13419  1.0000
  O   O1        1.0  0.75494  0.51829  0.47901  1.0000
  O   O2        1.0  0.75351  0.47912  0.98436  1.0000
  O   O3        1.0  0.23198  0.01755  0.02545  1.0000
  O   O4        1.0  0.25861  0.98714  0.52179  1.0000
  O   O5        1.0  0.73309  0.78468  0.47952  1.0000
  O   O6        1.0  0.78214  0.21388  0.97973  1.0000
  O   O7        1.0  0.25894  0.28047  0.02560  1.0000
  O   O8        1.0  0.24479  0.72308  0.52561  1.0000
  O   O9        1.0  0.78782  0.78847  0.94641  1.0000
  O   O10       1.0  0.72972  0.17715  0.42858  1.0000
  O   O11       1.0  0.22712  0.32501  0.57393  1.0000
  O   O12       1.0  0.29263  0.68913  0.07659  1.0000
  O   O13       1.0  0.02676  0.71648  0.92079  1.0000
  O   O14       1.0  0.48928  0.23793  0.43011  1.0000
  O   O15       1.0  0.99504  0.25540  0.56706  1.0000
  O   O16       1.0  0.53688  0.69996  0.06977  1.0000
  O   O17       1.0  0.80992  0.50159  0.72987  1.0000
  O   O18       1.0  0.68745  0.49568  0.23101  1.0000
  O   O19       1.0  0.18981  0.00226  0.77392  1.0000
  O   O20       1.0  0.31126  0.99727  0.27035  1.0000
  O   O21       1.0  0.67254  0.19356  0.75057  1.0000
  O   O22       1.0  0.75358  0.84413  0.23070  1.0000
  O   O23       1.0  0.36221  0.70925  0.75438  1.0000
  O   O24       1.0  0.14875  0.30645  0.25063  1.0000
  O   O25       1.0  0.46806  0.43440  0.69899  1.0000
  O   O26       1.0  0.96462  0.60862  0.15114  1.0000
  O   O27       1.0  0.54518  0.94479  0.82536  1.0000
  O   O28       1.0  0.96462  0.03403  0.29306  1.0000
