data_image0
_chemical_formula_structural       Li4B4H12C16N4O16F8
_chemical_formula_sum              "Li4 B4 H12 C16 N4 O16 F8"
_cell_length_a       6.15945
_cell_length_b       8.04908
_cell_length_c       14.9868
_cell_angle_alpha    90.0002
_cell_angle_beta     90
_cell_angle_gamma    90.0002

_space_group_name_H-M_alt    "P 1"
_space_group_IT_number       1

loop_
  _space_group_symop_operation_xyz
  'x, y, z'

loop_
  _atom_site_type_symbol
  _atom_site_label
  _atom_site_symmetry_multiplicity
  _atom_site_fract_x
  _atom_site_fract_y
  _atom_site_fract_z
  _atom_site_occupancy
  Li  Li1       1.0  0.25001  0.54253  0.53124  1.0000
  Li  Li2       1.0  0.75000  0.95748  0.03124  1.0000
  Li  Li3       1.0  0.25000  0.04252  0.96876  1.0000
  Li  Li4       1.0  0.74999  0.45747  0.46876  1.0000
  B   B1        1.0  0.25000  0.56604  0.19771  1.0000
  B   B2        1.0  0.75000  0.93396  0.69771  1.0000
  B   B3        1.0  0.25000  0.06604  0.30229  1.0000
  B   B4        1.0  0.75000  0.43396  0.80229  1.0000
  H   H1        1.0  0.25000  0.13120  0.65643  1.0000
  H   H2        1.0  0.75000  0.36882  0.15643  1.0000
  H   H3        1.0  0.25000  0.63119  0.84357  1.0000
  H   H4        1.0  0.75001  0.86880  0.34357  1.0000
  H   H5        1.0  0.10481  0.15797  0.55402  1.0000
  H   H6        1.0  0.89519  0.34204  0.05402  1.0000
  H   H7        1.0  0.39520  0.65796  0.94598  1.0000
  H   H8        1.0  0.60481  0.84203  0.44598  1.0000
  H   H9        1.0  0.89519  0.84204  0.44598  1.0000
  H   H10       1.0  0.10481  0.65796  0.94598  1.0000
  H   H11       1.0  0.60480  0.34204  0.05403  1.0000
  H   H12       1.0  0.39520  0.15797  0.55402  1.0000
  C   C1        1.0  0.12570  0.55419  0.34298  1.0000
  C   C2        1.0  0.87427  0.94582  0.84298  1.0000
  C   C3        1.0  0.37428  0.05419  0.15701  1.0000
  C   C4        1.0  0.62574  0.44582  0.65701  1.0000
  C   C5        1.0  0.87429  0.44581  0.65702  1.0000
  C   C6        1.0  0.12573  0.05419  0.15702  1.0000
  C   C7        1.0  0.62572  0.94581  0.84298  1.0000
  C   C8        1.0  0.37426  0.55418  0.34299  1.0000
  C   C9        1.0  0.25000  0.92636  0.57125  1.0000
  C   C10       1.0  0.75000  0.57365  0.07125  1.0000
  C   C11       1.0  0.25000  0.42635  0.92875  1.0000
  C   C12       1.0  0.75000  0.07365  0.42875  1.0000
  C   C13       1.0  0.25000  0.10365  0.58468  1.0000
  C   C14       1.0  0.75000  0.39636  0.08468  1.0000
  C   C15       1.0  0.25000  0.60364  0.91532  1.0000
  C   C16       1.0  0.75000  0.89636  0.41532  1.0000
  N   N1        1.0  0.25001  0.78376  0.55934  1.0000
  N   N2        1.0  0.75000  0.71624  0.05934  1.0000
  N   N3        1.0  0.25000  0.28375  0.94066  1.0000
  N   N4        1.0  0.75000  0.21624  0.44066  1.0000
  O   O1        1.0  0.05508  0.56225  0.26102  1.0000
  O   O2        1.0  0.94492  0.93776  0.76102  1.0000
  O   O3        1.0  0.44492  0.06225  0.23898  1.0000
  O   O4        1.0  0.55509  0.43775  0.73898  1.0000
  O   O5        1.0  0.94492  0.43775  0.73899  1.0000
  O   O6        1.0  0.05508  0.06225  0.23898  1.0000
  O   O7        1.0  0.55508  0.93775  0.76102  1.0000
  O   O8        1.0  0.44491  0.56224  0.26102  1.0000
  O   O9        1.0  0.01898  0.54685  0.41232  1.0000
  O   O10       1.0  0.98099  0.95316  0.91232  1.0000
  O   O11       1.0  0.48099  0.04684  0.08768  1.0000
  O   O12       1.0  0.51903  0.45317  0.58767  1.0000
  O   O13       1.0  0.98102  0.45315  0.58768  1.0000
  O   O14       1.0  0.01901  0.04684  0.08767  1.0000
  O   O15       1.0  0.51900  0.95316  0.91232  1.0000
  O   O16       1.0  0.48097  0.54683  0.41233  1.0000
  F   F1        1.0  0.25000  0.71063  0.14808  1.0000
  F   F2        1.0  0.75000  0.78937  0.64808  1.0000
  F   F3        1.0  0.25000  0.21063  0.35192  1.0000
  F   F4        1.0  0.75000  0.28937  0.85192  1.0000
  F   F5        1.0  0.25000  0.42441  0.14486  1.0000
  F   F6        1.0  0.75000  0.07559  0.64485  1.0000
  F   F7        1.0  0.25000  0.92441  0.35514  1.0000
  F   F8        1.0  0.75000  0.57559  0.85514  1.0000
