data_image0
_chemical_formula_structural       H12Pb2C22I4N4O2
_chemical_formula_sum              "H12 Pb2 C22 I4 N4 O2"
_cell_length_a       8.12434
_cell_length_b       9.58462
_cell_length_c       9.5843
_cell_angle_alpha    112.738
_cell_angle_beta     94.4623
_cell_angle_gamma    94.4482

_space_group_name_H-M_alt    "P 1"
_space_group_IT_number       1

loop_
  _space_group_symop_operation_xyz
  'x, y, z'

loop_
  _atom_site_type_symbol
  _atom_site_label
  _atom_site_symmetry_multiplicity
  _atom_site_fract_x
  _atom_site_fract_y
  _atom_site_fract_z
  _atom_site_occupancy
  H   H1        1.0  0.12618  0.59077  0.89653  1.0000
  H   H2        1.0  0.62614  0.89652  0.59068  1.0000
  H   H3        1.0  0.00356  0.42046  0.01185  1.0000
  H   H4        1.0  0.50353  0.01195  0.42039  1.0000
  H   H5        1.0  0.18063  0.36021  0.20493  1.0000
  H   H6        1.0  0.68061  0.20501  0.36016  1.0000
  H   H7        1.0  0.89891  0.57353  0.41749  1.0000
  H   H8        1.0  0.39886  0.41751  0.57367  1.0000
  H   H9        1.0  0.07526  0.76650  0.35673  1.0000
  H   H10       1.0  0.57516  0.35671  0.76671  1.0000
  H   H11       1.0  0.95189  0.88186  0.18668  1.0000
  H   H12       1.0  0.45185  0.18657  0.88190  1.0000
  Pb  Pb1       1.0  0.53867  0.83676  0.94027  1.0000
  Pb  Pb2       1.0  0.03856  0.94018  0.83663  1.0000
  C   C1        1.0  0.20165  0.56421  0.98036  1.0000
  C   C2        1.0  0.70161  0.98045  0.56420  1.0000
  C   C3        1.0  0.13361  0.46846  0.04510  1.0000
  C   C4        1.0  0.63359  0.04521  0.46842  1.0000
  C   C5        1.0  0.23155  0.43376  0.15214  1.0000
  C   C6        1.0  0.73154  0.15226  0.43376  1.0000
  C   C7        1.0  0.39583  0.49969  0.18879  1.0000
  C   C8        1.0  0.89580  0.18884  0.49968  1.0000
  C   C9        1.0  0.45203  0.59771  0.12037  1.0000
  C   C10       1.0  0.95202  0.12038  0.59766  1.0000
  C   C11       1.0  0.62666  0.65724  0.17983  1.0000
  C   C12       1.0  0.12666  0.17983  0.65725  1.0000
  C   C13       1.0  0.68320  0.58903  0.27802  1.0000
  C   C14       1.0  0.18317  0.27800  0.58907  1.0000
  C   C15       1.0  0.84757  0.62603  0.34382  1.0000
  C   C16       1.0  0.34752  0.34376  0.62609  1.0000
  C   C17       1.0  0.94512  0.73314  0.30893  1.0000
  C   C18       1.0  0.44509  0.30882  0.73320  1.0000
  C   C19       1.0  0.87667  0.79775  0.21317  1.0000
  C   C20       1.0  0.37667  0.21306  0.79777  1.0000
  C   C21       1.0  0.53953  0.48712  0.29079  1.0000
  C   C22       1.0  0.03950  0.29077  0.48714  1.0000
  I   I1        1.0  0.27878  0.03189  0.15104  1.0000
  I   I2        1.0  0.77890  0.15126  0.03192  1.0000
  I   I3        1.0  0.79986  0.62566  0.74589  1.0000
  I   I4        1.0  0.29999  0.74588  0.62574  1.0000
  N   N1        1.0  0.36112  0.62998  0.01754  1.0000
  N   N2        1.0  0.86116  0.01755  0.62992  1.0000
  N   N3        1.0  0.71713  0.76022  0.14747  1.0000
  N   N4        1.0  0.21712  0.14741  0.76019  1.0000
  O   O1        1.0  0.53942  0.41054  0.36744  1.0000
  O   O2        1.0  0.03939  0.36749  0.41060  1.0000
