data_image0
_chemical_formula_structural       Zn2H26C32N4O8F6
_chemical_formula_sum              "Zn2 H26 C32 N4 O8 F6"
_cell_length_a       8.38183
_cell_length_b       9.77714
_cell_length_c       10.7699
_cell_angle_alpha    98.999
_cell_angle_beta     98.7244
_cell_angle_gamma    105.406

_space_group_name_H-M_alt    "P 1"
_space_group_IT_number       1

loop_
  _space_group_symop_operation_xyz
  'x, y, z'

loop_
  _atom_site_type_symbol
  _atom_site_label
  _atom_site_symmetry_multiplicity
  _atom_site_fract_x
  _atom_site_fract_y
  _atom_site_fract_z
  _atom_site_occupancy
  Zn  Zn1       1.0  0.67675  0.43741  0.60896  1.0000
  Zn  Zn2       1.0  0.32325  0.56259  0.39104  1.0000
  H   H1        1.0  0.45064  0.42586  0.80580  1.0000
  H   H2        1.0  0.54936  0.57414  0.19420  1.0000
  H   H3        1.0  0.37565  0.60279  0.96318  1.0000
  H   H4        1.0  0.62435  0.39721  0.03682  1.0000
  H   H5        1.0  0.79661  0.93510  0.90320  1.0000
  H   H6        1.0  0.20339  0.06490  0.09680  1.0000
  H   H7        1.0  0.85313  0.74491  0.75072  1.0000
  H   H8        1.0  0.14687  0.25509  0.24928  1.0000
  H   H9        1.0  0.89212  0.43769  0.41013  1.0000
  H   H10       1.0  0.10788  0.56230  0.58986  1.0000
  H   H11       1.0  0.87065  0.29924  0.19421  1.0000
  H   H12       1.0  0.12935  0.70076  0.80579  1.0000
  H   H13       1.0  0.46651  0.95986  0.26919  1.0000
  H   H14       1.0  0.53349  0.04014  0.73081  1.0000
  H   H15       1.0  0.50496  0.11660  0.48297  1.0000
  H   H16       1.0  0.49504  0.88340  0.51703  1.0000
  H   H17       1.0  0.45046  0.84563  0.09201  1.0000
  H   H18       1.0  0.54954  0.15437  0.90799  1.0000
  H   H19       1.0  0.74192  0.07523  0.03292  1.0000
  H   H20       1.0  0.25807  0.92476  0.96708  1.0000
  H   H21       1.0  0.87627  0.91215  0.54345  1.0000
  H   H22       1.0  0.12373  0.08785  0.45655  1.0000
  H   H23       1.0  0.81602  0.86758  0.37334  1.0000
  H   H24       1.0  0.18398  0.13242  0.62666  1.0000
  H   H25       1.0  0.98107  0.80740  0.45531  1.0000
  H   H26       1.0  0.01893  0.19260  0.54469  1.0000
  C   C1        1.0  0.52404  0.53990  0.83160  1.0000
  C   C2        1.0  0.47596  0.46010  0.16840  1.0000
  C   C3        1.0  0.48357  0.63908  0.91884  1.0000
  C   C4        1.0  0.51643  0.36092  0.08116  1.0000
  C   C5        1.0  0.57666  0.78612  0.94496  1.0000
  C   C6        1.0  0.42333  0.21388  0.05504  1.0000
  C   C7        1.0  0.71592  0.82381  0.88666  1.0000
  C   C8        1.0  0.28408  0.17619  0.11334  1.0000
  C   C9        1.0  0.74902  0.71816  0.80080  1.0000
  C   C10       1.0  0.25098  0.28184  0.19920  1.0000
  C   C11       1.0  0.80086  0.33080  0.37641  1.0000
  C   C12       1.0  0.19914  0.66920  0.62359  1.0000
  C   C13       1.0  0.78765  0.25141  0.25463  1.0000
  C   C14       1.0  0.21235  0.74859  0.74537  1.0000
  C   C15       1.0  0.66164  0.11815  0.20877  1.0000
  C   C16       1.0  0.33835  0.88185  0.79123  1.0000
  C   C17       1.0  0.56369  0.06471  0.29522  1.0000
  C   C18       1.0  0.43630  0.93528  0.70478  1.0000
  C   C19       1.0  0.58481  0.15078  0.41578  1.0000
  C   C20       1.0  0.41519  0.84922  0.58422  1.0000
  C   C21       1.0  0.51041  0.89370  0.01891  1.0000
  C   C22       1.0  0.48959  0.10630  0.98109  1.0000
  C   C23       1.0  0.62382  0.05165  0.06845  1.0000
  C   C24       1.0  0.37618  0.94835  0.93155  1.0000
  C   C25       1.0  0.85812  0.33037  0.77743  1.0000
  C   C26       1.0  0.14188  0.66963  0.22257  1.0000
  C   C27       1.0  0.99077  0.29001  0.87048  1.0000
  C   C28       1.0  0.00923  0.70999  0.12952  1.0000
  C   C29       1.0  0.72869  0.69219  0.47030  1.0000
  C   C30       1.0  0.27131  0.30781  0.52970  1.0000
  C   C31       1.0  0.85900  0.82750  0.45790  1.0000
  C   C32       1.0  0.14101  0.17251  0.54210  1.0000
  N   N1        1.0  0.65207  0.57904  0.77023  1.0000
  N   N2        1.0  0.34793  0.42096  0.22977  1.0000
  N   N3        1.0  0.69672  0.28410  0.45473  1.0000
  N   N4        1.0  0.30328  0.71589  0.54527  1.0000
  O   O1        1.0  0.91451  0.42848  0.71764  1.0000
  O   O2        1.0  0.08549  0.57151  0.28236  1.0000
  O   O3        1.0  0.70719  0.26162  0.77197  1.0000
  O   O4        1.0  0.29281  0.73837  0.22803  1.0000
  O   O5        1.0  0.78387  0.60813  0.53280  1.0000
  O   O6        1.0  0.21614  0.39187  0.46720  1.0000
  O   O7        1.0  0.57593  0.67532  0.42064  1.0000
  O   O8        1.0  0.42408  0.32468  0.57936  1.0000
  F   F1        1.0  0.97540  0.14468  0.83951  1.0000
  F   F2        1.0  0.02461  0.85532  0.16049  1.0000
  F   F3        1.0  0.96597  0.31777  0.99370  1.0000
  F   F4        1.0  0.03403  0.68224  0.00631  1.0000
  F   F5        1.0  0.15369  0.36264  0.87220  1.0000
  F   F6        1.0  0.84631  0.63736  0.12780  1.0000
