data_image0
_chemical_formula_structural       Cd4H76C28N12
_chemical_formula_sum              "Cd4 H76 C28 N12"
_cell_length_a       7.2411
_cell_length_b       11.2183
_cell_length_c       12.8835
_cell_angle_alpha    78.6805
_cell_angle_beta     84.5072
_cell_angle_gamma    88.4621

_space_group_name_H-M_alt    "P 1"
_space_group_IT_number       1

loop_
  _space_group_symop_operation_xyz
  'x, y, z'

loop_
  _atom_site_type_symbol
  _atom_site_label
  _atom_site_symmetry_multiplicity
  _atom_site_fract_x
  _atom_site_fract_y
  _atom_site_fract_z
  _atom_site_occupancy
  Cd  Cd1       1.0  0.35486  0.47877  0.25584  1.0000
  Cd  Cd2       1.0  0.64515  0.52123  0.74416  1.0000
  Cd  Cd3       1.0  0.86654  0.90746  0.25661  1.0000
  Cd  Cd4       1.0  0.13346  0.09254  0.74339  1.0000
  H   H1        1.0  0.12129  0.13503  0.17246  1.0000
  H   H2        1.0  0.87871  0.86497  0.82753  1.0000
  H   H3        1.0  0.95628  0.13989  0.09170  1.0000
  H   H4        1.0  0.04372  0.86011  0.90830  1.0000
  H   H5        1.0  0.45207  0.31796  0.09443  1.0000
  H   H6        1.0  0.54793  0.68204  0.90557  1.0000
  H   H7        1.0  0.61923  0.28354  0.17420  1.0000
  H   H8        1.0  0.38077  0.71646  0.82580  1.0000
  H   H9        1.0  0.49153  0.37947  0.44837  1.0000
  H   H10       1.0  0.50848  0.62053  0.55163  1.0000
  H   H11       1.0  0.25031  0.35025  0.45459  1.0000
  H   H12       1.0  0.74970  0.64975  0.54540  1.0000
  H   H13       1.0  0.32827  0.49544  0.46674  1.0000
  H   H14       1.0  0.67174  0.50456  0.53326  1.0000
  H   H15       1.0  0.30465  0.68006  0.09687  1.0000
  H   H16       1.0  0.69534  0.31994  0.90313  1.0000
  H   H17       1.0  0.35295  0.55094  0.03631  1.0000
  H   H18       1.0  0.64705  0.44906  0.96368  1.0000
  H   H19       1.0  0.53649  0.62524  0.08064  1.0000
  H   H20       1.0  0.46351  0.37477  0.91936  1.0000
  H   H21       1.0  0.79203  0.97371  0.45068  1.0000
  H   H22       1.0  0.20797  0.02629  0.54932  1.0000
  H   H23       1.0  0.01245  0.90151  0.44980  1.0000
  H   H24       1.0  0.98755  0.09849  0.55020  1.0000
  H   H25       1.0  0.80783  0.81274  0.46845  1.0000
  H   H26       1.0  0.19217  0.18726  0.53155  1.0000
  H   H27       1.0  0.04652  0.82941  0.08254  1.0000
  H   H28       1.0  0.95348  0.17059  0.91746  1.0000
  H   H29       1.0  0.86571  0.93268  0.03806  1.0000
  H   H30       1.0  0.13429  0.06731  0.96194  1.0000
  H   H31       1.0  0.81281  0.77868  0.09888  1.0000
  H   H32       1.0  0.18719  0.22132  0.90113  1.0000
  H   H33       1.0  0.99118  0.65558  0.25314  1.0000
  H   H34       1.0  0.00882  0.34442  0.74686  1.0000
  H   H35       1.0  0.97160  0.57406  0.38750  1.0000
  H   H36       1.0  0.02840  0.42594  0.61250  1.0000
  H   H37       1.0  0.77314  0.59299  0.31371  1.0000
  H   H38       1.0  0.22686  0.40701  0.68629  1.0000
  H   H39       1.0  0.73974  0.36893  0.34885  1.0000
  H   H40       1.0  0.26026  0.63107  0.65115  1.0000
  H   H41       1.0  0.93564  0.35762  0.42427  1.0000
  H   H42       1.0  0.06436  0.64238  0.57573  1.0000
  H   H43       1.0  0.10453  0.22976  0.31323  1.0000
  H   H44       1.0  0.89546  0.77024  0.68677  1.0000
  H   H45       1.0  0.88420  0.16470  0.36101  1.0000
  H   H46       1.0  0.11580  0.83530  0.63899  1.0000
  H   H47       1.0  0.94396  0.35356  0.04751  1.0000
  H   H48       1.0  0.05604  0.64644  0.95249  1.0000
  H   H49       1.0  0.14200  0.34746  0.12133  1.0000
  H   H50       1.0  0.85800  0.65254  0.87867  1.0000
  H   H51       1.0  0.99023  0.54769  0.11074  1.0000
  H   H52       1.0  0.00976  0.45231  0.88926  1.0000
  H   H53       1.0  0.77198  0.48027  0.16225  1.0000
  H   H54       1.0  0.22802  0.51974  0.83775  1.0000
  H   H55       1.0  0.28736  0.76833  0.31368  1.0000
  H   H56       1.0  0.71264  0.23167  0.68632  1.0000
  H   H57       1.0  0.49020  0.74687  0.38502  1.0000
  H   H58       1.0  0.50979  0.25313  0.61498  1.0000
  H   H59       1.0  0.50400  0.72856  0.25014  1.0000
  H   H60       1.0  0.49600  0.27144  0.74986  1.0000
  H   H61       1.0  0.28216  0.94912  0.16235  1.0000
  H   H62       1.0  0.71784  0.05088  0.83765  1.0000
  H   H63       1.0  0.50261  0.90146  0.11028  1.0000
  H   H64       1.0  0.49739  0.09854  0.88972  1.0000
  H   H65       1.0  0.64723  0.09338  0.12206  1.0000
  H   H66       1.0  0.35278  0.90662  0.87794  1.0000
  H   H67       1.0  0.44824  0.12518  0.04891  1.0000
  H   H68       1.0  0.55176  0.87482  0.95109  1.0000
  H   H69       1.0  0.60838  0.12406  0.31445  1.0000
  H   H70       1.0  0.39162  0.87594  0.68555  1.0000
  H   H71       1.0  0.38455  0.17078  0.36344  1.0000
  H   H72       1.0  0.61545  0.82922  0.63656  1.0000
  H   H73       1.0  0.44689  0.94814  0.42452  1.0000
  H   H74       1.0  0.55311  0.05186  0.57548  1.0000
  H   H75       1.0  0.24889  0.97597  0.35081  1.0000
  H   H76       1.0  0.75111  0.02403  0.64919  1.0000
  C   C1        1.0  0.35765  0.41911  0.42565  1.0000
  C   C2        1.0  0.64235  0.58089  0.57434  1.0000
  C   C3        1.0  0.39043  0.59728  0.09894  1.0000
  C   C4        1.0  0.60956  0.40272  0.90106  1.0000
  C   C5        1.0  0.87200  0.89806  0.42548  1.0000
  C   C6        1.0  0.12800  0.10194  0.57452  1.0000
  C   C7        1.0  0.90145  0.85631  0.10071  1.0000
  C   C8        1.0  0.09855  0.14369  0.89929  1.0000
  C   C9        1.0  0.92526  0.57789  0.30823  1.0000
  C   C10       1.0  0.07474  0.42211  0.69177  1.0000
  C   C11       1.0  0.89292  0.36007  0.34431  1.0000
  C   C12       1.0  0.10708  0.63993  0.65569  1.0000
  C   C13       1.0  0.95334  0.24309  0.30852  1.0000
  C   C14       1.0  0.04666  0.75691  0.69148  1.0000
  C   C15       1.0  0.98862  0.35305  0.12682  1.0000
  C   C16       1.0  0.01138  0.64695  0.87318  1.0000
  C   C17       1.0  0.92452  0.46882  0.16433  1.0000
  C   C18       1.0  0.07548  0.53118  0.83567  1.0000
  C   C19       1.0  0.43947  0.78189  0.30705  1.0000
  C   C20       1.0  0.56053  0.21811  0.69295  1.0000
  C   C21       1.0  0.43435  0.95685  0.16445  1.0000
  C   C22       1.0  0.56565  0.04315  0.83555  1.0000
  C   C23       1.0  0.49393  0.08838  0.12799  1.0000
  C   C24       1.0  0.50607  0.91162  0.87201  1.0000
  C   C25       1.0  0.45726  0.11574  0.31025  1.0000
  C   C26       1.0  0.54274  0.88426  0.68975  1.0000
  C   C27       1.0  0.40183  0.98354  0.34516  1.0000
  C   C28       1.0  0.59817  0.01646  0.65484  1.0000
  N   N1        1.0  0.97822  0.46557  0.27152  1.0000
  N   N2        1.0  0.02178  0.53443  0.72848  1.0000
  N   N3        1.0  0.90666  0.24609  0.19974  1.0000
  N   N4        1.0  0.09333  0.75391  0.80026  1.0000
  N   N5        1.0  0.97810  0.13510  0.16988  1.0000
  N   N6        1.0  0.02189  0.86490  0.83012  1.0000
  N   N7        1.0  0.48902  0.90974  0.27138  1.0000
  N   N8        1.0  0.51098  0.09026  0.72862  1.0000
  N   N9        1.0  0.40920  0.16341  0.20173  1.0000
  N   N10       1.0  0.59080  0.83659  0.79827  1.0000
  N   N11       1.0  0.47564  0.28667  0.17236  1.0000
  N   N12       1.0  0.52436  0.71333  0.82764  1.0000
