data_image0
_chemical_formula_structural       Cu2H20C18N2O8
_chemical_formula_sum              "Cu2 H20 C18 N2 O8"
_cell_length_a       7.23738
_cell_length_b       8.0212
_cell_length_c       10.9821
_cell_angle_alpha    77.8445
_cell_angle_beta     81.2721
_cell_angle_gamma    65.8214

_space_group_name_H-M_alt    "P 1"
_space_group_IT_number       1

loop_
  _space_group_symop_operation_xyz
  'x, y, z'

loop_
  _atom_site_type_symbol
  _atom_site_label
  _atom_site_symmetry_multiplicity
  _atom_site_fract_x
  _atom_site_fract_y
  _atom_site_fract_z
  _atom_site_occupancy
  Cu  Cu1       1.0  0.97723  0.43800  0.41298  1.0000
  Cu  Cu2       1.0  0.13986  0.43389  0.60711  1.0000
  H   H1        1.0  0.76999  0.28160  0.84785  1.0000
  H   H2        1.0  0.34779  0.54020  0.18933  1.0000
  H   H3        1.0  0.49301  0.75034  0.75290  1.0000
  H   H4        1.0  0.38909  0.76817  0.60947  1.0000
  H   H5        1.0  0.49943  0.92412  0.62493  1.0000
  H   H6        1.0  0.57064  0.29144  0.67893  1.0000
  H   H7        1.0  0.54559  0.53675  0.35645  1.0000
  H   H8        1.0  0.91668  0.34736  0.96327  1.0000
  H   H9        1.0  0.08835  0.34166  0.14494  1.0000
  H   H10       1.0  0.02866  0.60076  0.85355  1.0000
  H   H11       1.0  0.20049  0.61491  0.02887  1.0000
  H   H12       1.0  0.72884  0.09179  0.41939  1.0000
  H   H13       1.0  0.62817  0.11170  0.27409  1.0000
  H   H14       1.0  0.61313  0.94050  0.40154  1.0000
  H   H15       1.0  0.26370  0.92209  0.37822  1.0000
  H   H16       1.0  0.02954  0.00819  0.30839  1.0000
  H   H17       1.0  0.25274  0.86253  0.23167  1.0000
  H   H18       1.0  0.98724  0.94093  0.78549  1.0000
  H   H19       1.0  0.03895  0.86525  0.63695  1.0000
  H   H20       1.0  0.78857  0.00435  0.68337  1.0000
  C   C1        1.0  0.61401  0.44562  0.05887  1.0000
  C   C2        1.0  0.50316  0.44574  0.95616  1.0000
  C   C3        1.0  0.60557  0.35399  0.85510  1.0000
  C   C4        1.0  0.51129  0.50001  0.17203  1.0000
  C   C5        1.0  0.51045  0.78049  0.65087  1.0000
  C   C6        1.0  0.49607  0.35696  0.76048  1.0000
  C   C7        1.0  0.62044  0.49676  0.26703  1.0000
  C   C8        1.0  0.98785  0.14989  0.62561  1.0000
  C   C9        1.0  0.71462  0.65176  0.60202  1.0000
  C   C10       1.0  0.82632  0.38918  0.04862  1.0000
  C   C11       1.0  0.92355  0.38789  0.14897  1.0000
  C   C12       1.0  0.19315  0.53126  0.85731  1.0000
  C   C13       1.0  0.29084  0.53760  0.95502  1.0000
  C   C14       1.0  0.60728  0.08260  0.37609  1.0000
  C   C15       1.0  0.40387  0.21591  0.42215  1.0000
  C   C16       1.0  0.17355  0.88836  0.32348  1.0000
  C   C17       1.0  0.94809  0.97988  0.68826  1.0000
  C   C18       1.0  0.12993  0.72162  0.39004  1.0000
  N   N1        1.0  0.29286  0.44216  0.76140  1.0000
  N   N2        1.0  0.82339  0.44123  0.25662  1.0000
  O   O1        1.0  0.25526  0.26839  0.35452  1.0000
  O   O2        1.0  0.86346  0.59666  0.67005  1.0000
  O   O3        1.0  0.72320  0.60988  0.49490  1.0000
  O   O4        1.0  0.39573  0.26420  0.52714  1.0000
  O   O5        1.0  0.93095  0.21779  0.51521  1.0000
  O   O6        1.0  0.17939  0.65896  0.50231  1.0000
  O   O7        1.0  0.04711  0.65566  0.32851  1.0000
  O   O8        1.0  0.07525  0.21166  0.68707  1.0000
