data_image0
_chemical_formula_structural       Cu4H28C28N4Cl4O4
_chemical_formula_sum              "Cu4 H28 C28 N4 Cl4 O4"
_cell_length_a       3.74352
_cell_length_b       12.9712
_cell_length_c       15.7461
_cell_angle_alpha    89.9997
_cell_angle_beta     89.9999
_cell_angle_gamma    98.4816

_space_group_name_H-M_alt    "P 1"
_space_group_IT_number       1

loop_
  _space_group_symop_operation_xyz
  'x, y, z'

loop_
  _atom_site_type_symbol
  _atom_site_label
  _atom_site_symmetry_multiplicity
  _atom_site_fract_x
  _atom_site_fract_y
  _atom_site_fract_z
  _atom_site_occupancy
  Cu  Cu1       1.0  0.75478  0.50453  0.56089  1.0000
  Cu  Cu2       1.0  0.74522  0.99547  0.06089  1.0000
  Cu  Cu3       1.0  0.24521  0.49547  0.43911  1.0000
  Cu  Cu4       1.0  0.25477  0.00453  0.93911  1.0000
  H   H1        1.0  0.34496  0.58255  0.01339  1.0000
  H   H2        1.0  0.15505  0.91745  0.51338  1.0000
  H   H3        1.0  0.65504  0.41744  0.98662  1.0000
  H   H4        1.0  0.84498  0.08256  0.48661  1.0000
  H   H5        1.0  0.96649  0.64148  0.97912  1.0000
  H   H6        1.0  0.53353  0.85852  0.47911  1.0000
  H   H7        1.0  0.03352  0.35852  0.02089  1.0000
  H   H8        1.0  0.46650  0.14148  0.52088  1.0000
  H   H9        1.0  0.40449  0.70487  0.95748  1.0000
  H   H10       1.0  0.09553  0.79512  0.45749  1.0000
  H   H11       1.0  0.59552  0.29512  0.04252  1.0000
  H   H12       1.0  0.90450  0.20488  0.54251  1.0000
  H   H13       1.0  0.03379  0.47708  0.73109  1.0000
  H   H14       1.0  0.46620  0.02292  0.23109  1.0000
  H   H15       1.0  0.96619  0.52292  0.26891  1.0000
  H   H16       1.0  0.53380  0.97708  0.76891  1.0000
  H   H17       1.0  0.15576  0.77878  0.85233  1.0000
  H   H18       1.0  0.34421  0.72122  0.35233  1.0000
  H   H19       1.0  0.84422  0.22121  0.14767  1.0000
  H   H20       1.0  0.65581  0.27879  0.64767  1.0000
  H   H21       1.0  0.94013  0.85058  0.71638  1.0000
  H   H22       1.0  0.55987  0.64942  0.21637  1.0000
  H   H23       1.0  0.05988  0.14943  0.28363  1.0000
  H   H24       1.0  0.44014  0.35057  0.78363  1.0000
  H   H25       1.0  0.77324  0.72964  0.59529  1.0000
  H   H26       1.0  0.72676  0.77037  0.09529  1.0000
  H   H27       1.0  0.22675  0.27037  0.40471  1.0000
  H   H28       1.0  0.27323  0.22963  0.90471  1.0000
  C   C1        1.0  0.23556  0.57023  0.87968  1.0000
  C   C2        1.0  0.26443  0.92977  0.37968  1.0000
  C   C3        1.0  0.76442  0.42977  0.12032  1.0000
  C   C4        1.0  0.73558  0.07024  0.62031  1.0000
  C   C5        1.0  0.24024  0.62733  0.96259  1.0000
  C   C6        1.0  0.25977  0.87266  0.46259  1.0000
  C   C7        1.0  0.75976  0.37266  0.03741  1.0000
  C   C8        1.0  0.74026  0.12734  0.53741  1.0000
  C   C9        1.0  0.01480  0.56011  0.73031  1.0000
  C   C10       1.0  0.48519  0.93989  0.23031  1.0000
  C   C11       1.0  0.98518  0.43989  0.26969  1.0000
  C   C12       1.0  0.51482  0.06011  0.76968  1.0000
  C   C13       1.0  0.11098  0.62132  0.80220  1.0000
  C   C14       1.0  0.38900  0.87868  0.30220  1.0000
  C   C15       1.0  0.88899  0.37868  0.19780  1.0000
  C   C16       1.0  0.61101  0.12132  0.69779  1.0000
  C   C17       1.0  0.08277  0.72773  0.79825  1.0000
  C   C18       1.0  0.41722  0.77227  0.29824  1.0000
  C   C19       1.0  0.91722  0.27227  0.20176  1.0000
  C   C20       1.0  0.58280  0.22773  0.70175  1.0000
  C   C21       1.0  0.96372  0.76827  0.72312  1.0000
  C   C22       1.0  0.53627  0.73173  0.22312  1.0000
  C   C23       1.0  0.03627  0.23173  0.27688  1.0000
  C   C24       1.0  0.46373  0.26827  0.77688  1.0000
  C   C25       1.0  0.87068  0.70161  0.65504  1.0000
  C   C26       1.0  0.62932  0.79840  0.15504  1.0000
  C   C27       1.0  0.12932  0.29840  0.34496  1.0000
  C   C28       1.0  0.37067  0.20160  0.84496  1.0000
  N   N1        1.0  0.89303  0.59837  0.65825  1.0000
  N   N2        1.0  0.60697  0.90164  0.15824  1.0000
  N   N3        1.0  0.10696  0.40164  0.34176  1.0000
  N   N4        1.0  0.39304  0.09836  0.84175  1.0000
  Cl  Cl1       1.0  0.78273  0.60995  0.43615  1.0000
  Cl  Cl2       1.0  0.71726  0.89005  0.93615  1.0000
  Cl  Cl3       1.0  0.21727  0.39006  0.56385  1.0000
  Cl  Cl4       1.0  0.28273  0.10995  0.06385  1.0000
  O   O1        1.0  0.32932  0.48293  0.87425  1.0000
  O   O2        1.0  0.17068  0.01705  0.37425  1.0000
  O   O3        1.0  0.67066  0.51705  0.12575  1.0000
  O   O4        1.0  0.82932  0.98294  0.62575  1.0000
