data_image0
_chemical_formula_structural       Sn4H68C48Cl4O12
_chemical_formula_sum              "Sn4 H68 C48 Cl4 O12"
_cell_length_a       9.78645
_cell_length_b       12.0824
_cell_length_c       12.6381
_cell_angle_alpha    110.487
_cell_angle_beta     89.9998
_cell_angle_gamma    90.0009

_space_group_name_H-M_alt    "P 1"
_space_group_IT_number       1

loop_
  _space_group_symop_operation_xyz
  'x, y, z'

loop_
  _atom_site_type_symbol
  _atom_site_label
  _atom_site_symmetry_multiplicity
  _atom_site_fract_x
  _atom_site_fract_y
  _atom_site_fract_z
  _atom_site_occupancy
  Sn  Sn1       1.0  0.35268  0.27868  0.45421  1.0000
  Sn  Sn2       1.0  0.85268  0.22132  0.54579  1.0000
  Sn  Sn3       1.0  0.64732  0.72132  0.54579  1.0000
  Sn  Sn4       1.0  0.14731  0.77869  0.45422  1.0000
  H   H1        1.0  0.40610  0.07621  0.49486  1.0000
  H   H2        1.0  0.90611  0.42379  0.50516  1.0000
  H   H3        1.0  0.59392  0.92379  0.50515  1.0000
  H   H4        1.0  0.09389  0.57621  0.49485  1.0000
  H   H5        1.0  0.41087  0.04619  0.34578  1.0000
  H   H6        1.0  0.91089  0.45379  0.65423  1.0000
  H   H7        1.0  0.58913  0.95380  0.65423  1.0000
  H   H8        1.0  0.08911  0.54621  0.34577  1.0000
  H   H9        1.0  0.25032  0.06003  0.41618  1.0000
  H   H10       1.0  0.75034  0.43997  0.58383  1.0000
  H   H11       1.0  0.74969  0.93997  0.58383  1.0000
  H   H12       1.0  0.24967  0.56005  0.41617  1.0000
  H   H13       1.0  0.97108  0.36908  0.22726  1.0000
  H   H14       1.0  0.47108  0.13092  0.77272  1.0000
  H   H15       1.0  0.02893  0.63091  0.77273  1.0000
  H   H16       1.0  0.52892  0.86909  0.22727  1.0000
  H   H17       1.0  0.84233  0.32769  0.30648  1.0000
  H   H18       1.0  0.34232  0.17230  0.69350  1.0000
  H   H19       1.0  0.15768  0.67230  0.69351  1.0000
  H   H20       1.0  0.65768  0.82771  0.30649  1.0000
  H   H21       1.0  0.83446  0.27451  0.15616  1.0000
  H   H22       1.0  0.33446  0.22549  0.84382  1.0000
  H   H23       1.0  0.16554  0.72549  0.84383  1.0000
  H   H24       1.0  0.66554  0.77452  0.15617  1.0000
  H   H25       1.0  0.47854  0.45033  0.39849  1.0000
  H   H26       1.0  0.97853  0.04966  0.60150  1.0000
  H   H27       1.0  0.52147  0.54967  0.60151  1.0000
  H   H28       1.0  0.02146  0.95034  0.39849  1.0000
  H   H29       1.0  0.47593  0.31676  0.27751  1.0000
  H   H30       1.0  0.97593  0.18323  0.72248  1.0000
  H   H31       1.0  0.52408  0.68323  0.72248  1.0000
  H   H32       1.0  0.02407  0.81677  0.27752  1.0000
  H   H33       1.0  0.59813  0.33491  0.38779  1.0000
  H   H34       1.0  0.09813  0.16508  0.61221  1.0000
  H   H35       1.0  0.40187  0.66508  0.61222  1.0000
  H   H36       1.0  0.90186  0.83492  0.38779  1.0000
  H   H37       1.0  0.07571  0.98973  0.22329  1.0000
  H   H38       1.0  0.57572  0.51027  0.77671  1.0000
  H   H39       1.0  0.92429  0.01026  0.77670  1.0000
  H   H40       1.0  0.42428  0.48973  0.22328  1.0000
  H   H41       1.0  0.23452  0.82015  0.16464  1.0000
  H   H42       1.0  0.73453  0.67986  0.83537  1.0000
  H   H43       1.0  0.76547  0.17984  0.83536  1.0000
  H   H44       1.0  0.26548  0.32014  0.16462  1.0000
  H   H45       1.0  0.14759  0.42641  0.55849  1.0000
  H   H46       1.0  0.64759  0.07359  0.44150  1.0000
  H   H47       1.0  0.85241  0.57358  0.44152  1.0000
  H   H48       1.0  0.35241  0.92641  0.55849  1.0000
  H   H49       1.0  0.30440  0.47734  0.63299  1.0000
  H   H50       1.0  0.80439  0.02266  0.36700  1.0000
  H   H51       1.0  0.69560  0.52265  0.36700  1.0000
  H   H52       1.0  0.19561  0.97735  0.63301  1.0000
  H   H53       1.0  0.21230  0.35820  0.65238  1.0000
  H   H54       1.0  0.71230  0.14180  0.34762  1.0000
  H   H55       1.0  0.78771  0.64179  0.34762  1.0000
  H   H56       1.0  0.28769  0.85820  0.65238  1.0000
  H   H57       1.0  0.39025  0.78681  0.00119  1.0000
  H   H58       1.0  0.89026  0.71319  0.99882  1.0000
  H   H59       1.0  0.60974  0.21318  0.99880  1.0000
  H   H60       1.0  0.10975  0.28680  0.00117  1.0000
  H   H61       1.0  0.22604  0.09755  0.95239  1.0000
  H   H62       1.0  0.72604  0.40244  0.04760  1.0000
  H   H63       1.0  0.77396  0.90245  0.04760  1.0000
  H   H64       1.0  0.27396  0.59757  0.95240  1.0000
  H   H65       1.0  0.91835  0.11676  0.22380  1.0000
  H   H66       1.0  0.41835  0.38324  0.77618  1.0000
  H   H67       1.0  0.08165  0.88323  0.77619  1.0000
  H   H68       1.0  0.58165  0.61677  0.22382  1.0000
  C   C1        1.0  0.35572  0.09238  0.42431  1.0000
  C   C2        1.0  0.85573  0.40762  0.57570  1.0000
  C   C3        1.0  0.64429  0.90762  0.57570  1.0000
  C   C4        1.0  0.14427  0.59239  0.42430  1.0000
  C   C5        1.0  0.90361  0.29724  0.22895  1.0000
  C   C6        1.0  0.40361  0.20276  0.77104  1.0000
  C   C7        1.0  0.09640  0.70276  0.77106  1.0000
  C   C8        1.0  0.59639  0.79725  0.22896  1.0000
  C   C9        1.0  0.14086  0.05516  0.09145  1.0000
  C   C10       1.0  0.64086  0.44483  0.90855  1.0000
  C   C11       1.0  0.85914  0.94482  0.90855  1.0000
  C   C12       1.0  0.35914  0.55517  0.09146  1.0000
  C   C13       1.0  0.49368  0.35439  0.36867  1.0000
  C   C14       1.0  0.99368  0.14560  0.63132  1.0000
  C   C15       1.0  0.50632  0.64560  0.63133  1.0000
  C   C16       1.0  0.00631  0.85440  0.36868  1.0000
  C   C17       1.0  0.08218  0.21772  0.32620  1.0000
  C   C18       1.0  0.58218  0.28228  0.67379  1.0000
  C   C19       1.0  0.91781  0.78227  0.67380  1.0000
  C   C20       1.0  0.41782  0.71774  0.32622  1.0000
  C   C21       1.0  0.14192  0.97646  0.15068  1.0000
  C   C22       1.0  0.64193  0.52355  0.84933  1.0000
  C   C23       1.0  0.85807  0.02354  0.84933  1.0000
  C   C24       1.0  0.35808  0.47645  0.15068  1.0000
  C   C25       1.0  0.23076  0.87981  0.11690  1.0000
  C   C26       1.0  0.73078  0.62021  0.88312  1.0000
  C   C27       1.0  0.76923  0.12019  0.88310  1.0000
  C   C28       1.0  0.26924  0.37981  0.11689  1.0000
  C   C29       1.0  0.31321  0.93852  0.96614  1.0000
  C   C30       1.0  0.81321  0.56148  0.03385  1.0000
  C   C31       1.0  0.68679  0.06147  0.03384  1.0000
  C   C32       1.0  0.18678  0.43853  0.96614  1.0000
  C   C33       1.0  0.24049  0.39982  0.59130  1.0000
  C   C34       1.0  0.74049  0.10018  0.40869  1.0000
  C   C35       1.0  0.75951  0.60017  0.40870  1.0000
  C   C36       1.0  0.25951  0.89983  0.59131  1.0000
  C   C37       1.0  0.31795  0.85982  0.02485  1.0000
  C   C38       1.0  0.81796  0.64018  0.97515  1.0000
  C   C39       1.0  0.68203  0.14018  0.97514  1.0000
  C   C40       1.0  0.18205  0.35981  0.02485  1.0000
  C   C41       1.0  0.22622  0.03559  0.99747  1.0000
  C   C42       1.0  0.72622  0.46440  0.00253  1.0000
  C   C43       1.0  0.77377  0.96440  0.00253  1.0000
  C   C44       1.0  0.27378  0.53560  0.99748  1.0000
  C   C45       1.0  0.98681  0.18889  0.22314  1.0000
  C   C46       1.0  0.48681  0.31112  0.77686  1.0000
  C   C47       1.0  0.01319  0.81111  0.77686  1.0000
  C   C48       1.0  0.51319  0.68889  0.22315  1.0000
  Cl  Cl1       1.0  0.42220  0.91595  0.85197  1.0000
  Cl  Cl2       1.0  0.92220  0.58404  0.14803  1.0000
  Cl  Cl3       1.0  0.57780  0.08405  0.14803  1.0000
  Cl  Cl4       1.0  0.07781  0.41596  0.85197  1.0000
  O   O1        1.0  0.20135  0.25676  0.31615  1.0000
  O   O2        1.0  0.70136  0.24324  0.68385  1.0000
  O   O3        1.0  0.79864  0.74323  0.68385  1.0000
  O   O4        1.0  0.29864  0.75678  0.31617  1.0000
  O   O5        1.0  0.03986  0.20342  0.41485  1.0000
  O   O6        1.0  0.53987  0.29657  0.58515  1.0000
  O   O7        1.0  0.96013  0.79656  0.58515  1.0000
  O   O8        1.0  0.46014  0.70344  0.41486  1.0000
  O   O9        1.0  0.06110  0.15442  0.11890  1.0000
  O   O10       1.0  0.56109  0.34559  0.88108  1.0000
  O   O11       1.0  0.93891  0.84558  0.88110  1.0000
  O   O12       1.0  0.43890  0.65443  0.11892  1.0000
