data_image0
_chemical_formula_structural       Yb2H30C30N2O16
_chemical_formula_sum              "Yb2 H30 C30 N2 O16"
_cell_length_a       8.53581
_cell_length_b       10.2643
_cell_length_c       10.8672
_cell_angle_alpha    62.8751
_cell_angle_beta     70.5166
_cell_angle_gamma    82.6797

_space_group_name_H-M_alt    "P 1"
_space_group_IT_number       1

loop_
  _space_group_symop_operation_xyz
  'x, y, z'

loop_
  _atom_site_type_symbol
  _atom_site_label
  _atom_site_symmetry_multiplicity
  _atom_site_fract_x
  _atom_site_fract_y
  _atom_site_fract_z
  _atom_site_occupancy
  Yb  Yb1       1.0  0.36011  0.56418  0.33382  1.0000
  Yb  Yb2       1.0  0.63989  0.43583  0.66618  1.0000
  H   H1        1.0  0.75358  0.37261  0.02430  1.0000
  H   H2        1.0  0.24642  0.62738  0.97569  1.0000
  H   H3        1.0  0.04079  0.32819  0.89017  1.0000
  H   H4        1.0  0.95922  0.67180  0.10983  1.0000
  H   H5        1.0  0.29954  0.96408  0.89718  1.0000
  H   H6        1.0  0.70046  0.03592  0.10282  1.0000
  H   H7        1.0  0.14826  0.15668  0.73865  1.0000
  H   H8        1.0  0.85174  0.84332  0.26135  1.0000
  H   H9        1.0  0.53312  0.24959  0.29390  1.0000
  H   H10       1.0  0.46689  0.75041  0.70609  1.0000
  H   H11       1.0  0.48381  0.03052  0.26421  1.0000
  H   H12       1.0  0.51619  0.96948  0.73578  1.0000
  H   H13       1.0  0.35083  0.35040  0.16030  1.0000
  H   H14       1.0  0.64917  0.64960  0.83971  1.0000
  H   H15       1.0  0.28970  0.17737  0.11725  1.0000
  H   H16       1.0  0.71030  0.82263  0.88275  1.0000
  H   H17       1.0  0.07394  0.14517  0.15734  1.0000
  H   H18       1.0  0.92606  0.85483  0.84266  1.0000
  H   H19       1.0  0.18333  0.02394  0.27931  1.0000
  H   H20       1.0  0.81667  0.97606  0.72069  1.0000
  H   H21       1.0  0.99176  0.15205  0.50505  1.0000
  H   H22       1.0  0.00823  0.84795  0.49496  1.0000
  H   H23       1.0  0.89127  0.13422  0.39209  1.0000
  H   H24       1.0  0.10873  0.86578  0.60791  1.0000
  H   H25       1.0  0.91396  0.30906  0.38607  1.0000
  H   H26       1.0  0.08604  0.69094  0.61393  1.0000
  H   H27       1.0  0.24094  0.42703  0.64951  1.0000
  H   H28       1.0  0.75906  0.57297  0.35049  1.0000
  H   H29       1.0  0.08085  0.41420  0.60923  1.0000
  H   H30       1.0  0.91915  0.58580  0.39077  1.0000
  C   C1        1.0  0.67068  0.55361  0.15406  1.0000
  C   C2        1.0  0.32932  0.44639  0.84594  1.0000
  C   C3        1.0  0.84065  0.52428  0.07608  1.0000
  C   C4        1.0  0.15936  0.47571  0.92392  1.0000
  C   C5        1.0  0.86199  0.42718  0.01403  1.0000
  C   C6        1.0  0.13801  0.57281  0.98597  1.0000
  C   C7        1.0  0.02098  0.40388  0.93804  1.0000
  C   C8        1.0  0.97903  0.59612  0.06196  1.0000
  C   C9        1.0  0.17826  0.77370  0.17694  1.0000
  C   C10       1.0  0.82175  0.22630  0.82306  1.0000
  C   C11       1.0  0.08550  0.89206  0.08761  1.0000
  C   C12       1.0  0.91451  0.10794  0.91239  1.0000
  C   C13       1.0  0.16818  0.98083  0.94053  1.0000
  C   C14       1.0  0.83182  0.01917  0.05947  1.0000
  C   C15       1.0  0.08372  0.08777  0.85293  1.0000
  C   C16       1.0  0.91628  0.91223  0.14707  1.0000
  C   C17       1.0  0.54722  0.25280  0.53653  1.0000
  C   C18       1.0  0.45277  0.74720  0.46347  1.0000
  C   C19       1.0  0.52447  0.12194  0.51741  1.0000
  C   C20       1.0  0.47553  0.87807  0.48259  1.0000
  C   C21       1.0  0.51689  0.13989  0.38371  1.0000
  C   C22       1.0  0.48311  0.86011  0.61629  1.0000
  C   C23       1.0  0.49145  0.01857  0.36686  1.0000
  C   C24       1.0  0.50855  0.98144  0.63314  1.0000
  C   C25       1.0  0.23604  0.33249  0.25193  1.0000
  C   C26       1.0  0.76396  0.66751  0.74807  1.0000
  C   C27       1.0  0.17124  0.13884  0.20496  1.0000
  C   C28       1.0  0.82876  0.86116  0.79504  1.0000
  C   C29       1.0  0.97236  0.20422  0.39796  1.0000
  C   C30       1.0  0.02764  0.79578  0.60204  1.0000
  N   N1        1.0  0.13039  0.22963  0.28178  1.0000
  N   N2        1.0  0.86961  0.77037  0.71823  1.0000
  O   O1        1.0  0.54445  0.50272  0.15094  1.0000
  O   O2        1.0  0.45556  0.49728  0.84905  1.0000
  O   O3        1.0  0.65167  0.62882  0.22558  1.0000
  O   O4        1.0  0.34833  0.37118  0.77441  1.0000
  O   O5        1.0  0.33086  0.75585  0.11846  1.0000
  O   O6        1.0  0.66914  0.24415  0.88154  1.0000
  O   O7        1.0  0.10415  0.68914  0.31124  1.0000
  O   O8        1.0  0.89585  0.31086  0.68876  1.0000
  O   O9        1.0  0.49519  0.37486  0.45953  1.0000
  O   O10       1.0  0.50481  0.62515  0.54047  1.0000
  O   O11       1.0  0.61758  0.23676  0.62868  1.0000
  O   O12       1.0  0.38242  0.76324  0.37132  1.0000
  O   O13       1.0  0.20726  0.40648  0.32273  1.0000
  O   O14       1.0  0.79274  0.59351  0.67727  1.0000
  O   O15       1.0  0.18669  0.47060  0.57168  1.0000
  O   O16       1.0  0.81331  0.52940  0.42833  1.0000
