data_image0
_chemical_formula_structural       Yb4H20C36O24
_chemical_formula_sum              "Yb4 H20 C36 O24"
_cell_length_a       6.53567
_cell_length_b       10.6204
_cell_length_c       12.7082
_cell_angle_alpha    90
_cell_angle_beta     90.0001
_cell_angle_gamma    95.188

_space_group_name_H-M_alt    "P 1"
_space_group_IT_number       1

loop_
  _space_group_symop_operation_xyz
  'x, y, z'

loop_
  _atom_site_type_symbol
  _atom_site_label
  _atom_site_symmetry_multiplicity
  _atom_site_fract_x
  _atom_site_fract_y
  _atom_site_fract_z
  _atom_site_occupancy
  Yb  Yb1       1.0  0.09754  0.92673  0.62720  1.0000
  Yb  Yb2       1.0  0.40246  0.07327  0.12720  1.0000
  Yb  Yb3       1.0  0.90246  0.07327  0.37280  1.0000
  Yb  Yb4       1.0  0.59754  0.92673  0.87280  1.0000
  H   H1        1.0  0.25278  0.65749  0.49499  1.0000
  H   H2        1.0  0.24721  0.34251  0.99499  1.0000
  H   H3        1.0  0.74721  0.34251  0.50501  1.0000
  H   H4        1.0  0.75278  0.65749  0.00501  1.0000
  H   H5        1.0  0.15375  0.43226  0.44311  1.0000
  H   H6        1.0  0.34625  0.56774  0.94311  1.0000
  H   H7        1.0  0.84625  0.56774  0.55689  1.0000
  H   H8        1.0  0.65375  0.43226  0.05689  1.0000
  H   H9        1.0  0.40842  0.30478  0.73123  1.0000
  H   H10       1.0  0.09158  0.69522  0.23124  1.0000
  H   H11       1.0  0.59158  0.69522  0.26876  1.0000
  H   H12       1.0  0.90842  0.30478  0.76876  1.0000
  H   H13       1.0  0.51287  0.52977  0.78172  1.0000
  H   H14       1.0  0.98713  0.47023  0.28172  1.0000
  H   H15       1.0  0.48713  0.47023  0.21828  1.0000
  H   H16       1.0  0.01287  0.52977  0.71828  1.0000
  H   H17       1.0  0.56588  0.08156  0.63148  1.0000
  H   H18       1.0  0.93412  0.91844  0.13148  1.0000
  H   H19       1.0  0.43412  0.91844  0.36852  1.0000
  H   H20       1.0  0.06588  0.08157  0.86852  1.0000
  C   C1        1.0  0.43649  0.74116  0.67448  1.0000
  C   C2        1.0  0.06351  0.25884  0.17448  1.0000
  C   C3        1.0  0.56351  0.25884  0.32552  1.0000
  C   C4        1.0  0.93649  0.74116  0.82552  1.0000
  C   C5        1.0  0.38913  0.60667  0.64130  1.0000
  C   C6        1.0  0.11087  0.39333  0.14130  1.0000
  C   C7        1.0  0.61088  0.39333  0.35870  1.0000
  C   C8        1.0  0.88913  0.60667  0.85870  1.0000
  C   C9        1.0  0.28796  0.57969  0.54565  1.0000
  C   C10       1.0  0.21204  0.42031  0.04565  1.0000
  C   C11       1.0  0.71204  0.42030  0.45435  1.0000
  C   C12       1.0  0.78796  0.57969  0.95435  1.0000
  C   C13       1.0  0.23153  0.45531  0.51717  1.0000
  C   C14       1.0  0.26847  0.54469  0.01717  1.0000
  C   C15       1.0  0.76847  0.54469  0.48283  1.0000
  C   C16       1.0  0.73153  0.45531  0.98283  1.0000
  C   C17       1.0  0.27245  0.35591  0.58440  1.0000
  C   C18       1.0  0.22756  0.64409  0.08440  1.0000
  C   C19       1.0  0.72756  0.64409  0.41560  1.0000
  C   C20       1.0  0.77244  0.35591  0.91560  1.0000
  C   C21       1.0  0.37593  0.38251  0.67961  1.0000
  C   C22       1.0  0.12407  0.61749  0.17961  1.0000
  C   C23       1.0  0.62407  0.61749  0.32039  1.0000
  C   C24       1.0  0.87593  0.38251  0.82039  1.0000
  C   C25       1.0  0.43446  0.50733  0.70765  1.0000
  C   C26       1.0  0.06554  0.49267  0.20765  1.0000
  C   C27       1.0  0.56554  0.49267  0.29234  1.0000
  C   C28       1.0  0.93446  0.50733  0.79235  1.0000
  C   C29       1.0  0.19934  0.22385  0.55253  1.0000
  C   C30       1.0  0.30066  0.77615  0.05254  1.0000
  C   C31       1.0  0.80066  0.77615  0.44747  1.0000
  C   C32       1.0  0.69934  0.22385  0.94746  1.0000
  C   C33       1.0  0.71437  0.03982  0.63033  1.0000
  C   C34       1.0  0.78564  0.96018  0.13033  1.0000
  C   C35       1.0  0.28563  0.96018  0.36968  1.0000
  C   C36       1.0  0.21437  0.03982  0.86967  1.0000
  O   O1        1.0  0.37644  0.82805  0.61424  1.0000
  O   O2        1.0  0.12356  0.17195  0.11424  1.0000
  O   O3        1.0  0.62357  0.17195  0.38576  1.0000
  O   O4        1.0  0.87643  0.82805  0.88576  1.0000
  O   O5        1.0  0.52841  0.76338  0.76080  1.0000
  O   O6        1.0  0.97159  0.23662  0.26080  1.0000
  O   O7        1.0  0.47159  0.23662  0.23920  1.0000
  O   O8        1.0  0.02841  0.76338  0.73920  1.0000
  O   O9        1.0  0.22131  0.13415  0.61768  1.0000
  O   O10       1.0  0.27870  0.86585  0.11768  1.0000
  O   O11       1.0  0.77869  0.86585  0.38232  1.0000
  O   O12       1.0  0.72131  0.13415  0.88232  1.0000
  O   O13       1.0  0.11545  0.21048  0.46239  1.0000
  O   O14       1.0  0.38455  0.78952  0.96239  1.0000
  O   O15       1.0  0.88455  0.78952  0.53761  1.0000
  O   O16       1.0  0.61545  0.21048  0.03761  1.0000
  O   O17       1.0  0.77995  0.98703  0.71240  1.0000
  O   O18       1.0  0.72005  0.01297  0.21240  1.0000
  O   O19       1.0  0.22005  0.01297  0.28760  1.0000
  O   O20       1.0  0.27995  0.98703  0.78760  1.0000
  O   O21       1.0  0.82234  0.04525  0.54749  1.0000
  O   O22       1.0  0.67766  0.95475  0.04748  1.0000
  O   O23       1.0  0.17766  0.95475  0.45252  1.0000
  O   O24       1.0  0.32234  0.04525  0.95252  1.0000
