data_image0
_chemical_formula_structural       Yb2H26C36O16
_chemical_formula_sum              "Yb2 H26 C36 O16"
_cell_length_a       8.25246
_cell_length_b       12.2474
_cell_length_c       12.3781
_cell_angle_alpha    111.012
_cell_angle_beta     101.197
_cell_angle_gamma    107.979

_space_group_name_H-M_alt    "P 1"
_space_group_IT_number       1

loop_
  _space_group_symop_operation_xyz
  'x, y, z'

loop_
  _atom_site_type_symbol
  _atom_site_label
  _atom_site_symmetry_multiplicity
  _atom_site_fract_x
  _atom_site_fract_y
  _atom_site_fract_z
  _atom_site_occupancy
  Yb  Yb1       1.0  0.71189  0.54351  0.40593  1.0000
  Yb  Yb2       1.0  0.28811  0.45649  0.59408  1.0000
  H   H1        1.0  0.02862  0.94272  0.39235  1.0000
  H   H2        1.0  0.97139  0.05724  0.60761  1.0000
  H   H3        1.0  0.30284  0.11642  0.41008  1.0000
  H   H4        1.0  0.69717  0.88355  0.58988  1.0000
  H   H5        1.0  0.63385  0.20901  0.45214  1.0000
  H   H6        1.0  0.36617  0.79098  0.54786  1.0000
  H   H7        1.0  0.36205  0.39576  0.98364  1.0000
  H   H8        1.0  0.63792  0.60422  0.01637  1.0000
  H   H9        1.0  0.10207  0.35742  0.81427  1.0000
  H   H10       1.0  0.89790  0.64258  0.18574  1.0000
  H   H11       1.0  0.81789  0.38513  0.74668  1.0000
  H   H12       1.0  0.18211  0.61486  0.25333  1.0000
  H   H13       1.0  0.01674  0.81205  0.70499  1.0000
  H   H14       1.0  0.98325  0.18798  0.29501  1.0000
  H   H15       1.0  0.26673  0.99316  0.89280  1.0000
  H   H16       1.0  0.73325  0.00687  0.10720  1.0000
  H   H17       1.0  0.37027  0.15991  0.11043  1.0000
  H   H18       1.0  0.62975  0.84012  0.88958  1.0000
  H   H19       1.0  0.98142  0.44537  0.33444  1.0000
  H   H20       1.0  0.01858  0.55463  0.66556  1.0000
  H   H21       1.0  0.81497  0.38987  0.20826  1.0000
  H   H22       1.0  0.18503  0.61013  0.79174  1.0000
  H   H23       1.0  0.71216  0.44995  0.59318  1.0000
  H   H24       1.0  0.28785  0.55004  0.40682  1.0000
  H   H25       1.0  0.83843  0.39652  0.51997  1.0000
  H   H26       1.0  0.16158  0.60347  0.48003  1.0000
  C   C1        1.0  0.01610  0.75254  0.45567  1.0000
  C   C2        1.0  0.98393  0.24746  0.54432  1.0000
  C   C3        1.0  0.18157  0.85552  0.46753  1.0000
  C   C4        1.0  0.81843  0.14446  0.53245  1.0000
  C   C5        1.0  0.16383  0.94796  0.42778  1.0000
  C   C6        1.0  0.83618  0.05201  0.57219  1.0000
  C   C7        1.0  0.31545  0.04255  0.43600  1.0000
  C   C8        1.0  0.68458  0.95743  0.56398  1.0000
  C   C9        1.0  0.49077  0.04676  0.48006  1.0000
  C   C10       1.0  0.50925  0.95323  0.51993  1.0000
  C   C11       1.0  0.64843  0.14032  0.48569  1.0000
  C   C12       1.0  0.35158  0.85967  0.51430  1.0000
  C   C13       1.0  0.44007  0.52500  0.22744  1.0000
  C   C14       1.0  0.55992  0.47499  0.77257  1.0000
  C   C15       1.0  0.28384  0.50514  0.12840  1.0000
  C   C16       1.0  0.71614  0.49486  0.87160  1.0000
  C   C17       1.0  0.26184  0.43307  0.00349  1.0000
  C   C18       1.0  0.73815  0.56692  0.99652  1.0000
  C   C19       1.0  0.11721  0.41205  0.90997  1.0000
  C   C20       1.0  0.88277  0.58794  0.09003  1.0000
  C   C21       1.0  0.98855  0.46281  0.93675  1.0000
  C   C22       1.0  0.01145  0.53719  0.06327  1.0000
  C   C23       1.0  0.83869  0.44339  0.84275  1.0000
  C   C24       1.0  0.16129  0.55661  0.15726  1.0000
  C   C25       1.0  0.65935  0.70762  0.67473  1.0000
  C   C26       1.0  0.34065  0.29239  0.32527  1.0000
  C   C27       1.0  0.80805  0.81756  0.78729  1.0000
  C   C28       1.0  0.19196  0.18248  0.21273  1.0000
  C   C29       1.0  0.98933  0.86034  0.78767  1.0000
  C   C30       1.0  0.01068  0.13969  0.21233  1.0000
  C   C31       1.0  0.12732  0.95996  0.89189  1.0000
  C   C32       1.0  0.87268  0.04007  0.10811  1.0000
  C   C33       1.0  0.09156  0.02174  0.00015  1.0000
  C   C34       1.0  0.90843  0.97828  0.99985  1.0000
  C   C35       1.0  0.23052  0.12460  0.10831  1.0000
  C   C36       1.0  0.76947  0.87544  0.89171  1.0000
  O   O1        1.0  0.85918  0.73580  0.39630  1.0000
  O   O2        1.0  0.14085  0.26418  0.60369  1.0000
  O   O3        1.0  0.03072  0.67607  0.50344  1.0000
  O   O4        1.0  0.96928  0.32393  0.49657  1.0000
  O   O5        1.0  0.56787  0.49644  0.20174  1.0000
  O   O6        1.0  0.43212  0.50355  0.79827  1.0000
  O   O7        1.0  0.44616  0.56976  0.34103  1.0000
  O   O8        1.0  0.55384  0.43024  0.65898  1.0000
  O   O9        1.0  0.69926  0.66368  0.57850  1.0000
  O   O10       1.0  0.30075  0.33632  0.42151  1.0000
  O   O11       1.0  0.50166  0.66194  0.67933  1.0000
  O   O12       1.0  0.49834  0.33806  0.32069  1.0000
  O   O13       1.0  0.85231  0.42882  0.29748  1.0000
  O   O14       1.0  0.14769  0.57117  0.70252  1.0000
  O   O15       1.0  0.80390  0.47108  0.55260  1.0000
  O   O16       1.0  0.19611  0.52892  0.44741  1.0000
