data_image0
_chemical_formula_structural       Mn2H32C48N4O10
_chemical_formula_sum              "Mn2 H32 C48 N4 O10"
_cell_length_a       10.6683
_cell_length_b       10.8247
_cell_length_c       11.0092
_cell_angle_alpha    116.27
_cell_angle_beta     114.139
_cell_angle_gamma    95.0372

_space_group_name_H-M_alt    "P 1"
_space_group_IT_number       1

loop_
  _space_group_symop_operation_xyz
  'x, y, z'

loop_
  _atom_site_type_symbol
  _atom_site_label
  _atom_site_symmetry_multiplicity
  _atom_site_fract_x
  _atom_site_fract_y
  _atom_site_fract_z
  _atom_site_occupancy
  Mn  Mn1       1.0  0.78945  0.38405  0.93029  1.0000
  Mn  Mn2       1.0  0.21055  0.61595  0.06971  1.0000
  H   H1        1.0  0.04532  0.42041  0.55501  1.0000
  H   H2        1.0  0.95468  0.57959  0.44499  1.0000
  H   H3        1.0  0.89908  0.28357  0.26130  1.0000
  H   H4        1.0  0.10092  0.71643  0.73870  1.0000
  H   H5        1.0  0.64453  0.13001  0.12281  1.0000
  H   H6        1.0  0.35547  0.86999  0.87719  1.0000
  H   H7        1.0  0.66972  0.25820  0.56578  1.0000
  H   H8        1.0  0.33028  0.74180  0.43422  1.0000
  H   H9        1.0  0.51421  0.36761  0.35636  1.0000
  H   H10       1.0  0.48579  0.63240  0.64364  1.0000
  H   H11       1.0  0.30208  0.45414  0.33071  1.0000
  H   H12       1.0  0.69792  0.54586  0.66930  1.0000
  H   H13       1.0  0.05991  0.28009  0.21618  1.0000
  H   H14       1.0  0.94010  0.71991  0.78383  1.0000
  H   H15       1.0  0.03364  0.02006  0.13571  1.0000
  H   H16       1.0  0.96635  0.97994  0.86429  1.0000
  H   H17       1.0  0.53527  0.08742  0.63466  1.0000
  H   H18       1.0  0.46473  0.91258  0.36533  1.0000
  H   H19       1.0  0.26610  0.99809  0.45168  1.0000
  H   H20       1.0  0.73390  0.00191  0.54831  1.0000
  H   H21       1.0  0.13121  0.17876  0.49556  1.0000
  H   H22       1.0  0.86879  0.82124  0.50444  1.0000
  H   H23       1.0  0.26994  0.43750  0.70995  1.0000
  H   H24       1.0  0.73006  0.56250  0.29005  1.0000
  H   H25       1.0  0.39342  0.64353  0.90275  1.0000
  H   H26       1.0  0.60658  0.35647  0.09725  1.0000
  H   H27       1.0  0.55944  0.89407  0.10416  1.0000
  H   H28       1.0  0.44055  0.10592  0.89584  1.0000
  H   H29       1.0  0.83086  0.94478  0.21488  1.0000
  H   H30       1.0  0.16914  0.05522  0.78512  1.0000
  H   H31       1.0  0.92018  0.73260  0.12620  1.0000
  H   H32       1.0  0.07983  0.26740  0.87380  1.0000
  C   C1        1.0  0.95061  0.43823  0.75394  1.0000
  C   C2        1.0  0.04940  0.56178  0.24606  1.0000
  C   C3        1.0  0.86716  0.34810  0.57858  1.0000
  C   C4        1.0  0.13284  0.65190  0.42143  1.0000
  C   C5        1.0  0.93244  0.35250  0.49233  1.0000
  C   C6        1.0  0.06757  0.64750  0.50767  1.0000
  C   C7        1.0  0.85189  0.27557  0.32942  1.0000
  C   C8        1.0  0.14811  0.72442  0.67058  1.0000
  C   C9        1.0  0.70669  0.19001  0.25025  1.0000
  C   C10       1.0  0.29331  0.80999  0.74975  1.0000
  C   C11       1.0  0.64348  0.18362  0.33682  1.0000
  C   C12       1.0  0.35652  0.81638  0.66318  1.0000
  C   C13       1.0  0.72135  0.26253  0.49983  1.0000
  C   C14       1.0  0.27865  0.73747  0.50017  1.0000
  C   C15       1.0  0.39022  0.14402  0.25183  1.0000
  C   C16       1.0  0.60978  0.85598  0.74818  1.0000
  C   C17       1.0  0.40831  0.29173  0.30686  1.0000
  C   C18       1.0  0.59169  0.70827  0.69314  1.0000
  C   C19       1.0  0.28924  0.34015  0.29380  1.0000
  C   C20       1.0  0.71076  0.65986  0.70620  1.0000
  C   C21       1.0  0.15348  0.24271  0.23024  1.0000
  C   C22       1.0  0.84653  0.75729  0.76977  1.0000
  C   C23       1.0  0.13809  0.09693  0.18252  1.0000
  C   C24       1.0  0.86191  0.90308  0.81748  1.0000
  C   C25       1.0  0.25469  0.04436  0.18945  1.0000
  C   C26       1.0  0.74531  0.95564  0.81055  1.0000
  C   C27       1.0  0.23440  0.88609  0.13244  1.0000
  C   C28       1.0  0.76560  0.11391  0.86756  1.0000
  C   C29       1.0  0.47259  0.16197  0.64545  1.0000
  C   C30       1.0  0.52741  0.83803  0.35454  1.0000
  C   C31       1.0  0.32277  0.11213  0.54617  1.0000
  C   C32       1.0  0.67723  0.88787  0.45382  1.0000
  C   C33       1.0  0.24867  0.21274  0.56970  1.0000
  C   C34       1.0  0.75133  0.78726  0.43029  1.0000
  C   C35       1.0  0.32633  0.35801  0.68873  1.0000
  C   C36       1.0  0.67367  0.64199  0.31126  1.0000
  C   C37       1.0  0.47734  0.40007  0.78178  1.0000
  C   C38       1.0  0.52266  0.59992  0.21822  1.0000
  C   C39       1.0  0.56840  0.55313  0.90677  1.0000
  C   C40       1.0  0.43160  0.44687  0.09323  1.0000
  C   C41       1.0  0.51019  0.66514  0.95249  1.0000
  C   C42       1.0  0.48981  0.33485  0.04751  1.0000
  C   C43       1.0  0.60436  0.80722  0.06576  1.0000
  C   C44       1.0  0.39563  0.19277  0.93423  1.0000
  C   C45       1.0  0.75395  0.83445  0.12854  1.0000
  C   C46       1.0  0.24604  0.16554  0.87146  1.0000
  C   C47       1.0  0.80409  0.71687  0.08003  1.0000
  C   C48       1.0  0.19591  0.28313  0.91997  1.0000
  N   N1        1.0  0.54878  0.30188  0.76007  1.0000
  N   N2        1.0  0.45122  0.69812  0.23992  1.0000
  N   N3        1.0  0.71348  0.57943  0.97383  1.0000
  N   N4        1.0  0.28652  0.42058  0.02618  1.0000
  O   O1        1.0  0.88130  0.45097  0.82661  1.0000
  O   O2        1.0  0.11871  0.54903  0.17339  1.0000
  O   O3        1.0  0.08716  0.50183  0.82157  1.0000
  O   O4        1.0  0.91284  0.49818  0.17844  1.0000
  O   O5        1.0  0.50242  0.08836  0.25580  1.0000
  O   O6        1.0  0.49758  0.91165  0.74421  1.0000
  O   O7        1.0  0.27842  0.81487  0.04022  1.0000
  O   O8        1.0  0.72158  0.18513  0.95979  1.0000
  O   O9        1.0  0.17327  0.82643  0.18158  1.0000
  O   O10       1.0  0.82673  0.17357  0.81842  1.0000
