data_image0
_chemical_formula_structural       KCuH10C16S6N6
_chemical_formula_sum              "K1 Cu1 H10 C16 S6 N6"
_cell_length_a       7.86329
_cell_length_b       8.45862
_cell_length_c       8.84067
_cell_angle_alpha    79.0125
_cell_angle_beta     77.213
_cell_angle_gamma    74.3647

_space_group_name_H-M_alt    "P 1"
_space_group_IT_number       1

loop_
  _space_group_symop_operation_xyz
  'x, y, z'

loop_
  _atom_site_type_symbol
  _atom_site_label
  _atom_site_symmetry_multiplicity
  _atom_site_fract_x
  _atom_site_fract_y
  _atom_site_fract_z
  _atom_site_occupancy
  K   K1        1.0  0.49999  0.00000  0.99999  1.0000
  Cu  Cu1       1.0  0.50000  0.00000  0.50000  1.0000
  H   H1        1.0  0.09151  0.87993  0.99461  1.0000
  H   H2        1.0  0.90849  0.12006  0.00540  1.0000
  H   H3        1.0  0.52067  0.41370  0.72376  1.0000
  H   H4        1.0  0.47933  0.58630  0.27624  1.0000
  H   H5        1.0  0.20279  0.61903  0.47614  1.0000
  H   H6        1.0  0.79723  0.38097  0.52386  1.0000
  H   H7        1.0  0.97646  0.71765  0.45078  1.0000
  H   H8        1.0  0.02355  0.28236  0.54921  1.0000
  H   H9        1.0  0.07729  0.78637  0.58187  1.0000
  H   H10       1.0  0.92271  0.21364  0.41812  1.0000
  C   C1        1.0  0.29358  0.81165  0.79258  1.0000
  C   C2        1.0  0.70642  0.18835  0.20742  1.0000
  C   C3        1.0  0.41698  0.67902  0.71575  1.0000
  C   C4        1.0  0.58302  0.32098  0.28426  1.0000
  C   C5        1.0  0.18317  0.78001  0.93513  1.0000
  C   C6        1.0  0.81682  0.21998  0.06488  1.0000
  C   C7        1.0  0.42893  0.51475  0.78186  1.0000
  C   C8        1.0  0.57108  0.48525  0.21814  1.0000
  C   C9        1.0  0.31844  0.48045  0.92743  1.0000
  C   C10       1.0  0.68156  0.51955  0.07257  1.0000
  C   C11       1.0  0.19560  0.61393  0.00513  1.0000
  C   C12       1.0  0.80440  0.38607  0.99487  1.0000
  C   C13       1.0  0.16473  0.85569  0.34432  1.0000
  C   C14       1.0  0.83528  0.14430  0.65568  1.0000
  C   C15       1.0  0.10172  0.73761  0.47050  1.0000
  C   C16       1.0  0.89827  0.26239  0.52950  1.0000
  S   S1        1.0  0.28618  0.01718  0.70532  1.0000
  S   S2        1.0  0.71381  0.98282  0.29468  1.0000
  S   S3        1.0  0.55152  0.72874  0.53571  1.0000
  S   S4        1.0  0.44848  0.27126  0.46429  1.0000
  S   S5        1.0  0.16785  0.36054  0.16972  1.0000
  S   S6        1.0  0.83215  0.63945  0.83028  1.0000
  N   N1        1.0  0.31408  0.32889  0.01054  1.0000
  N   N2        1.0  0.68592  0.67110  0.98946  1.0000
  N   N3        1.0  0.10217  0.56046  0.14518  1.0000
  N   N4        1.0  0.89782  0.43953  0.85482  1.0000
  N   N5        1.0  0.21535  0.95166  0.24307  1.0000
  N   N6        1.0  0.78466  0.04834  0.75692  1.0000
