data_image0
_chemical_formula_structural       Cu4H20C32N4O20
_chemical_formula_sum              "Cu4 H20 C32 N4 O20"
_cell_length_a       6.59289
_cell_length_b       8.09022
_cell_length_c       16.5234
_cell_angle_alpha    90.9578
_cell_angle_beta     90.0007
_cell_angle_gamma    90.0003

_space_group_name_H-M_alt    "P 1"
_space_group_IT_number       1

loop_
  _space_group_symop_operation_xyz
  'x, y, z'

loop_
  _atom_site_type_symbol
  _atom_site_label
  _atom_site_symmetry_multiplicity
  _atom_site_fract_x
  _atom_site_fract_y
  _atom_site_fract_z
  _atom_site_occupancy
  Cu  Cu1       1.0  0.45939  0.85845  0.64571  1.0000
  Cu  Cu2       1.0  0.95971  0.64215  0.35440  1.0000
  Cu  Cu3       1.0  0.54023  0.14217  0.35442  1.0000
  Cu  Cu4       1.0  0.04062  0.35849  0.64572  1.0000
  H   H1        1.0  0.15607  0.98833  0.86128  1.0000
  H   H2        1.0  0.65656  0.51175  0.13855  1.0000
  H   H3        1.0  0.84349  0.01180  0.13854  1.0000
  H   H4        1.0  0.34393  0.48836  0.86129  1.0000
  H   H5        1.0  0.45719  0.18079  0.80120  1.0000
  H   H6        1.0  0.95801  0.31867  0.19894  1.0000
  H   H7        1.0  0.54198  0.81866  0.19895  1.0000
  H   H8        1.0  0.04283  0.68080  0.80117  1.0000
  H   H9        1.0  0.55988  0.12560  0.94407  1.0000
  H   H10       1.0  0.06040  0.37341  0.05591  1.0000
  H   H11       1.0  0.43961  0.87337  0.05592  1.0000
  H   H12       1.0  0.94017  0.62561  0.94405  1.0000
  H   H13       1.0  0.36563  0.88651  0.47821  1.0000
  H   H14       1.0  0.86482  0.61270  0.52189  1.0000
  H   H15       1.0  0.63524  0.11269  0.52191  1.0000
  H   H16       1.0  0.13435  0.38641  0.47821  1.0000
  H   H17       1.0  0.23237  0.99644  0.53736  1.0000
  H   H18       1.0  0.73095  0.50407  0.46225  1.0000
  H   H19       1.0  0.76910  0.00407  0.46227  1.0000
  H   H20       1.0  0.26771  0.49631  0.53736  1.0000
  C   C1        1.0  0.10251  0.03215  0.70382  1.0000
  C   C2        1.0  0.60293  0.46821  0.29617  1.0000
  C   C3        1.0  0.89701  0.96824  0.29616  1.0000
  C   C4        1.0  0.39747  0.53216  0.70381  1.0000
  C   C5        1.0  0.94990  0.06798  0.76895  1.0000
  C   C6        1.0  0.45076  0.43179  0.23094  1.0000
  C   C7        1.0  0.04924  0.93182  0.23094  1.0000
  C   C8        1.0  0.55011  0.56798  0.76894  1.0000
  C   C9        1.0  0.00464  0.03435  0.84826  1.0000
  C   C10       1.0  0.50526  0.46539  0.15160  1.0000
  C   C11       1.0  0.99477  0.96542  0.15160  1.0000
  C   C12       1.0  0.49536  0.53437  0.84826  1.0000
  C   C13       1.0  0.75107  0.12320  0.75160  1.0000
  C   C14       1.0  0.25212  0.37626  0.24831  1.0000
  C   C15       1.0  0.24788  0.87628  0.24832  1.0000
  C   C16       1.0  0.74894  0.62319  0.75158  1.0000
  C   C17       1.0  0.61058  0.13971  0.81492  1.0000
  C   C18       1.0  0.11138  0.35965  0.18508  1.0000
  C   C19       1.0  0.38863  0.85966  0.18508  1.0000
  C   C20       1.0  0.88943  0.63969  0.81490  1.0000
  C   C21       1.0  0.68222  0.17070  0.66843  1.0000
  C   C22       1.0  0.18314  0.33012  0.33162  1.0000
  C   C23       1.0  0.31684  0.83015  0.33162  1.0000
  C   C24       1.0  0.81775  0.67072  0.66842  1.0000
  C   C25       1.0  0.86567  0.05691  0.91170  1.0000
  C   C26       1.0  0.36624  0.44233  0.08820  1.0000
  C   C27       1.0  0.13379  0.94233  0.08820  1.0000
  C   C28       1.0  0.63434  0.55694  0.91170  1.0000
  C   C29       1.0  0.66753  0.10914  0.89447  1.0000
  C   C30       1.0  0.16818  0.38993  0.10549  1.0000
  C   C31       1.0  0.33185  0.88992  0.10549  1.0000
  C   C32       1.0  0.83248  0.60916  0.89446  1.0000
  N   N1        1.0  0.91103  0.02697  0.99368  1.0000
  N   N2        1.0  0.41146  0.47224  0.00618  1.0000
  N   N3        1.0  0.08859  0.97224  0.00619  1.0000
  N   N4        1.0  0.58901  0.52698  0.99367  1.0000
  O   O1        1.0  0.21795  0.90847  0.71514  1.0000
  O   O2        1.0  0.71831  0.59181  0.28481  1.0000
  O   O3        1.0  0.78163  0.09185  0.28482  1.0000
  O   O4        1.0  0.28199  0.40850  0.71517  1.0000
  O   O5        1.0  0.75259  0.30086  0.63665  1.0000
  O   O6        1.0  0.25434  0.20183  0.36498  1.0000
  O   O7        1.0  0.24562  0.70184  0.36498  1.0000
  O   O8        1.0  0.74736  0.80085  0.63662  1.0000
  O   O9        1.0  0.11119  0.12207  0.64126  1.0000
  O   O10       1.0  0.61090  0.37872  0.35890  1.0000
  O   O11       1.0  0.88905  0.87870  0.35887  1.0000
  O   O12       1.0  0.38876  0.62202  0.64124  1.0000
  O   O13       1.0  0.54437  0.08913  0.63166  1.0000
  O   O14       1.0  0.04311  0.41105  0.36741  1.0000
  O   O15       1.0  0.45686  0.91107  0.36742  1.0000
  O   O16       1.0  0.95560  0.58915  0.63164  1.0000
  O   O17       1.0  0.29274  0.88671  0.53009  1.0000
  O   O18       1.0  0.79198  0.61345  0.46997  1.0000
  O   O19       1.0  0.70805  0.11344  0.46998  1.0000
  O   O20       1.0  0.20725  0.38661  0.53009  1.0000
