data_image0
_chemical_formula_structural       Li4H8C16O8
_chemical_formula_sum              "Li4 H8 C16 O8"
_cell_length_a       5.02037
_cell_length_b       8.45196
_cell_length_c       8.50204
_cell_angle_alpha    93.5106
_cell_angle_beta     89.9994
_cell_angle_gamma    90.0003

_space_group_name_H-M_alt    "P 1"
_space_group_IT_number       1

loop_
  _space_group_symop_operation_xyz
  'x, y, z'

loop_
  _atom_site_type_symbol
  _atom_site_label
  _atom_site_symmetry_multiplicity
  _atom_site_fract_x
  _atom_site_fract_y
  _atom_site_fract_z
  _atom_site_occupancy
  Li  Li1       1.0  0.60385  0.99180  0.35360  1.0000
  Li  Li2       1.0  0.10385  0.00821  0.14639  1.0000
  Li  Li3       1.0  0.39615  0.00820  0.64640  1.0000
  Li  Li4       1.0  0.89615  0.99179  0.85359  1.0000
  H   H1        1.0  0.69521  0.61958  0.30926  1.0000
  H   H2        1.0  0.19519  0.38041  0.19074  1.0000
  H   H3        1.0  0.30482  0.38041  0.69076  1.0000
  H   H4        1.0  0.80481  0.61959  0.80927  1.0000
  H   H5        1.0  0.38554  0.65514  0.60822  1.0000
  H   H6        1.0  0.88555  0.34485  0.89179  1.0000
  H   H7        1.0  0.61446  0.34484  0.39178  1.0000
  H   H8        1.0  0.11447  0.65516  0.10821  1.0000
  C   C1        1.0  0.82761  0.56669  0.39285  1.0000
  C   C2        1.0  0.32757  0.43333  0.10715  1.0000
  C   C3        1.0  0.17241  0.43334  0.60716  1.0000
  C   C4        1.0  0.67241  0.56669  0.89284  1.0000
  C   C5        1.0  0.04363  0.65465  0.45530  1.0000
  C   C6        1.0  0.54362  0.34534  0.04470  1.0000
  C   C7        1.0  0.95635  0.34529  0.54473  1.0000
  C   C8        1.0  0.45635  0.65469  0.95528  1.0000
  C   C9        1.0  0.21561  0.58683  0.56258  1.0000
  C   C10       1.0  0.71558  0.41319  0.93743  1.0000
  C   C11       1.0  0.78441  0.41320  0.43743  1.0000
  C   C12       1.0  0.28438  0.58681  0.06258  1.0000
  C   C13       1.0  0.10219  0.81669  0.40167  1.0000
  C   C14       1.0  0.60219  0.18328  0.09832  1.0000
  C   C15       1.0  0.89781  0.18329  0.59834  1.0000
  C   C16       1.0  0.39782  0.81667  0.90167  1.0000
  O   O1        1.0  0.94124  0.87936  0.30697  1.0000
  O   O2        1.0  0.44126  0.12064  0.19301  1.0000
  O   O3        1.0  0.05875  0.12064  0.69302  1.0000
  O   O4        1.0  0.55875  0.87936  0.80697  1.0000
  O   O5        1.0  0.31820  0.88257  0.44920  1.0000
  O   O6        1.0  0.81819  0.11745  0.05078  1.0000
  O   O7        1.0  0.68182  0.11743  0.55081  1.0000
  O   O8        1.0  0.18180  0.88257  0.94919  1.0000
