data_image0
_chemical_formula_structural       Cd2H32C52N4O18
_chemical_formula_sum              "Cd2 H32 C52 N4 O18"
_cell_length_a       7.0865
_cell_length_b       9.06595
_cell_length_c       17.1783
_cell_angle_alpha    91.2581
_cell_angle_beta     100.432
_cell_angle_gamma    96.7645

_space_group_name_H-M_alt    "P 1"
_space_group_IT_number       1

loop_
  _space_group_symop_operation_xyz
  'x, y, z'

loop_
  _atom_site_type_symbol
  _atom_site_label
  _atom_site_symmetry_multiplicity
  _atom_site_fract_x
  _atom_site_fract_y
  _atom_site_fract_z
  _atom_site_occupancy
  Cd  Cd1       1.0  0.71582  0.13105  0.38328  1.0000
  Cd  Cd2       1.0  0.28418  0.86895  0.61672  1.0000
  H   H1        1.0  0.32083  0.53485  0.41789  1.0000
  H   H2        1.0  0.67916  0.46515  0.58211  1.0000
  H   H3        1.0  0.31314  0.66224  0.29093  1.0000
  H   H4        1.0  0.68685  0.33775  0.70906  1.0000
  H   H5        1.0  0.80965  0.56394  0.08004  1.0000
  H   H6        1.0  0.19035  0.43606  0.91996  1.0000
  H   H7        1.0  0.12936  0.86846  0.21292  1.0000
  H   H8        1.0  0.87064  0.13154  0.78708  1.0000
  H   H9        1.0  0.85008  0.71982  0.20508  1.0000
  H   H10       1.0  0.14991  0.28018  0.79492  1.0000
  H   H11       1.0  0.85068  0.73461  0.35105  1.0000
  H   H12       1.0  0.14932  0.26539  0.64895  1.0000
  H   H13       1.0  0.58564  0.86347  0.24286  1.0000
  H   H14       1.0  0.41436  0.13654  0.75714  1.0000
  H   H15       1.0  0.67812  0.03735  0.01888  1.0000
  H   H16       1.0  0.32189  0.96265  0.98112  1.0000
  H   H17       1.0  0.74811  0.31505  0.01181  1.0000
  H   H18       1.0  0.25190  0.68495  0.98819  1.0000
  H   H19       1.0  0.79298  0.49871  0.42117  1.0000
  H   H20       1.0  0.20702  0.50130  0.57883  1.0000
  H   H21       1.0  0.59090  0.81973  0.09785  1.0000
  H   H22       1.0  0.40910  0.18027  0.90216  1.0000
  H   H23       1.0  0.14639  0.99830  0.08816  1.0000
  H   H24       1.0  0.85363  0.00170  0.91184  1.0000
  H   H25       1.0  0.01260  0.26885  0.49796  1.0000
  H   H26       1.0  0.98740  0.73115  0.50204  1.0000
  H   H27       1.0  0.84236  0.21114  0.54460  1.0000
  H   H28       1.0  0.15764  0.78886  0.45540  1.0000
  H   H29       1.0  0.45283  0.87807  0.38038  1.0000
  H   H30       1.0  0.54717  0.12193  0.61962  1.0000
  H   H31       1.0  0.65087  0.82849  0.42609  1.0000
  H   H32       1.0  0.34913  0.17152  0.57391  1.0000
  C   C1        1.0  0.32721  0.24631  0.44225  1.0000
  C   C2        1.0  0.67278  0.75369  0.55775  1.0000
  C   C3        1.0  0.13337  0.98138  0.35643  1.0000
  C   C4        1.0  0.86662  0.01862  0.64357  1.0000
  C   C5        1.0  0.23458  0.30035  0.21862  1.0000
  C   C6        1.0  0.76543  0.69965  0.78137  1.0000
  C   C7        1.0  0.78381  0.48062  0.19610  1.0000
  C   C8        1.0  0.21618  0.51937  0.80390  1.0000
  C   C9        1.0  0.27173  0.31505  0.36352  1.0000
  C   C10       1.0  0.72826  0.68495  0.63648  1.0000
  C   C11       1.0  0.70632  0.20857  0.20029  1.0000
  C   C12       1.0  0.29368  0.79143  0.79971  1.0000
  C   C13       1.0  0.74859  0.35336  0.24064  1.0000
  C   C14       1.0  0.25140  0.64664  0.75936  1.0000
  C   C15       1.0  0.29467  0.46920  0.36219  1.0000
  C   C16       1.0  0.70533  0.53080  0.63780  1.0000
  C   C17       1.0  0.22808  0.22634  0.29096  1.0000
  C   C18       1.0  0.77192  0.77366  0.70904  1.0000
  C   C19       1.0  0.20540  0.21607  0.14582  1.0000
  C   C20       1.0  0.79462  0.78392  0.85418  1.0000
  C   C21       1.0  0.18074  0.06821  0.28678  1.0000
  C   C22       1.0  0.81926  0.93179  0.71322  1.0000
  C   C23       1.0  0.29248  0.54122  0.29069  1.0000
  C   C24       1.0  0.70752  0.45878  0.70930  1.0000
  C   C25       1.0  0.78258  0.46433  0.11292  1.0000
  C   C26       1.0  0.21742  0.53566  0.88708  1.0000
  C   C27       1.0  0.15766  0.98928  0.21466  1.0000
  C   C28       1.0  0.84235  0.01072  0.78534  1.0000
  C   C29       1.0  0.82140  0.62017  0.23752  1.0000
  C   C30       1.0  0.17859  0.37982  0.76248  1.0000
  C   C31       1.0  0.26890  0.45819  0.21980  1.0000
  C   C32       1.0  0.73110  0.54181  0.78020  1.0000
  C   C33       1.0  0.82305  0.62854  0.31794  1.0000
  C   C34       1.0  0.17695  0.37146  0.68206  1.0000
  C   C35       1.0  0.62179  0.95475  0.20585  1.0000
  C   C36       1.0  0.37820  0.04525  0.79415  1.0000
  C   C37       1.0  0.67103  0.05224  0.08131  1.0000
  C   C38       1.0  0.32897  0.94776  0.91870  1.0000
  C   C39       1.0  0.74805  0.32686  0.07519  1.0000
  C   C40       1.0  0.25195  0.67314  0.92481  1.0000
  C   C41       1.0  0.78932  0.49633  0.35745  1.0000
  C   C42       1.0  0.21068  0.50367  0.64256  1.0000
  C   C43       1.0  0.70869  0.19630  0.11775  1.0000
  C   C44       1.0  0.29131  0.80370  0.88225  1.0000
  C   C45       1.0  0.62476  0.93153  0.12493  1.0000
  C   C46       1.0  0.37524  0.06847  0.87507  1.0000
  C   C47       1.0  0.16934  0.06184  0.14437  1.0000
  C   C48       1.0  0.83068  0.93815  0.85563  1.0000
  C   C49       1.0  0.27260  0.53424  0.14591  1.0000
  C   C50       1.0  0.72740  0.46576  0.85409  1.0000
  C   C51       1.0  0.21315  0.29100  0.07180  1.0000
  C   C52       1.0  0.78688  0.70900  0.92820  1.0000
  N   N1        1.0  0.75326  0.36325  0.31987  1.0000
  N   N2        1.0  0.24673  0.63675  0.68013  1.0000
  N   N3        1.0  0.66470  0.08851  0.24245  1.0000
  N   N4        1.0  0.33529  0.91149  0.75756  1.0000
  O   O1        1.0  0.45748  0.16102  0.44593  1.0000
  O   O2        1.0  0.54252  0.83898  0.55407  1.0000
  O   O3        1.0  0.25308  0.28182  0.50093  1.0000
  O   O4        1.0  0.74692  0.71818  0.49907  1.0000
  O   O5        1.0  0.21459  0.86466  0.37222  1.0000
  O   O6        1.0  0.78541  0.13534  0.62778  1.0000
  O   O7        1.0  0.00755  0.02478  0.39192  1.0000
  O   O8        1.0  0.99244  0.97523  0.60808  1.0000
  O   O9        1.0  0.87052  0.26337  0.49625  1.0000
  O   O10       1.0  0.12947  0.73663  0.50375  1.0000
  O   O11       1.0  0.59428  0.88413  0.37953  1.0000
  O   O12       1.0  0.40572  0.11587  0.62047  1.0000
  O   O13       1.0  0.25183  0.44575  0.07641  1.0000
  O   O14       1.0  0.74818  0.55425  0.92359  1.0000
  O   O15       1.0  0.29174  0.66853  0.13849  1.0000
  O   O16       1.0  0.70826  0.33147  0.86151  1.0000
  O   O17       1.0  0.18984  0.23064  0.00592  1.0000
  O   O18       1.0  0.81020  0.76936  0.99408  1.0000
