data_image0
_chemical_formula_structural       Cd4H32C76N4O28
_chemical_formula_sum              "Cd4 H32 C76 N4 O28"
_cell_length_a       5.10086
_cell_length_b       15.1769
_cell_length_c       21.2337
_cell_angle_alpha    109.338
_cell_angle_beta     89.9999
_cell_angle_gamma    90.0001

_space_group_name_H-M_alt    "P 1"
_space_group_IT_number       1

loop_
  _space_group_symop_operation_xyz
  'x, y, z'

loop_
  _atom_site_type_symbol
  _atom_site_label
  _atom_site_symmetry_multiplicity
  _atom_site_fract_x
  _atom_site_fract_y
  _atom_site_fract_z
  _atom_site_occupancy
  Cd  Cd1       1.0  0.36513  0.82252  0.19233  1.0000
  Cd  Cd2       1.0  0.86513  0.67748  0.30767  1.0000
  Cd  Cd3       1.0  0.63487  0.17748  0.80768  1.0000
  Cd  Cd4       1.0  0.13487  0.32252  0.69233  1.0000
  H   H1        1.0  0.85851  0.59355  0.05364  1.0000
  H   H2        1.0  0.35851  0.90645  0.44636  1.0000
  H   H3        1.0  0.14149  0.40645  0.94636  1.0000
  H   H4        1.0  0.64149  0.09355  0.55364  1.0000
  H   H5        1.0  0.59511  0.44759  0.00493  1.0000
  H   H6        1.0  0.09511  0.05241  0.49507  1.0000
  H   H7        1.0  0.40489  0.55241  0.99507  1.0000
  H   H8        1.0  0.90489  0.94759  0.50493  1.0000
  H   H9        1.0  0.36625  0.40482  0.27697  1.0000
  H   H10       1.0  0.86625  0.09519  0.22303  1.0000
  H   H11       1.0  0.63375  0.59519  0.72303  1.0000
  H   H12       1.0  0.13375  0.90481  0.77697  1.0000
  H   H13       1.0  0.10692  0.26144  0.22360  1.0000
  H   H14       1.0  0.60693  0.23856  0.27640  1.0000
  H   H15       1.0  0.89307  0.73856  0.77640  1.0000
  H   H16       1.0  0.39308  0.76144  0.72360  1.0000
  H   H17       1.0  0.52685  0.99384  0.13988  1.0000
  H   H18       1.0  0.02685  0.50616  0.36012  1.0000
  H   H19       1.0  0.47315  0.00616  0.86012  1.0000
  H   H20       1.0  0.97315  0.49384  0.63988  1.0000
  H   H21       1.0  0.35953  0.07904  0.06838  1.0000
  H   H22       1.0  0.85953  0.42096  0.43162  1.0000
  H   H23       1.0  0.64047  0.92096  0.93162  1.0000
  H   H24       1.0  0.14047  0.57904  0.56838  1.0000
  H   H25       1.0  0.79457  0.85484  0.99093  1.0000
  H   H26       1.0  0.29457  0.64516  0.50907  1.0000
  H   H27       1.0  0.20543  0.14516  0.00907  1.0000
  H   H28       1.0  0.70543  0.35484  0.49093  1.0000
  H   H29       1.0  0.98333  0.78097  0.06640  1.0000
  H   H30       1.0  0.48333  0.71903  0.43360  1.0000
  H   H31       1.0  0.01667  0.21903  0.93360  1.0000
  H   H32       1.0  0.51667  0.28097  0.56640  1.0000
  C   C1        1.0  0.16011  0.64273  0.15739  1.0000
  C   C2        1.0  0.66011  0.85727  0.34261  1.0000
  C   C3        1.0  0.83989  0.35727  0.84261  1.0000
  C   C4        1.0  0.33989  0.14273  0.65739  1.0000
  C   C5        1.0  0.03576  0.54793  0.12927  1.0000
  C   C6        1.0  0.53576  0.95207  0.37073  1.0000
  C   C7        1.0  0.96424  0.45208  0.87073  1.0000
  C   C8        1.0  0.46424  0.04792  0.62927  1.0000
  C   C9        1.0  0.87360  0.53726  0.07464  1.0000
  C   C10       1.0  0.37360  0.96274  0.42535  1.0000
  C   C11       1.0  0.12640  0.46274  0.92535  1.0000
  C   C12       1.0  0.62640  0.03726  0.57465  1.0000
  C   C13       1.0  0.72083  0.45707  0.04799  1.0000
  C   C14       1.0  0.22083  0.04293  0.45201  1.0000
  C   C15       1.0  0.27917  0.54293  0.95201  1.0000
  C   C16       1.0  0.77917  0.95707  0.54799  1.0000
  C   C17       1.0  0.72960  0.38644  0.07570  1.0000
  C   C18       1.0  0.22960  0.11356  0.42430  1.0000
  C   C19       1.0  0.27040  0.61356  0.92430  1.0000
  C   C20       1.0  0.77039  0.88644  0.57570  1.0000
  C   C21       1.0  0.90493  0.39195  0.12858  1.0000
  C   C22       1.0  0.40493  0.10805  0.37142  1.0000
  C   C23       1.0  0.09507  0.60805  0.87142  1.0000
  C   C24       1.0  0.59507  0.89195  0.62858  1.0000
  C   C25       1.0  0.06095  0.47441  0.15711  1.0000
  C   C26       1.0  0.56095  0.02559  0.34289  1.0000
  C   C27       1.0  0.93905  0.52560  0.84289  1.0000
  C   C28       1.0  0.43905  0.97440  0.65711  1.0000
  C   C29       1.0  0.22389  0.47752  0.21236  1.0000
  C   C30       1.0  0.72389  0.02248  0.28764  1.0000
  C   C31       1.0  0.77611  0.52248  0.78764  1.0000
  C   C32       1.0  0.27611  0.97752  0.71236  1.0000
  C   C33       1.0  0.24075  0.40105  0.23464  1.0000
  C   C34       1.0  0.74075  0.09895  0.26536  1.0000
  C   C35       1.0  0.75925  0.59895  0.76536  1.0000
  C   C36       1.0  0.25925  0.90105  0.73464  1.0000
  C   C37       1.0  0.09276  0.32045  0.20537  1.0000
  C   C38       1.0  0.59276  0.17955  0.29463  1.0000
  C   C39       1.0  0.90724  0.67955  0.79463  1.0000
  C   C40       1.0  0.40724  0.82045  0.70537  1.0000
  C   C41       1.0  0.92189  0.31619  0.15345  1.0000
  C   C42       1.0  0.42188  0.18381  0.34655  1.0000
  C   C43       1.0  0.07811  0.68381  0.84655  1.0000
  C   C44       1.0  0.57811  0.81619  0.65345  1.0000
  C   C45       1.0  0.38141  0.56100  0.25312  1.0000
  C   C46       1.0  0.88141  0.93900  0.24688  1.0000
  C   C47       1.0  0.61859  0.43900  0.74688  1.0000
  C   C48       1.0  0.11859  0.06100  0.75312  1.0000
  C   C49       1.0  0.75876  0.23328  0.12516  1.0000
  C   C50       1.0  0.25876  0.26672  0.37484  1.0000
  C   C51       1.0  0.24124  0.76672  0.87484  1.0000
  C   C52       1.0  0.74124  0.73328  0.62516  1.0000
  C   C53       1.0  0.54755  0.30837  0.05118  1.0000
  C   C54       1.0  0.04756  0.19163  0.44882  1.0000
  C   C55       1.0  0.45245  0.69163  0.94882  1.0000
  C   C56       1.0  0.95246  0.80837  0.55118  1.0000
  C   C57       1.0  0.36333  0.96563  0.10622  1.0000
  C   C58       1.0  0.86333  0.53437  0.39378  1.0000
  C   C59       1.0  0.63667  0.03437  0.89378  1.0000
  C   C60       1.0  0.13667  0.46563  0.60622  1.0000
  C   C61       1.0  0.26703  0.01316  0.06524  1.0000
  C   C62       1.0  0.76703  0.48684  0.43476  1.0000
  C   C63       1.0  0.73297  0.98684  0.93476  1.0000
  C   C64       1.0  0.23297  0.51316  0.56524  1.0000
  C   C65       1.0  0.05610  0.97579  0.02201  1.0000
  C   C66       1.0  0.55610  0.52421  0.47799  1.0000
  C   C67       1.0  0.94390  0.02421  0.97799  1.0000
  C   C68       1.0  0.44390  0.47579  0.52201  1.0000
  C   C69       1.0  0.95657  0.88986  0.02263  1.0000
  C   C70       1.0  0.45657  0.61014  0.47737  1.0000
  C   C71       1.0  0.04343  0.11014  0.97737  1.0000
  C   C72       1.0  0.54343  0.38986  0.52263  1.0000
  C   C73       1.0  0.06310  0.84695  0.06527  1.0000
  C   C74       1.0  0.56310  0.65305  0.43473  1.0000
  C   C75       1.0  0.93690  0.15305  0.93473  1.0000
  C   C76       1.0  0.43690  0.34695  0.56527  1.0000
  N   N1        1.0  0.26299  0.88396  0.10698  1.0000
  N   N2        1.0  0.76299  0.61604  0.39302  1.0000
  N   N3        1.0  0.73701  0.11604  0.89302  1.0000
  N   N4        1.0  0.23701  0.38396  0.60698  1.0000
  O   O1        1.0  0.32049  0.66840  0.12108  1.0000
  O   O2        1.0  0.82050  0.83160  0.37892  1.0000
  O   O3        1.0  0.67951  0.33160  0.87892  1.0000
  O   O4        1.0  0.17951  0.16840  0.62108  1.0000
  O   O5        1.0  0.08504  0.69744  0.21412  1.0000
  O   O6        1.0  0.58504  0.80256  0.28588  1.0000
  O   O7        1.0  0.91495  0.30256  0.78588  1.0000
  O   O8        1.0  0.41496  0.19744  0.71412  1.0000
  O   O9        1.0  0.61353  0.56646  0.23371  1.0000
  O   O10       1.0  0.11353  0.93354  0.26629  1.0000
  O   O11       1.0  0.38647  0.43354  0.76629  1.0000
  O   O12       1.0  0.88647  0.06646  0.73371  1.0000
  O   O13       1.0  0.27977  0.61506  0.30646  1.0000
  O   O14       1.0  0.77977  0.88494  0.19354  1.0000
  O   O15       1.0  0.72024  0.38494  0.69354  1.0000
  O   O16       1.0  0.22024  0.11506  0.80646  1.0000
  O   O17       1.0  0.76449  0.16269  0.14063  1.0000
  O   O18       1.0  0.26450  0.33731  0.35937  1.0000
  O   O19       1.0  0.23551  0.83731  0.85937  1.0000
  O   O20       1.0  0.73551  0.66269  0.64063  1.0000
  O   O21       1.0  0.57433  0.23495  0.07700  1.0000
  O   O22       1.0  0.07433  0.26505  0.42300  1.0000
  O   O23       1.0  0.42567  0.76505  0.92300  1.0000
  O   O24       1.0  0.92567  0.73495  0.57700  1.0000
  O   O25       1.0  0.37046  0.30153  0.01138  1.0000
  O   O26       1.0  0.87045  0.19846  0.48862  1.0000
  O   O27       1.0  0.62953  0.69847  0.98862  1.0000
  O   O28       1.0  0.12953  0.80153  0.51139  1.0000
