data_image0
_chemical_formula_structural       Cu2H48C44N4O8
_chemical_formula_sum              "Cu2 H48 C44 N4 O8"
_cell_length_a       10.8562
_cell_length_b       10.8338
_cell_length_c       10.8976
_cell_angle_alpha    110.055
_cell_angle_beta     109.673
_cell_angle_gamma    95.4233

_space_group_name_H-M_alt    "P 1"
_space_group_IT_number       1

loop_
  _space_group_symop_operation_xyz
  'x, y, z'

loop_
  _atom_site_type_symbol
  _atom_site_label
  _atom_site_symmetry_multiplicity
  _atom_site_fract_x
  _atom_site_fract_y
  _atom_site_fract_z
  _atom_site_occupancy
  Cu  Cu1       1.0  0.70353  0.69994  0.54493  1.0000
  Cu  Cu2       1.0  0.29647  0.30006  0.45507  1.0000
  H   H1        1.0  0.56761  0.39073  0.41049  1.0000
  H   H2        1.0  0.43240  0.60927  0.58951  1.0000
  H   H3        1.0  0.65729  0.18730  0.40363  1.0000
  H   H4        1.0  0.34272  0.81270  0.59637  1.0000
  H   H5        1.0  0.90542  0.21423  0.53325  1.0000
  H   H6        1.0  0.09459  0.78576  0.46675  1.0000
  H   H7        1.0  0.14112  0.37930  0.68881  1.0000
  H   H8        1.0  0.85889  0.62071  0.31119  1.0000
  H   H9        1.0  0.27596  0.61034  0.81671  1.0000
  H   H10       1.0  0.72404  0.38967  0.18330  1.0000
  H   H11       1.0  0.28796  0.86785  0.89236  1.0000
  H   H12       1.0  0.71204  0.13215  0.10764  1.0000
  H   H13       1.0  0.16385  0.04849  0.87530  1.0000
  H   H14       1.0  0.83615  0.95151  0.12470  1.0000
  H   H15       1.0  0.91334  0.98069  0.72752  1.0000
  H   H16       1.0  0.08665  0.01930  0.27248  1.0000
  H   H17       1.0  0.45046  0.45062  0.06093  1.0000
  H   H18       1.0  0.54954  0.54938  0.93907  1.0000
  H   H19       1.0  0.39349  0.59938  0.09315  1.0000
  H   H20       1.0  0.60651  0.40062  0.90685  1.0000
  H   H21       1.0  0.26832  0.52523  0.22522  1.0000
  H   H22       1.0  0.73168  0.47477  0.77477  1.0000
  H   H23       1.0  0.31920  0.37185  0.18285  1.0000
  H   H24       1.0  0.68080  0.62814  0.81714  1.0000
  H   H25       1.0  0.20415  0.32459  0.92037  1.0000
  H   H26       1.0  0.79584  0.67541  0.07962  1.0000
  H   H27       1.0  0.15324  0.47698  0.96681  1.0000
  H   H28       1.0  0.84676  0.52302  0.03318  1.0000
  H   H29       1.0  0.06779  0.23686  0.03269  1.0000
  H   H30       1.0  0.93221  0.76315  0.96731  1.0000
  H   H31       1.0  0.02239  0.39258  0.08592  1.0000
  H   H32       1.0  0.97761  0.60743  0.91409  1.0000
  H   H33       1.0  0.95584  0.21006  0.77507  1.0000
  H   H34       1.0  0.04416  0.78994  0.22493  1.0000
  H   H35       1.0  0.90622  0.36166  0.83498  1.0000
  H   H36       1.0  0.09378  0.63834  0.16502  1.0000
  H   H37       1.0  0.82305  0.10560  0.87727  1.0000
  H   H38       1.0  0.17694  0.89440  0.12273  1.0000
  H   H39       1.0  0.77688  0.25767  0.94480  1.0000
  H   H40       1.0  0.22311  0.74234  0.05519  1.0000
  H   H41       1.0  0.70916  0.11317  0.62660  1.0000
  H   H42       1.0  0.29084  0.88682  0.37340  1.0000
  H   H43       1.0  0.63831  0.23998  0.70865  1.0000
  H   H44       1.0  0.36169  0.76002  0.29133  1.0000
  H   H45       1.0  0.47617  0.02646  0.60810  1.0000
  H   H46       1.0  0.52383  0.97354  0.39190  1.0000
  H   H47       1.0  0.54379  0.06821  0.79378  1.0000
  H   H48       1.0  0.45620  0.93179  0.20622  1.0000
  C   C1        1.0  0.67445  0.40092  0.46687  1.0000
  C   C2        1.0  0.32556  0.59908  0.53314  1.0000
  C   C3        1.0  0.72673  0.28638  0.46418  1.0000
  C   C4        1.0  0.27328  0.71361  0.53582  1.0000
  C   C5        1.0  0.86292  0.30188  0.53537  1.0000
  C   C6        1.0  0.13708  0.69812  0.46464  1.0000
  C   C7        1.0  0.94859  0.43327  0.61146  1.0000
  C   C8        1.0  0.05141  0.56673  0.38854  1.0000
  C   C9        1.0  0.09112  0.46196  0.68835  1.0000
  C   C10       1.0  0.90889  0.53805  0.31166  1.0000
  C   C11       1.0  0.16749  0.59216  0.75989  1.0000
  C   C12       1.0  0.83251  0.40784  0.24011  1.0000
  C   C13       1.0  0.10810  0.70467  0.75974  1.0000
  C   C14       1.0  0.89191  0.29533  0.24026  1.0000
  C   C15       1.0  0.17959  0.84186  0.83067  1.0000
  C   C16       1.0  0.82042  0.15814  0.16933  1.0000
  C   C17       1.0  0.11115  0.94200  0.82092  1.0000
  C   C18       1.0  0.88885  0.05800  0.17908  1.0000
  C   C19       1.0  0.97144  0.90575  0.73968  1.0000
  C   C20       1.0  0.02856  0.09425  0.26033  1.0000
  C   C21       1.0  0.96757  0.67820  0.68244  1.0000
  C   C22       1.0  0.03243  0.32179  0.31756  1.0000
  C   C23       1.0  0.88741  0.54236  0.60883  1.0000
  C   C24       1.0  0.11260  0.45765  0.39118  1.0000
  C   C25       1.0  0.54092  0.59476  0.27583  1.0000
  C   C26       1.0  0.45908  0.40524  0.72417  1.0000
  C   C27       1.0  0.41857  0.52255  0.13671  1.0000
  C   C28       1.0  0.58143  0.47744  0.86329  1.0000
  C   C29       1.0  0.29501  0.45230  0.14505  1.0000
  C   C30       1.0  0.70499  0.54770  0.85495  1.0000
  C   C31       1.0  0.17566  0.39432  0.00157  1.0000
  C   C32       1.0  0.82434  0.60568  0.99843  1.0000
  C   C33       1.0  0.04832  0.32285  0.00258  1.0000
  C   C34       1.0  0.95167  0.67715  0.99742  1.0000
  C   C35       1.0  0.92811  0.27401  0.86043  1.0000
  C   C36       1.0  0.07189  0.72599  0.13957  1.0000
  C   C37       1.0  0.80144  0.19570  0.85626  1.0000
  C   C38       1.0  0.19855  0.80431  0.14374  1.0000
  C   C39       1.0  0.67883  0.15263  0.71663  1.0000
  C   C40       1.0  0.32117  0.84737  0.28337  1.0000
  C   C41       1.0  0.56879  0.04128  0.69957  1.0000
  C   C42       1.0  0.43120  0.95872  0.30043  1.0000
  C   C43       1.0  0.61034  0.90698  0.67297  1.0000
  C   C44       1.0  0.38966  0.09301  0.32703  1.0000
  N   N1        1.0  0.75337  0.52542  0.53732  1.0000
  N   N2        1.0  0.24662  0.47457  0.46268  1.0000
  N   N3        1.0  0.90190  0.77732  0.67263  1.0000
  N   N4        1.0  0.09810  0.22268  0.32737  1.0000
  O   O1        1.0  0.52353  0.60628  0.39127  1.0000
  O   O2        1.0  0.47646  0.39373  0.60873  1.0000
  O   O3        1.0  0.65158  0.64045  0.27591  1.0000
  O   O4        1.0  0.34842  0.35954  0.72409  1.0000
  O   O5        1.0  0.66511  0.87722  0.58012  1.0000
  O   O6        1.0  0.33489  0.12278  0.41988  1.0000
  O   O7        1.0  0.59156  0.83308  0.73475  1.0000
  O   O8        1.0  0.40844  0.16693  0.26525  1.0000
