data_image0
_chemical_formula_structural       Zn8H16C8N64
_chemical_formula_sum              "Zn8 H16 C8 N64"
_cell_length_a       10.7031
_cell_length_b       10.8054
_cell_length_c       11.3161
_cell_angle_alpha    90
_cell_angle_beta     90
_cell_angle_gamma    114.297

_space_group_name_H-M_alt    "P 1"
_space_group_IT_number       1

loop_
  _space_group_symop_operation_xyz
  'x, y, z'

loop_
  _atom_site_type_symbol
  _atom_site_label
  _atom_site_symmetry_multiplicity
  _atom_site_fract_x
  _atom_site_fract_y
  _atom_site_fract_z
  _atom_site_occupancy
  Zn  Zn1       1.0  0.63594  0.58845  0.67582  1.0000
  Zn  Zn2       1.0  0.86406  0.91155  0.17582  1.0000
  Zn  Zn3       1.0  0.36406  0.41155  0.32418  1.0000
  Zn  Zn4       1.0  0.13594  0.08845  0.82418  1.0000
  Zn  Zn5       1.0  0.69830  0.68003  0.36948  1.0000
  Zn  Zn6       1.0  0.80170  0.81997  0.86948  1.0000
  Zn  Zn7       1.0  0.30170  0.31997  0.63052  1.0000
  Zn  Zn8       1.0  0.19830  0.18003  0.13052  1.0000
  H   H1        1.0  0.67443  0.28463  0.64377  1.0000
  H   H2        1.0  0.82557  0.21537  0.14377  1.0000
  H   H3        1.0  0.32557  0.71537  0.35623  1.0000
  H   H4        1.0  0.17443  0.78463  0.85623  1.0000
  H   H5        1.0  0.77217  0.41434  0.28932  1.0000
  H   H6        1.0  0.72782  0.08565  0.78932  1.0000
  H   H7        1.0  0.22782  0.58565  0.71068  1.0000
  H   H8        1.0  0.27217  0.91434  0.21068  1.0000
  H   H9        1.0  0.64567  0.11132  0.43518  1.0000
  H   H10       1.0  0.85433  0.38868  0.93518  1.0000
  H   H11       1.0  0.35433  0.88868  0.56482  1.0000
  H   H12       1.0  0.14567  0.61132  0.06482  1.0000
  H   H13       1.0  0.80839  0.17914  0.48103  1.0000
  H   H14       1.0  0.69161  0.32086  0.98103  1.0000
  H   H15       1.0  0.19161  0.82086  0.51897  1.0000
  H   H16       1.0  0.30839  0.67914  0.01897  1.0000
  C   C1        1.0  0.69336  0.34591  0.56421  1.0000
  C   C2        1.0  0.80664  0.15409  0.06420  1.0000
  C   C3        1.0  0.30664  0.65409  0.43580  1.0000
  C   C4        1.0  0.19336  0.84591  0.93579  1.0000
  C   C5        1.0  0.74347  0.41295  0.38125  1.0000
  C   C6        1.0  0.75652  0.08705  0.88124  1.0000
  C   C7        1.0  0.25652  0.58705  0.61876  1.0000
  C   C8        1.0  0.24347  0.91295  0.11875  1.0000
  N   N1        1.0  0.63320  0.70821  0.53297  1.0000
  N   N2        1.0  0.86680  0.79179  0.03297  1.0000
  N   N3        1.0  0.36680  0.29179  0.46703  1.0000
  N   N4        1.0  0.13320  0.20821  0.96703  1.0000
  N   N5        1.0  0.61440  0.81093  0.54706  1.0000
  N   N6        1.0  0.88560  0.68907  0.04706  1.0000
  N   N7        1.0  0.38560  0.18907  0.45294  1.0000
  N   N8        1.0  0.11440  0.31093  0.95294  1.0000
  N   N9        1.0  0.59544  0.90801  0.55973  1.0000
  N   N10       1.0  0.90456  0.59199  0.05973  1.0000
  N   N11       1.0  0.40456  0.09199  0.44027  1.0000
  N   N12       1.0  0.09544  0.40801  0.94027  1.0000
  N   N13       1.0  0.61515  0.74269  0.79189  1.0000
  N   N14       1.0  0.88485  0.75731  0.29189  1.0000
  N   N15       1.0  0.38485  0.25731  0.20811  1.0000
  N   N16       1.0  0.11516  0.24269  0.70811  1.0000
  N   N17       1.0  0.51135  0.75005  0.82475  1.0000
  N   N18       1.0  0.98865  0.74995  0.32475  1.0000
  N   N19       1.0  0.48865  0.24995  0.17525  1.0000
  N   N20       1.0  0.01135  0.25005  0.67525  1.0000
  N   N21       1.0  0.40961  0.75518  0.85388  1.0000
  N   N22       1.0  0.09039  0.74482  0.35388  1.0000
  N   N23       1.0  0.59039  0.24482  0.14612  1.0000
  N   N24       1.0  0.90961  0.25518  0.64612  1.0000
  N   N25       1.0  0.79747  0.62986  0.78792  1.0000
  N   N26       1.0  0.70254  0.87014  0.28792  1.0000
  N   N27       1.0  0.20253  0.37014  0.21208  1.0000
  N   N28       1.0  0.29747  0.12986  0.71207  1.0000
  N   N29       1.0  0.89853  0.60892  0.76830  1.0000
  N   N30       1.0  0.60147  0.89108  0.26830  1.0000
  N   N31       1.0  0.10147  0.39108  0.23170  1.0000
  N   N32       1.0  0.39853  0.10892  0.73170  1.0000
  N   N33       1.0  0.99635  0.58986  0.75300  1.0000
  N   N34       1.0  0.50366  0.91014  0.25300  1.0000
  N   N35       1.0  0.00366  0.41014  0.24700  1.0000
  N   N36       1.0  0.49634  0.08986  0.74700  1.0000
  N   N37       1.0  0.46260  0.43493  0.73915  1.0000
  N   N38       1.0  0.03740  0.06507  0.23915  1.0000
  N   N39       1.0  0.53740  0.56507  0.26085  1.0000
  N   N40       1.0  0.96260  0.93493  0.76085  1.0000
  N   N41       1.0  0.46609  0.39674  0.84025  1.0000
  N   N42       1.0  0.03391  0.10326  0.34025  1.0000
  N   N43       1.0  0.53391  0.60326  0.15975  1.0000
  N   N44       1.0  0.96609  0.89674  0.65974  1.0000
  N   N45       1.0  0.46800  0.35947  0.93552  1.0000
  N   N46       1.0  0.03200  0.14053  0.43552  1.0000
  N   N47       1.0  0.53200  0.64053  0.06448  1.0000
  N   N48       1.0  0.96800  0.85948  0.56448  1.0000
  N   N49       1.0  0.68857  0.46553  0.55369  1.0000
  N   N50       1.0  0.81143  0.03447  0.05369  1.0000
  N   N51       1.0  0.31143  0.53447  0.44631  1.0000
  N   N52       1.0  0.18857  0.96553  0.94631  1.0000
  N   N53       1.0  0.72645  0.30945  0.45675  1.0000
  N   N54       1.0  0.77355  0.19055  0.95674  1.0000
  N   N55       1.0  0.27355  0.69055  0.54326  1.0000
  N   N56       1.0  0.22645  0.80945  0.04325  1.0000
  N   N57       1.0  0.72018  0.50760  0.43854  1.0000
  N   N58       1.0  0.77982  0.99240  0.93854  1.0000
  N   N59       1.0  0.27982  0.49240  0.56146  1.0000
  N   N60       1.0  0.22018  0.00760  0.06146  1.0000
  N   N61       1.0  0.73957  0.19054  0.42340  1.0000
  N   N62       1.0  0.76043  0.30946  0.92340  1.0000
  N   N63       1.0  0.26043  0.80946  0.57660  1.0000
  N   N64       1.0  0.23957  0.69054  0.07660  1.0000
