data_image0
_chemical_formula_structural       Zn2H22C16N14
_chemical_formula_sum              "Zn2 H22 C16 N14"
_cell_length_a       6.15451
_cell_length_b       9.48123
_cell_length_c       9.62716
_cell_angle_alpha    85.6778
_cell_angle_beta     76.1412
_cell_angle_gamma    81.8602

_space_group_name_H-M_alt    "P 1"
_space_group_IT_number       1

loop_
  _space_group_symop_operation_xyz
  'x, y, z'

loop_
  _atom_site_type_symbol
  _atom_site_label
  _atom_site_symmetry_multiplicity
  _atom_site_fract_x
  _atom_site_fract_y
  _atom_site_fract_z
  _atom_site_occupancy
  Zn  Zn1       1.0  0.71824  0.04594  0.54581  1.0000
  Zn  Zn2       1.0  0.28176  0.95406  0.45419  1.0000
  H   H1        1.0  0.96530  0.25802  0.61037  1.0000
  H   H2        1.0  0.03471  0.74198  0.38962  1.0000
  H   H3        1.0  0.65227  0.39959  0.03552  1.0000
  H   H4        1.0  0.34773  0.60040  0.96447  1.0000
  H   H5        1.0  0.35709  0.24316  0.04387  1.0000
  H   H6        1.0  0.64292  0.75684  0.95613  1.0000
  H   H7        1.0  0.26977  0.08132  0.74193  1.0000
  H   H8        1.0  0.73022  0.91868  0.25808  1.0000
  H   H9        1.0  0.19728  0.08177  0.93282  1.0000
  H   H10       1.0  0.80272  0.91823  0.06718  1.0000
  H   H11       1.0  0.41301  0.95333  0.84350  1.0000
  H   H12       1.0  0.58699  0.04667  0.15650  1.0000
  H   H13       1.0  0.09742  0.40482  0.90155  1.0000
  H   H14       1.0  0.90257  0.59518  0.09845  1.0000
  H   H15       1.0  0.92327  0.54802  0.84327  1.0000
  H   H16       1.0  0.07674  0.45199  0.15672  1.0000
  H   H17       1.0  0.28522  0.34935  0.64451  1.0000
  H   H18       1.0  0.71479  0.65065  0.35549  1.0000
  H   H19       1.0  0.30279  0.52639  0.68161  1.0000
  H   H20       1.0  0.69723  0.47361  0.31839  1.0000
  H   H21       1.0  0.10453  0.49231  0.58519  1.0000
  H   H22       1.0  0.89549  0.50769  0.41481  1.0000
  C   C1        1.0  0.83527  0.25857  0.70982  1.0000
  C   C2        1.0  0.16474  0.74143  0.29016  1.0000
  C   C3        1.0  0.83518  0.34433  0.82102  1.0000
  C   C4        1.0  0.16481  0.65568  0.17899  1.0000
  C   C5        1.0  0.65986  0.33651  0.94392  1.0000
  C   C6        1.0  0.34016  0.66350  0.05606  1.0000
  C   C7        1.0  0.49614  0.24828  0.94990  1.0000
  C   C8        1.0  0.50384  0.75173  0.05010  1.0000
  C   C9        1.0  0.50752  0.16414  0.83450  1.0000
  C   C10       1.0  0.49249  0.83587  0.16549  1.0000
  C   C11       1.0  0.33724  0.06520  0.83854  1.0000
  C   C12       1.0  0.66276  0.93481  0.16146  1.0000
  C   C13       1.0  0.01131  0.44115  0.81476  1.0000
  C   C14       1.0  0.98869  0.55885  0.18524  1.0000
  C   C15       1.0  0.18464  0.45259  0.67348  1.0000
  C   C16       1.0  0.81537  0.54740  0.32652  1.0000
  N   N1        1.0  0.98048  0.09777  0.38912  1.0000
  N   N2        1.0  0.01952  0.90223  0.61089  1.0000
  N   N3        1.0  0.97502  0.14608  0.26985  1.0000
  N   N4        1.0  0.02497  0.85393  0.73016  1.0000
  N   N5        1.0  0.97612  0.19215  0.15436  1.0000
  N   N6        1.0  0.02387  0.80786  0.84564  1.0000
  N   N7        1.0  0.43755  0.13096  0.45300  1.0000
  N   N8        1.0  0.56245  0.86904  0.54700  1.0000
  N   N9        1.0  0.40535  0.23973  0.38177  1.0000
  N   N10       1.0  0.59465  0.76026  0.61824  1.0000
  N   N11       1.0  0.37320  0.34420  0.31496  1.0000
  N   N12       1.0  0.62680  0.65580  0.68505  1.0000
  N   N13       1.0  0.67776  0.17044  0.71637  1.0000
  N   N14       1.0  0.32223  0.82957  0.28363  1.0000
