data_image0
_chemical_formula_structural       Cu4H16C24S4O20
_chemical_formula_sum              "Cu4 H16 C24 S4 O20"
_cell_length_a       6.03532
_cell_length_b       10.4348
_cell_length_c       17.6001
_cell_angle_alpha    89.9936
_cell_angle_beta     89.9549
_cell_angle_gamma    94.2249

_space_group_name_H-M_alt    "P 1"
_space_group_IT_number       1

loop_
  _space_group_symop_operation_xyz
  'x, y, z'

loop_
  _atom_site_type_symbol
  _atom_site_label
  _atom_site_symmetry_multiplicity
  _atom_site_fract_x
  _atom_site_fract_y
  _atom_site_fract_z
  _atom_site_occupancy
  Cu  Cu1       1.0  0.00001  0.50001  0.50000  1.0000
  Cu  Cu2       1.0  0.50001  0.00001  0.00000  1.0000
  Cu  Cu3       1.0  0.50000  0.49999  0.50000  1.0000
  Cu  Cu4       1.0  0.00001  0.00001  0.00000  1.0000
  H   H1        1.0  0.71365  0.30783  0.55291  1.0000
  H   H2        1.0  0.78539  0.19202  0.05305  1.0000
  H   H3        1.0  0.28636  0.69215  0.44709  1.0000
  H   H4        1.0  0.21459  0.80801  0.94695  1.0000
  H   H5        1.0  0.69463  0.30643  0.46047  1.0000
  H   H6        1.0  0.80468  0.19336  0.96050  1.0000
  H   H7        1.0  0.30536  0.69356  0.53953  1.0000
  H   H8        1.0  0.19534  0.80665  0.03950  1.0000
  H   H9        1.0  0.10993  0.81138  0.68679  1.0000
  H   H10       1.0  0.39103  0.68899  0.18716  1.0000
  H   H11       1.0  0.89003  0.18862  0.31320  1.0000
  H   H12       1.0  0.60898  0.31100  0.81284  1.0000
  H   H13       1.0  0.98617  0.91042  0.81811  1.0000
  H   H14       1.0  0.51438  0.58974  0.31842  1.0000
  H   H15       1.0  0.01380  0.08959  0.18189  1.0000
  H   H16       1.0  0.48564  0.41025  0.68158  1.0000
  C   C1        1.0  0.78999  0.63140  0.61315  1.0000
  C   C2        1.0  0.71103  0.86864  0.11334  1.0000
  C   C3        1.0  0.20999  0.36861  0.38684  1.0000
  C   C4        1.0  0.28897  0.13135  0.88665  1.0000
  C   C5        1.0  0.78534  0.70519  0.68375  1.0000
  C   C6        1.0  0.71577  0.79498  0.18397  1.0000
  C   C7        1.0  0.21463  0.29481  0.31625  1.0000
  C   C8        1.0  0.28422  0.20503  0.81603  1.0000
  C   C9        1.0  0.95012  0.78973  0.71431  1.0000
  C   C10       1.0  0.55080  0.71057  0.21465  1.0000
  C   C11       1.0  0.04985  0.21027  0.28569  1.0000
  C   C12       1.0  0.44922  0.28942  0.78535  1.0000
  C   C13       1.0  0.88516  0.84206  0.78383  1.0000
  C   C14       1.0  0.61561  0.65811  0.28413  1.0000
  C   C15       1.0  0.11483  0.15793  0.21617  1.0000
  C   C16       1.0  0.38442  0.34188  0.71587  1.0000
  C   C17       1.0  0.67229  0.79653  0.80518  1.0000
  C   C18       1.0  0.82846  0.70358  0.30539  1.0000
  C   C19       1.0  0.32769  0.20348  0.19482  1.0000
  C   C20       1.0  0.17157  0.29641  0.69461  1.0000
  C   C21       1.0  0.54403  0.83072  0.87280  1.0000
  C   C22       1.0  0.95645  0.66934  0.37298  1.0000
  C   C23       1.0  0.45596  0.16929  0.12720  1.0000
  C   C24       1.0  0.04358  0.33065  0.62702  1.0000
  S   S1        1.0  0.55192  0.68950  0.74049  1.0000
  S   S2        1.0  0.94919  0.81049  0.24059  1.0000
  S   S3        1.0  0.44808  0.31050  0.25952  1.0000
  S   S4        1.0  0.05082  0.18952  0.75941  1.0000
  O   O1        1.0  0.96130  0.64581  0.57036  1.0000
  O   O2        1.0  0.53989  0.85417  0.07061  1.0000
  O   O3        1.0  0.03869  0.35419  0.42964  1.0000
  O   O4        1.0  0.46010  0.14584  0.92939  1.0000
  O   O5        1.0  0.61922  0.55365  0.59980  1.0000
  O   O6        1.0  0.88201  0.94635  0.09985  1.0000
  O   O7        1.0  0.38081  0.44633  0.40019  1.0000
  O   O8        1.0  0.11799  0.05366  0.90016  1.0000
  O   O9        1.0  0.64187  0.91639  0.91672  1.0000
  O   O10       1.0  0.85842  0.58345  0.41679  1.0000
  O   O11       1.0  0.35813  0.08361  0.08328  1.0000
  O   O12       1.0  0.14160  0.41655  0.58321  1.0000
  O   O13       1.0  0.35078  0.77737  0.88153  1.0000
  O   O14       1.0  0.14948  0.72285  0.38171  1.0000
  O   O15       1.0  0.64920  0.22264  0.11847  1.0000
  O   O16       1.0  0.85057  0.27712  0.61828  1.0000
  O   O17       1.0  0.61297  0.32780  0.50623  1.0000
  O   O18       1.0  0.88611  0.17199  0.00627  1.0000
  O   O19       1.0  0.38702  0.67218  0.49377  1.0000
  O   O20       1.0  0.11388  0.82803  0.99374  1.0000
