data_image0
_chemical_formula_structural       Pr2H18C9O24
_chemical_formula_sum              "Pr2 H18 C9 O24"
_cell_length_a       8.95637
_cell_length_b       8.9565
_cell_length_c       8.95643
_cell_angle_alpha    65.7735
_cell_angle_beta     65.7737
_cell_angle_gamma    65.7737

_space_group_name_H-M_alt    "P 1"
_space_group_IT_number       1

loop_
  _space_group_symop_operation_xyz
  'x, y, z'

loop_
  _atom_site_type_symbol
  _atom_site_label
  _atom_site_symmetry_multiplicity
  _atom_site_fract_x
  _atom_site_fract_y
  _atom_site_fract_z
  _atom_site_occupancy
  Pr  Pr1       1.0  0.77063  0.77063  0.77064  1.0000
  Pr  Pr2       1.0  0.22936  0.22937  0.22937  1.0000
  H   H1        1.0  0.67245  0.45297  0.81284  1.0000
  H   H2        1.0  0.81284  0.67246  0.45297  1.0000
  H   H3        1.0  0.45297  0.81283  0.67245  1.0000
  H   H4        1.0  0.18716  0.54703  0.32755  1.0000
  H   H5        1.0  0.54704  0.32754  0.18717  1.0000
  H   H6        1.0  0.32755  0.18717  0.54704  1.0000
  H   H7        1.0  0.78468  0.71517  0.14387  1.0000
  H   H8        1.0  0.14388  0.78467  0.71517  1.0000
  H   H9        1.0  0.71517  0.14387  0.78467  1.0000
  H   H10       1.0  0.85613  0.28482  0.21533  1.0000
  H   H11       1.0  0.28483  0.21533  0.85613  1.0000
  H   H12       1.0  0.21534  0.85613  0.28482  1.0000
  H   H13       1.0  0.96631  0.62674  0.02965  1.0000
  H   H14       1.0  0.02965  0.96631  0.62674  1.0000
  H   H15       1.0  0.62674  0.02965  0.96631  1.0000
  H   H16       1.0  0.97035  0.37326  0.03370  1.0000
  H   H17       1.0  0.37326  0.03369  0.97035  1.0000
  H   H18       1.0  0.03370  0.97035  0.37326  1.0000
  C   C1        1.0  0.46265  0.53735  0.00000  1.0000
  C   C2        1.0  1.00000  0.46266  0.53735  1.0000
  C   C3        1.0  0.53735  1.00000  0.46265  1.0000
  C   C4        1.0  0.41163  0.68152  0.08353  1.0000
  C   C5        1.0  0.08354  0.41163  0.68151  1.0000
  C   C6        1.0  0.68152  0.08353  0.41162  1.0000
  C   C7        1.0  0.91646  0.31850  0.58836  1.0000
  C   C8        1.0  0.31849  0.58836  0.91646  1.0000
  C   C9        1.0  0.58835  0.91647  0.31849  1.0000
  O   O1        1.0  0.62401  0.53868  0.88069  1.0000
  O   O2        1.0  0.88069  0.62401  0.53868  1.0000
  O   O3        1.0  0.53868  0.88068  0.62401  1.0000
  O   O4        1.0  0.11932  0.46132  0.37600  1.0000
  O   O5        1.0  0.46132  0.37600  0.11932  1.0000
  O   O6        1.0  0.37600  0.11932  0.46132  1.0000
  O   O7        1.0  0.48522  0.79815  0.99818  1.0000
  O   O8        1.0  0.99818  0.48522  0.79816  1.0000
  O   O9        1.0  0.79816  0.99818  0.48522  1.0000
  O   O10       1.0  0.00180  0.20186  0.51477  1.0000
  O   O11       1.0  0.20185  0.51477  0.00182  1.0000
  O   O12       1.0  0.51477  0.00182  0.20185  1.0000
  O   O13       1.0  0.29606  0.67701  0.22525  1.0000
  O   O14       1.0  0.22524  0.29606  0.67701  1.0000
  O   O15       1.0  0.67702  0.22523  0.29606  1.0000
  O   O16       1.0  0.77475  0.32300  0.70394  1.0000
  O   O17       1.0  0.32300  0.70393  0.77475  1.0000
  O   O18       1.0  0.70394  0.77475  0.32300  1.0000
  O   O19       1.0  0.84443  0.68174  0.03575  1.0000
  O   O20       1.0  0.03576  0.84443  0.68175  1.0000
  O   O21       1.0  0.68175  0.03576  0.84442  1.0000
  O   O22       1.0  0.96424  0.31826  0.15558  1.0000
  O   O23       1.0  0.31826  0.15558  0.96425  1.0000
  O   O24       1.0  0.15558  0.96424  0.31826  1.0000
