data_image0
_chemical_formula_structural       Er2H18C9O24
_chemical_formula_sum              "Er2 H18 C9 O24"
_cell_length_a       8.72544
_cell_length_b       8.72546
_cell_length_c       8.7254
_cell_angle_alpha    66.463
_cell_angle_beta     66.463
_cell_angle_gamma    66.463

_space_group_name_H-M_alt    "P 1"
_space_group_IT_number       1

loop_
  _space_group_symop_operation_xyz
  'x, y, z'

loop_
  _atom_site_type_symbol
  _atom_site_label
  _atom_site_symmetry_multiplicity
  _atom_site_fract_x
  _atom_site_fract_y
  _atom_site_fract_z
  _atom_site_occupancy
  Er  Er1       1.0  0.23304  0.23304  0.23304  1.0000
  Er  Er2       1.0  0.76695  0.76696  0.76696  1.0000
  H   H1        1.0  0.32437  0.55060  0.19216  1.0000
  H   H2        1.0  0.19216  0.32438  0.55059  1.0000
  H   H3        1.0  0.55060  0.19217  0.32437  1.0000
  H   H4        1.0  0.80784  0.44940  0.67563  1.0000
  H   H5        1.0  0.44941  0.67562  0.80783  1.0000
  H   H6        1.0  0.67563  0.80784  0.44941  1.0000
  H   H7        1.0  0.23116  0.28388  0.86323  1.0000
  H   H8        1.0  0.86323  0.23116  0.28388  1.0000
  H   H9        1.0  0.28388  0.86323  0.23116  1.0000
  H   H10       1.0  0.13678  0.71612  0.76884  1.0000
  H   H11       1.0  0.71613  0.76884  0.13678  1.0000
  H   H12       1.0  0.76884  0.13677  0.71613  1.0000
  H   H13       1.0  0.04640  0.37426  0.97667  1.0000
  H   H14       1.0  0.97667  0.04640  0.37427  1.0000
  H   H15       1.0  0.37427  0.97667  0.04640  1.0000
  H   H16       1.0  0.02333  0.62573  0.95360  1.0000
  H   H17       1.0  0.62574  0.95360  0.02334  1.0000
  H   H18       1.0  0.95360  0.02332  0.62574  1.0000
  C   C1        1.0  0.53563  0.46437  0.00000  1.0000
  C   C2        1.0  1.00000  0.53564  0.46437  1.0000
  C   C3        1.0  0.46438  0.00000  0.53563  1.0000
  C   C4        1.0  0.58414  0.31548  0.91794  1.0000
  C   C5        1.0  0.91794  0.58415  0.31548  1.0000
  C   C6        1.0  0.31549  0.91794  0.58414  1.0000
  C   C7        1.0  0.08206  0.68452  0.41586  1.0000
  C   C8        1.0  0.68451  0.41586  0.08207  1.0000
  C   C9        1.0  0.41587  0.08206  0.68452  1.0000
  O   O1        1.0  0.37205  0.46236  0.12270  1.0000
  O   O2        1.0  0.12271  0.37207  0.46234  1.0000
  O   O3        1.0  0.46236  0.12270  0.37206  1.0000
  O   O4        1.0  0.87730  0.53765  0.62794  1.0000
  O   O5        1.0  0.53765  0.62793  0.87729  1.0000
  O   O6        1.0  0.62795  0.87730  0.53765  1.0000
  O   O7        1.0  0.50964  0.19661  0.00901  1.0000
  O   O8        1.0  0.00902  0.50965  0.19660  1.0000
  O   O9        1.0  0.19661  0.00902  0.50966  1.0000
  O   O10       1.0  0.99098  0.80340  0.49036  1.0000
  O   O11       1.0  0.80339  0.49035  0.99099  1.0000
  O   O12       1.0  0.49034  0.99099  0.80339  1.0000
  O   O13       1.0  0.69903  0.31826  0.77197  1.0000
  O   O14       1.0  0.77197  0.69903  0.31827  1.0000
  O   O15       1.0  0.31828  0.77197  0.69903  1.0000
  O   O16       1.0  0.22802  0.68174  0.30097  1.0000
  O   O17       1.0  0.68173  0.30097  0.22803  1.0000
  O   O18       1.0  0.30097  0.22804  0.68173  1.0000
  O   O19       1.0  0.17016  0.31979  0.97302  1.0000
  O   O20       1.0  0.97302  0.17016  0.31979  1.0000
  O   O21       1.0  0.31979  0.97302  0.17016  1.0000
  O   O22       1.0  0.02698  0.68021  0.82984  1.0000
  O   O23       1.0  0.68022  0.82984  0.02698  1.0000
  O   O24       1.0  0.82984  0.02697  0.68021  1.0000
