data_image0
_chemical_formula_structural       Nd2H18C9O24
_chemical_formula_sum              "Nd2 H18 C9 O24"
_cell_length_a       8.92374
_cell_length_b       8.92372
_cell_length_c       8.92374
_cell_angle_alpha    65.8663
_cell_angle_beta     65.8662
_cell_angle_gamma    65.8662

_space_group_name_H-M_alt    "P 1"
_space_group_IT_number       1

loop_
  _space_group_symop_operation_xyz
  'x, y, z'

loop_
  _atom_site_type_symbol
  _atom_site_label
  _atom_site_symmetry_multiplicity
  _atom_site_fract_x
  _atom_site_fract_y
  _atom_site_fract_z
  _atom_site_occupancy
  Nd  Nd1       1.0  0.76988  0.76988  0.76988  1.0000
  Nd  Nd2       1.0  0.23012  0.23012  0.23012  1.0000
  H   H1        1.0  0.67295  0.45207  0.81289  1.0000
  H   H2        1.0  0.81289  0.67295  0.45207  1.0000
  H   H3        1.0  0.45207  0.81288  0.67296  1.0000
  H   H4        1.0  0.18711  0.54793  0.32705  1.0000
  H   H5        1.0  0.54793  0.32705  0.18712  1.0000
  H   H6        1.0  0.32704  0.18711  0.54793  1.0000
  H   H7        1.0  0.78147  0.71538  0.14306  1.0000
  H   H8        1.0  0.14306  0.78147  0.71538  1.0000
  H   H9        1.0  0.71538  0.14306  0.78147  1.0000
  H   H10       1.0  0.85694  0.28462  0.21853  1.0000
  H   H11       1.0  0.28462  0.21853  0.85694  1.0000
  H   H12       1.0  0.21853  0.85694  0.28462  1.0000
  H   H13       1.0  0.96310  0.62654  0.02866  1.0000
  H   H14       1.0  0.02866  0.96310  0.62654  1.0000
  H   H15       1.0  0.62654  0.02866  0.96311  1.0000
  H   H16       1.0  0.97134  0.37346  0.03690  1.0000
  H   H17       1.0  0.37346  0.03690  0.97134  1.0000
  H   H18       1.0  0.03690  0.97135  0.37346  1.0000
  C   C1        1.0  0.46237  0.53763  1.00000  1.0000
  C   C2        1.0  0.00000  0.46237  0.53763  1.0000
  C   C3        1.0  0.53763  0.00000  0.46237  1.0000
  C   C4        1.0  0.41167  0.68246  0.08325  1.0000
  C   C5        1.0  0.08325  0.41167  0.68246  1.0000
  C   C6        1.0  0.68246  0.08325  0.41168  1.0000
  C   C7        1.0  0.91675  0.31754  0.58833  1.0000
  C   C8        1.0  0.31754  0.58833  0.91675  1.0000
  C   C9        1.0  0.58833  0.91674  0.31754  1.0000
  O   O1        1.0  0.62414  0.53890  0.88030  1.0000
  O   O2        1.0  0.88030  0.62414  0.53890  1.0000
  O   O3        1.0  0.53890  0.88030  0.62414  1.0000
  O   O4        1.0  0.11970  0.46110  0.37587  1.0000
  O   O5        1.0  0.46111  0.37586  0.11970  1.0000
  O   O6        1.0  0.37586  0.11970  0.46110  1.0000
  O   O7        1.0  0.48556  0.79932  0.99729  1.0000
  O   O8        1.0  0.99729  0.48556  0.79932  1.0000
  O   O9        1.0  0.79931  0.99729  0.48556  1.0000
  O   O10       1.0  0.00271  0.20068  0.51444  1.0000
  O   O11       1.0  0.20069  0.51444  0.00271  1.0000
  O   O12       1.0  0.51444  0.00271  0.20068  1.0000
  O   O13       1.0  0.29586  0.67829  0.22546  1.0000
  O   O14       1.0  0.22546  0.29586  0.67829  1.0000
  O   O15       1.0  0.67829  0.22546  0.29586  1.0000
  O   O16       1.0  0.77455  0.32171  0.70414  1.0000
  O   O17       1.0  0.32171  0.70414  0.77454  1.0000
  O   O18       1.0  0.70414  0.77454  0.32171  1.0000
  O   O19       1.0  0.84086  0.68129  0.03477  1.0000
  O   O20       1.0  0.03477  0.84086  0.68129  1.0000
  O   O21       1.0  0.68129  0.03477  0.84086  1.0000
  O   O22       1.0  0.96523  0.31871  0.15914  1.0000
  O   O23       1.0  0.31871  0.15914  0.96523  1.0000
  O   O24       1.0  0.15914  0.96523  0.31871  1.0000
