data_image0
_chemical_formula_structural       Cd2H36C32N12O10
_chemical_formula_sum              "Cd2 H36 C32 N12 O10"
_cell_length_a       10.4835
_cell_length_b       10.4844
_cell_length_c       11.0757
_cell_angle_alpha    80.7525
_cell_angle_beta     63.9963
_cell_angle_gamma    69.2479

_space_group_name_H-M_alt    "P 1"
_space_group_IT_number       1

loop_
  _space_group_symop_operation_xyz
  'x, y, z'

loop_
  _atom_site_type_symbol
  _atom_site_label
  _atom_site_symmetry_multiplicity
  _atom_site_fract_x
  _atom_site_fract_y
  _atom_site_fract_z
  _atom_site_occupancy
  Cd  Cd1       1.0  0.43896  0.41438  0.30744  1.0000
  Cd  Cd2       1.0  0.56105  0.58562  0.69256  1.0000
  H   H1        1.0  0.29232  0.60089  0.54570  1.0000
  H   H2        1.0  0.70769  0.39911  0.45430  1.0000
  H   H3        1.0  0.19345  0.61830  0.46379  1.0000
  H   H4        1.0  0.80655  0.38170  0.53621  1.0000
  H   H5        1.0  0.93423  0.39434  0.30925  1.0000
  H   H6        1.0  0.06577  0.60567  0.69076  1.0000
  H   H7        1.0  0.76220  0.68718  0.05238  1.0000
  H   H8        1.0  0.23781  0.31283  0.94762  1.0000
  H   H9        1.0  0.16173  0.67848  0.08132  1.0000
  H   H10       1.0  0.83827  0.32152  0.91868  1.0000
  H   H11       1.0  0.99384  0.89299  0.98356  1.0000
  H   H12       1.0  0.00616  0.10701  0.01645  1.0000
  H   H13       1.0  0.88794  0.84684  0.92065  1.0000
  H   H14       1.0  0.11206  0.15316  0.07936  1.0000
  H   H15       1.0  0.08567  0.76757  0.85683  1.0000
  H   H16       1.0  0.91433  0.23244  0.14317  1.0000
  H   H17       1.0  0.71852  0.08672  0.17205  1.0000
  H   H18       1.0  0.28148  0.91328  0.82795  1.0000
  H   H19       1.0  0.44837  0.37725  0.99799  1.0000
  H   H20       1.0  0.55163  0.62275  0.00201  1.0000
  H   H21       1.0  0.75086  0.15197  0.72667  1.0000
  H   H22       1.0  0.24914  0.84803  0.27333  1.0000
  H   H23       1.0  0.56278  0.25977  0.77290  1.0000
  H   H24       1.0  0.43722  0.74023  0.22710  1.0000
  H   H25       1.0  0.47046  0.05959  0.86838  1.0000
  H   H26       1.0  0.52953  0.94041  0.13161  1.0000
  H   H27       1.0  0.65440  0.95282  0.84189  1.0000
  H   H28       1.0  0.34559  0.04718  0.15811  1.0000
  H   H29       1.0  0.73465  0.99022  0.59097  1.0000
  H   H30       1.0  0.26535  0.00978  0.40903  1.0000
  H   H31       1.0  0.60331  0.90113  0.66929  1.0000
  H   H32       1.0  0.39669  0.09886  0.33071  1.0000
  H   H33       1.0  0.66861  0.19542  0.44657  1.0000
  H   H34       1.0  0.33140  0.80457  0.55342  1.0000
  H   H35       1.0  0.20994  0.24934  0.58766  1.0000
  H   H36       1.0  0.79007  0.75066  0.41234  1.0000
  C   C1        1.0  0.05651  0.53336  0.20366  1.0000
  C   C2        1.0  0.94348  0.46665  0.79635  1.0000
  C   C3        1.0  0.93872  0.48135  0.24103  1.0000
  C   C4        1.0  0.06128  0.51866  0.75898  1.0000
  C   C5        1.0  0.83114  0.53883  0.18830  1.0000
  C   C6        1.0  0.16886  0.46117  0.81170  1.0000
  C   C7        1.0  0.84531  0.64561  0.09444  1.0000
  C   C8        1.0  0.15469  0.35440  0.90557  1.0000
  C   C9        1.0  0.96426  0.69686  0.05314  1.0000
  C   C10       1.0  0.03575  0.30314  0.94687  1.0000
  C   C11       1.0  0.06773  0.64085  0.11058  1.0000
  C   C12       1.0  0.93227  0.35915  0.88942  1.0000
  C   C13       1.0  0.17297  0.47344  0.25987  1.0000
  C   C14       1.0  0.82703  0.52657  0.74014  1.0000
  C   C15       1.0  0.70150  0.48821  0.23015  1.0000
  C   C16       1.0  0.29850  0.51179  0.76985  1.0000
  C   C17       1.0  0.98341  0.80678  0.94800  1.0000
  C   C18       1.0  0.01659  0.19323  0.05201  1.0000
  C   C19       1.0  0.67044  0.14028  0.10185  1.0000
  C   C20       1.0  0.32956  0.85972  0.89815  1.0000
  C   C21       1.0  0.53001  0.28858  0.01781  1.0000
  C   C22       1.0  0.46998  0.71142  0.98219  1.0000
  C   C23       1.0  0.63452  0.16531  0.79891  1.0000
  C   C24       1.0  0.36547  0.83469  0.20109  1.0000
  C   C25       1.0  0.58947  0.04100  0.80133  1.0000
  C   C26       1.0  0.41053  0.95899  0.19866  1.0000
  C   C27       1.0  0.61896  0.00030  0.66313  1.0000
  C   C28       1.0  0.38104  0.99970  0.33686  1.0000
  C   C29       1.0  0.55796  0.18546  0.50214  1.0000
  C   C30       1.0  0.44204  0.81454  0.49786  1.0000
  C   C31       1.0  0.32532  0.21042  0.57630  1.0000
  C   C32       1.0  0.67468  0.78958  0.42370  1.0000
  N   N1        1.0  0.55725  0.26194  0.12829  1.0000
  N   N2        1.0  0.44275  0.73807  0.87170  1.0000
  N   N3        1.0  0.71377  0.09031  0.98230  1.0000
  N   N4        1.0  0.28623  0.90969  0.01769  1.0000
  N   N5        1.0  0.62326  0.18596  0.93058  1.0000
  N   N6        1.0  0.37674  0.81404  0.06942  1.0000
  N   N7        1.0  0.52177  0.09845  0.60470  1.0000
  N   N8        1.0  0.47823  0.90155  0.39530  1.0000
  N   N9        1.0  0.37314  0.11253  0.65354  1.0000
  N   N10       1.0  0.62686  0.88747  0.34646  1.0000
  N   N11       1.0  0.43578  0.25804  0.48112  1.0000
  N   N12       1.0  0.56423  0.74196  0.51888  1.0000
  O   O1        1.0  0.27175  0.53502  0.22254  1.0000
  O   O2        1.0  0.72825  0.46498  0.77747  1.0000
  O   O3        1.0  0.17126  0.37058  0.33652  1.0000
  O   O4        1.0  0.82873  0.62943  0.66350  1.0000
  O   O5        1.0  0.68313  0.39604  0.32236  1.0000
  O   O6        1.0  0.31687  0.60396  0.67764  1.0000
  O   O7        1.0  0.61025  0.53742  0.17494  1.0000
  O   O8        1.0  0.38975  0.46258  0.82507  1.0000
  O   O9        1.0  0.29366  0.60895  0.45286  1.0000
  O   O10       1.0  0.70634  0.39105  0.54713  1.0000
