data_image0
_chemical_formula_structural       Cd2H36C36N8O10
_chemical_formula_sum              "Cd2 H36 C36 N8 O10"
_cell_length_a       9.10727
_cell_length_b       10.5082
_cell_length_c       11.5766
_cell_angle_alpha    88.7282
_cell_angle_beta     68.1087
_cell_angle_gamma    68.2057

_space_group_name_H-M_alt    "P 1"
_space_group_IT_number       1

loop_
  _space_group_symop_operation_xyz
  'x, y, z'

loop_
  _atom_site_type_symbol
  _atom_site_label
  _atom_site_symmetry_multiplicity
  _atom_site_fract_x
  _atom_site_fract_y
  _atom_site_fract_z
  _atom_site_occupancy
  Cd  Cd1       1.0  0.86595  0.66513  0.14313  1.0000
  Cd  Cd2       1.0  0.13406  0.33487  0.85687  1.0000
  H   H1        1.0  0.89907  0.15954  0.09864  1.0000
  H   H2        1.0  0.10093  0.84046  0.90135  1.0000
  H   H3        1.0  0.09206  0.87840  0.33326  1.0000
  H   H4        1.0  0.90793  0.12161  0.66674  1.0000
  H   H5        1.0  0.11122  0.28360  0.32929  1.0000
  H   H6        1.0  0.88877  0.71640  0.67070  1.0000
  H   H7        1.0  0.11804  0.23212  0.52448  1.0000
  H   H8        1.0  0.88196  0.76788  0.47552  1.0000
  H   H9        1.0  0.27698  0.08377  0.54778  1.0000
  H   H10       1.0  0.72302  0.91622  0.45222  1.0000
  H   H11       1.0  0.33048  0.15357  0.40241  1.0000
  H   H12       1.0  0.66952  0.84643  0.59759  1.0000
  H   H13       1.0  0.52771  0.94102  0.12105  1.0000
  H   H14       1.0  0.47229  0.05897  0.87896  1.0000
  H   H15       1.0  0.32825  0.91319  0.99627  1.0000
  H   H16       1.0  0.67174  0.08681  0.00375  1.0000
  H   H17       1.0  0.72392  0.52472  0.96482  1.0000
  H   H18       1.0  0.27609  0.47528  0.03517  1.0000
  H   H19       1.0  0.31739  0.66149  0.92527  1.0000
  H   H20       1.0  0.68261  0.33851  0.07473  1.0000
  H   H21       1.0  0.52395  0.52531  0.87127  1.0000
  H   H22       1.0  0.47605  0.47469  0.12873  1.0000
  H   H23       1.0  0.42199  0.79733  0.75997  1.0000
  H   H24       1.0  0.57800  0.20267  0.24004  1.0000
  H   H25       1.0  0.63765  0.67473  0.71559  1.0000
  H   H26       1.0  0.36235  0.32528  0.28441  1.0000
  H   H27       1.0  0.56351  0.49285  0.64457  1.0000
  H   H28       1.0  0.43649  0.50715  0.35543  1.0000
  H   H29       1.0  0.34557  0.60810  0.69655  1.0000
  H   H30       1.0  0.65443  0.39190  0.30345  1.0000
  H   H31       1.0  0.78398  0.53375  0.43815  1.0000
  H   H32       1.0  0.21602  0.46625  0.56186  1.0000
  H   H33       1.0  0.43357  0.84304  0.32432  1.0000
  H   H34       1.0  0.56644  0.15697  0.67568  1.0000
  H   H35       1.0  0.25821  0.80426  0.56753  1.0000
  H   H36       1.0  0.74179  0.19575  0.43247  1.0000
  C   C1        1.0  0.00566  0.23309  0.20801  1.0000
  C   C2        1.0  0.99434  0.76691  0.79198  1.0000
  C   C3        1.0  0.95770  0.13644  0.16706  1.0000
  C   C4        1.0  0.04229  0.86357  0.83293  1.0000
  C   C5        1.0  0.98699  0.00888  0.21362  1.0000
  C   C6        1.0  0.01300  0.99113  0.78637  1.0000
  C   C7        1.0  0.06617  0.97836  0.29896  1.0000
  C   C8        1.0  0.93381  0.02164  0.70104  1.0000
  C   C9        1.0  0.10905  0.07709  0.34333  1.0000
  C   C10       1.0  0.89094  0.92291  0.65667  1.0000
  C   C11       1.0  0.07964  0.20432  0.29761  1.0000
  C   C12       1.0  0.92036  0.79569  0.70239  1.0000
  C   C13       1.0  0.97204  0.37181  0.16231  1.0000
  C   C14       1.0  0.02796  0.62819  0.83769  1.0000
  C   C15       1.0  0.92709  0.90582  0.17773  1.0000
  C   C16       1.0  0.07291  0.09418  0.82226  1.0000
  C   C17       1.0  0.22801  0.13389  0.47830  1.0000
  C   C18       1.0  0.77199  0.86611  0.52170  1.0000
  C   C19       1.0  0.53665  0.85027  0.07176  1.0000
  C   C20       1.0  0.46334  0.14972  0.92825  1.0000
  C   C21       1.0  0.43778  0.83826  0.01064  1.0000
  C   C22       1.0  0.56221  0.16173  0.98937  1.0000
  C   C23       1.0  0.64275  0.63359  0.99363  1.0000
  C   C24       1.0  0.35726  0.36641  0.00636  1.0000
  C   C25       1.0  0.45592  0.63787  0.88022  1.0000
  C   C26       1.0  0.54408  0.36213  0.11978  1.0000
  C   C27       1.0  0.50243  0.68684  0.75125  1.0000
  C   C28       1.0  0.49757  0.31317  0.24876  1.0000
  C   C29       1.0  0.47773  0.60261  0.65960  1.0000
  C   C30       1.0  0.52227  0.39739  0.34040  1.0000
  C   C31       1.0  0.66647  0.61400  0.43929  1.0000
  C   C32       1.0  0.33354  0.38600  0.56071  1.0000
  C   C33       1.0  0.48132  0.77332  0.38404  1.0000
  C   C34       1.0  0.51868  0.22668  0.61596  1.0000
  C   C35       1.0  0.39200  0.75482  0.50408  1.0000
  C   C36       1.0  0.60801  0.24518  0.49592  1.0000
  N   N1        1.0  0.66361  0.72186  0.06058  1.0000
  N   N2        1.0  0.33640  0.27814  0.93942  1.0000
  N   N3        1.0  0.50693  0.70014  0.96197  1.0000
  N   N4        1.0  0.49307  0.29985  0.03803  1.0000
  N   N5        1.0  0.51127  0.65268  0.53755  1.0000
  N   N6        1.0  0.48874  0.34732  0.46245  1.0000
  N   N7        1.0  0.65179  0.68553  0.34492  1.0000
  N   N8        1.0  0.34822  0.31447  0.65508  1.0000
  O   O1        1.0  0.00089  0.46083  0.21414  1.0000
  O   O2        1.0  0.99911  0.53917  0.78586  1.0000
  O   O3        1.0  0.91207  0.39721  0.07661  1.0000
  O   O4        1.0  0.08793  0.60279  0.92339  1.0000
  O   O5        1.0  0.79430  0.94878  0.15320  1.0000
  O   O6        1.0  0.20570  0.05121  0.84680  1.0000
  O   O7        1.0  0.01516  0.77749  0.17872  1.0000
  O   O8        1.0  0.98485  0.22250  0.82127  1.0000
  O   O9        1.0  0.17752  0.03927  0.43157  1.0000
  O   O10       1.0  0.82247  0.96073  0.56844  1.0000
