data_image0
_chemical_formula_structural       Cd2H48C38N12O10
_chemical_formula_sum              "Cd2 H48 C38 N12 O10"
_cell_length_a       10.3206
_cell_length_b       11.2284
_cell_length_c       11.8639
_cell_angle_alpha    70.2127
_cell_angle_beta     65.2421
_cell_angle_gamma    68.0082

_space_group_name_H-M_alt    "P 1"
_space_group_IT_number       1

loop_
  _space_group_symop_operation_xyz
  'x, y, z'

loop_
  _atom_site_type_symbol
  _atom_site_label
  _atom_site_symmetry_multiplicity
  _atom_site_fract_x
  _atom_site_fract_y
  _atom_site_fract_z
  _atom_site_occupancy
  Cd  Cd1       1.0  0.56731  0.18622  0.07821  1.0000
  Cd  Cd2       1.0  0.43269  0.81378  0.92179  1.0000
  H   H1        1.0  0.82657  0.99391  0.98773  1.0000
  H   H2        1.0  0.17343  0.00609  0.01226  1.0000
  H   H3        1.0  0.71786  0.92779  0.97535  1.0000
  H   H4        1.0  0.28214  0.07221  0.02464  1.0000
  H   H5        1.0  0.06391  0.18000  0.08555  1.0000
  H   H6        1.0  0.93609  0.82000  0.91444  1.0000
  H   H7        1.0  0.67778  0.49871  0.18004  1.0000
  H   H8        1.0  0.32222  0.50128  0.81997  1.0000
  H   H9        1.0  0.09196  0.50284  0.18378  1.0000
  H   H10       1.0  0.90804  0.49715  0.81622  1.0000
  H   H11       1.0  0.87579  0.67865  0.24645  1.0000
  H   H12       1.0  0.12421  0.32135  0.75355  1.0000
  H   H13       1.0  0.69897  0.64660  0.30641  1.0000
  H   H14       1.0  0.30103  0.35340  0.69360  1.0000
  H   H15       1.0  0.77007  0.72360  0.14548  1.0000
  H   H16       1.0  0.22992  0.27640  0.85453  1.0000
  H   H17       1.0  0.59741  0.16410  0.77918  1.0000
  H   H18       1.0  0.40258  0.83590  0.22082  1.0000
  H   H19       1.0  0.62133  0.48597  0.86921  1.0000
  H   H20       1.0  0.37867  0.51404  0.13079  1.0000
  H   H21       1.0  0.55285  0.65749  0.64981  1.0000
  H   H22       1.0  0.44715  0.34251  0.35019  1.0000
  H   H23       1.0  0.62001  0.57327  0.52524  1.0000
  H   H24       1.0  0.37999  0.42673  0.47476  1.0000
  H   H25       1.0  0.79644  0.68962  0.49255  1.0000
  H   H26       1.0  0.20356  0.31038  0.50745  1.0000
  H   H27       1.0  0.80106  0.61891  0.64940  1.0000
  H   H28       1.0  0.19894  0.38109  0.35060  1.0000
  H   H29       1.0  0.91661  0.46350  0.44062  1.0000
  H   H30       1.0  0.08339  0.53650  0.55938  1.0000
  H   H31       1.0  0.92185  0.39583  0.59661  1.0000
  H   H32       1.0  0.07815  0.60417  0.40339  1.0000
  H   H33       1.0  0.27380  0.14794  0.36970  1.0000
  H   H34       1.0  0.72620  0.85206  0.63030  1.0000
  H   H35       1.0  0.69859  0.88833  0.26820  1.0000
  H   H36       1.0  0.30141  0.11167  0.73180  1.0000
  H   H37       1.0  0.30169  0.85022  0.64614  1.0000
  H   H38       1.0  0.69831  0.14978  0.35386  1.0000
  H   H39       1.0  0.18162  0.00798  0.61154  1.0000
  H   H40       1.0  0.81838  0.99202  0.38846  1.0000
  H   H41       1.0  0.08889  0.81334  0.64324  1.0000
  H   H42       1.0  0.91111  0.18666  0.35675  1.0000
  H   H43       1.0  0.23726  0.77071  0.50633  1.0000
  H   H44       1.0  0.76274  0.22929  0.49367  1.0000
  H   H45       1.0  0.13344  0.99414  0.37578  1.0000
  H   H46       1.0  0.86656  0.00585  0.62422  1.0000
  H   H47       1.0  0.02242  0.88544  0.44384  1.0000
  H   H48       1.0  0.97759  0.11456  0.55616  1.0000
  C   C1        1.0  0.25716  0.27281  0.11537  1.0000
  C   C2        1.0  0.74284  0.72719  0.88463  1.0000
  C   C3        1.0  0.09560  0.33402  0.13452  1.0000
  C   C4        1.0  0.90440  0.66598  0.86548  1.0000
  C   C5        1.0  0.01340  0.27360  0.11452  1.0000
  C   C6        1.0  0.98660  0.72640  0.88548  1.0000
  C   C7        1.0  0.86317  0.33313  0.13105  1.0000
  C   C8        1.0  0.13683  0.66686  0.86895  1.0000
  C   C9        1.0  0.79491  0.45351  0.16859  1.0000
  C   C10       1.0  0.20509  0.54648  0.83141  1.0000
  C   C11       1.0  0.87524  0.51642  0.18869  1.0000
  C   C12       1.0  0.12476  0.48357  0.81132  1.0000
  C   C13       1.0  0.02557  0.45537  0.17125  1.0000
  C   C14       1.0  0.97443  0.54462  0.82875  1.0000
  C   C15       1.0  0.77663  0.26722  0.10831  1.0000
  C   C16       1.0  0.22336  0.73278  0.89169  1.0000
  C   C17       1.0  0.80143  0.64794  0.22426  1.0000
  C   C18       1.0  0.19857  0.35206  0.77575  1.0000
  C   C19       1.0  0.60702  0.25989  0.77112  1.0000
  C   C20       1.0  0.39298  0.74011  0.22888  1.0000
  C   C21       1.0  0.61860  0.42077  0.82073  1.0000
  C   C22       1.0  0.38140  0.57924  0.17926  1.0000
  C   C23       1.0  0.64127  0.57784  0.60656  1.0000
  C   C24       1.0  0.35873  0.42216  0.39344  1.0000
  C   C25       1.0  0.79356  0.59916  0.56779  1.0000
  C   C26       1.0  0.20644  0.40084  0.43221  1.0000
  C   C27       1.0  0.92548  0.48571  0.52044  1.0000
  C   C28       1.0  0.07452  0.51428  0.47956  1.0000
  C   C29       1.0  0.36915  0.06301  0.36936  1.0000
  C   C30       1.0  0.63085  0.93699  0.63064  1.0000
  C   C31       1.0  0.58396  0.92925  0.32150  1.0000
  C   C32       1.0  0.41605  0.07075  0.67850  1.0000
  C   C33       1.0  0.25043  0.91809  0.57549  1.0000
  C   C34       1.0  0.74957  0.08191  0.42451  1.0000
  C   C35       1.0  0.16043  0.85457  0.54992  1.0000
  C   C36       1.0  0.83957  0.14543  0.45008  1.0000
  C   C37       1.0  0.06477  0.94693  0.46803  1.0000
  C   C38       1.0  0.93524  0.05307  0.53196  1.0000
  N   N1        1.0  0.60669  0.29738  0.86926  1.0000
  N   N2        1.0  0.39330  0.70263  0.13074  1.0000
  N   N3        1.0  0.62632  0.45409  0.69849  1.0000
  N   N4        1.0  0.37368  0.54591  0.30151  1.0000
  N   N5        1.0  0.61911  0.35253  0.66486  1.0000
  N   N6        1.0  0.38089  0.64747  0.33514  1.0000
  N   N7        1.0  0.50226  0.05074  0.27888  1.0000
  N   N8        1.0  0.49773  0.94926  0.72112  1.0000
  N   N9        1.0  0.50891  0.86615  0.43278  1.0000
  N   N10       1.0  0.49109  0.13385  0.56722  1.0000
  N   N11       1.0  0.37181  0.95325  0.46190  1.0000
  N   N12       1.0  0.62818  0.04675  0.53810  1.0000
  O   O1        1.0  0.32328  0.32856  0.14373  1.0000
  O   O2        1.0  0.67672  0.67144  0.85627  1.0000
  O   O3        1.0  0.32541  0.16714  0.07251  1.0000
  O   O4        1.0  0.67459  0.83286  0.92749  1.0000
  O   O5        1.0  0.84074  0.15946  0.07197  1.0000
  O   O6        1.0  0.15925  0.84055  0.92802  1.0000
  O   O7        1.0  0.63761  0.32575  0.12912  1.0000
  O   O8        1.0  0.36238  0.67424  0.87089  1.0000
  O   O9        1.0  0.72532  0.98807  0.01769  1.0000
  O   O10       1.0  0.27468  0.01194  0.98230  1.0000
