data_image0
_chemical_formula_structural       Cd2H28C26N6O10
_chemical_formula_sum              "Cd2 H28 C26 N6 O10"
_cell_length_a       7.33641
_cell_length_b       10.0907
_cell_length_c       10.3284
_cell_angle_alpha    89.8925
_cell_angle_beta     79.5676
_cell_angle_gamma    72.2744

_space_group_name_H-M_alt    "P 1"
_space_group_IT_number       1

loop_
  _space_group_symop_operation_xyz
  'x, y, z'

loop_
  _atom_site_type_symbol
  _atom_site_label
  _atom_site_symmetry_multiplicity
  _atom_site_fract_x
  _atom_site_fract_y
  _atom_site_fract_z
  _atom_site_occupancy
  Cd  Cd1       1.0  0.49411  0.21945  0.93893  1.0000
  Cd  Cd2       1.0  0.50590  0.78054  0.06107  1.0000
  H   H1        1.0  0.87568  0.25554  0.87142  1.0000
  H   H2        1.0  0.12432  0.74446  0.12857  1.0000
  H   H3        1.0  0.75059  0.39774  0.95448  1.0000
  H   H4        1.0  0.24941  0.60226  0.04552  1.0000
  H   H5        1.0  0.13878  0.10138  0.38848  1.0000
  H   H6        1.0  0.86124  0.89862  0.61152  1.0000
  H   H7        1.0  0.73970  0.51858  0.42502  1.0000
  H   H8        1.0  0.26029  0.48141  0.57498  1.0000
  H   H9        1.0  0.00768  0.31369  0.04135  1.0000
  H   H10       1.0  0.99232  0.68630  0.95865  1.0000
  H   H11       1.0  0.02238  0.35874  0.60527  1.0000
  H   H12       1.0  0.97762  0.64126  0.39474  1.0000
  H   H13       1.0  0.95323  0.20482  0.60586  1.0000
  H   H14       1.0  0.04677  0.79518  0.39415  1.0000
  H   H15       1.0  0.77388  0.37076  0.62176  1.0000
  H   H16       1.0  0.22612  0.62923  0.37824  1.0000
  H   H17       1.0  0.30389  0.45678  0.20916  1.0000
  H   H18       1.0  0.69611  0.54323  0.79083  1.0000
  H   H19       1.0  0.70004  0.05412  0.19944  1.0000
  H   H20       1.0  0.29995  0.94589  0.80057  1.0000
  H   H21       1.0  0.60190  0.23938  0.54335  1.0000
  H   H22       1.0  0.39809  0.76064  0.45665  1.0000
  H   H23       1.0  0.76759  0.08920  0.44916  1.0000
  H   H24       1.0  0.23239  0.91081  0.55085  1.0000
  H   H25       1.0  0.33652  0.13150  0.56603  1.0000
  H   H26       1.0  0.66347  0.86852  0.43397  1.0000
  H   H27       1.0  0.53560  0.03752  0.63635  1.0000
  H   H28       1.0  0.46438  0.96250  0.36365  1.0000
  C   C1        1.0  0.22048  0.07037  0.12271  1.0000
  C   C2        1.0  0.77952  0.92962  0.87729  1.0000
  C   C3        1.0  0.08465  0.19450  0.20669  1.0000
  C   C4        1.0  0.91535  0.80549  0.79331  1.0000
  C   C5        1.0  0.06024  0.19462  0.34436  1.0000
  C   C6        1.0  0.93977  0.80536  0.65564  1.0000
  C   C7        1.0  0.94090  0.31151  0.42442  1.0000
  C   C8        1.0  0.05911  0.68849  0.57558  1.0000
  C   C9        1.0  0.83927  0.42833  0.36397  1.0000
  C   C10       1.0  0.16073  0.57166  0.63603  1.0000
  C   C11       1.0  0.85991  0.42913  0.22639  1.0000
  C   C12       1.0  0.14010  0.57085  0.77361  1.0000
  C   C13       1.0  0.98510  0.31262  0.14816  1.0000
  C   C14       1.0  0.01490  0.68737  0.85184  1.0000
  C   C15       1.0  0.92124  0.31121  0.57173  1.0000
  C   C16       1.0  0.07876  0.68878  0.42827  1.0000
  C   C17       1.0  0.74508  0.55199  0.16299  1.0000
  C   C18       1.0  0.25492  0.44800  0.83700  1.0000
  C   C19       1.0  0.39861  0.36182  0.23989  1.0000
  C   C20       1.0  0.60139  0.63819  0.76010  1.0000
  C   C21       1.0  0.60103  0.15715  0.23262  1.0000
  C   C22       1.0  0.39897  0.84286  0.76739  1.0000
  C   C23       1.0  0.61363  0.15212  0.47637  1.0000
  C   C24       1.0  0.38636  0.84789  0.52364  1.0000
  C   C25       1.0  0.48950  0.06512  0.54163  1.0000
  C   C26       1.0  0.51049  0.93490  0.45837  1.0000
  N   N1        1.0  0.50484  0.24924  0.15601  1.0000
  N   N2        1.0  0.49516  0.75077  0.84399  1.0000
  N   N3        1.0  0.55353  0.21316  0.35681  1.0000
  N   N4        1.0  0.44647  0.78685  0.64319  1.0000
  N   N5        1.0  0.42412  0.34371  0.36323  1.0000
  N   N6        1.0  0.57588  0.65630  0.63677  1.0000
  O   O1        1.0  0.27503  0.08220  0.00010  1.0000
  O   O2        1.0  0.72499  0.91778  0.99990  1.0000
  O   O3        1.0  0.27571  0.95741  0.18201  1.0000
  O   O4        1.0  0.72429  0.04258  0.81799  1.0000
  O   O5        1.0  0.66752  0.66896  0.22809  1.0000
  O   O6        1.0  0.33249  0.33102  0.77190  1.0000
  O   O7        1.0  0.72576  0.53682  0.04327  1.0000
  O   O8        1.0  0.27425  0.46318  0.95673  1.0000
  O   O9        1.0  0.74933  0.32696  0.88589  1.0000
  O   O10       1.0  0.25066  0.67304  0.11411  1.0000
