data_image0
_chemical_formula_structural       Co4H32C24O16
_chemical_formula_sum              "Co4 H32 C24 O16"
_cell_length_a       4.83138
_cell_length_b       9.36486
_cell_length_c       15.8958
_cell_angle_alpha    89.5253
_cell_angle_beta     89.999
_cell_angle_gamma    90.001

_space_group_name_H-M_alt    "P 1"
_space_group_IT_number       1

loop_
  _space_group_symop_operation_xyz
  'x, y, z'

loop_
  _atom_site_type_symbol
  _atom_site_label
  _atom_site_symmetry_multiplicity
  _atom_site_fract_x
  _atom_site_fract_y
  _atom_site_fract_z
  _atom_site_occupancy
  Co  Co1       1.0  0.04115  0.78407  0.24598  1.0000
  Co  Co2       1.0  0.04117  0.71594  0.75402  1.0000
  Co  Co3       1.0  0.95883  0.21594  0.75402  1.0000
  Co  Co4       1.0  0.95883  0.28406  0.24599  1.0000
  H   H1        1.0  0.73292  0.47194  0.06421  1.0000
  H   H2        1.0  0.73292  0.02807  0.93579  1.0000
  H   H3        1.0  0.26707  0.52806  0.93579  1.0000
  H   H4        1.0  0.26708  0.97194  0.06422  1.0000
  H   H5        1.0  0.71482  0.62120  0.99705  1.0000
  H   H6        1.0  0.71482  0.87881  0.00294  1.0000
  H   H7        1.0  0.28518  0.37880  0.00294  1.0000
  H   H8        1.0  0.28518  0.12121  0.99707  1.0000
  H   H9        1.0  0.26572  0.11107  0.50195  1.0000
  H   H10       1.0  0.26571  0.38893  0.49805  1.0000
  H   H11       1.0  0.73427  0.88893  0.49805  1.0000
  H   H12       1.0  0.73429  0.61106  0.50194  1.0000
  H   H13       1.0  0.56699  0.12628  0.44079  1.0000
  H   H14       1.0  0.56697  0.37372  0.55921  1.0000
  H   H15       1.0  0.43300  0.87373  0.55922  1.0000
  H   H16       1.0  0.43303  0.62627  0.44078  1.0000
  H   H17       1.0  0.44604  0.90374  0.36260  1.0000
  H   H18       1.0  0.44605  0.59627  0.63739  1.0000
  H   H19       1.0  0.55397  0.09627  0.63740  1.0000
  H   H20       1.0  0.55396  0.40372  0.36260  1.0000
  H   H21       1.0  0.15121  0.87822  0.42518  1.0000
  H   H22       1.0  0.15121  0.62178  0.57482  1.0000
  H   H23       1.0  0.84881  0.12179  0.57482  1.0000
  H   H24       1.0  0.84881  0.37820  0.42517  1.0000
  H   H25       1.0  0.28212  0.54162  0.13249  1.0000
  H   H26       1.0  0.28212  0.95838  0.86751  1.0000
  H   H27       1.0  0.71787  0.45838  0.86751  1.0000
  H   H28       1.0  0.71788  0.04162  0.13249  1.0000
  H   H29       1.0  0.24925  0.68674  0.06422  1.0000
  H   H30       1.0  0.24924  0.81326  0.93578  1.0000
  H   H31       1.0  0.75074  0.31325  0.93577  1.0000
  H   H32       1.0  0.75076  0.18675  0.06422  1.0000
  C   C1        1.0  0.55878  0.70962  0.15764  1.0000
  C   C2        1.0  0.55879  0.79040  0.84236  1.0000
  C   C3        1.0  0.44121  0.29039  0.84236  1.0000
  C   C4        1.0  0.44121  0.20961  0.15765  1.0000
  C   C5        1.0  0.58628  0.54289  0.03115  1.0000
  C   C6        1.0  0.58627  0.95712  0.96885  1.0000
  C   C7        1.0  0.41371  0.45711  0.96885  1.0000
  C   C8        1.0  0.41372  0.04290  0.03115  1.0000
  C   C9        1.0  0.42323  0.04802  0.46880  1.0000
  C   C10       1.0  0.42323  0.45198  0.53120  1.0000
  C   C11       1.0  0.57677  0.95199  0.53121  1.0000
  C   C12       1.0  0.57677  0.54800  0.46879  1.0000
  C   C13       1.0  0.12016  0.04747  0.33685  1.0000
  C   C14       1.0  0.12016  0.45253  0.66316  1.0000
  C   C15       1.0  0.87984  0.95254  0.66316  1.0000
  C   C16       1.0  0.87986  0.54745  0.33684  1.0000
  C   C17       1.0  0.28817  0.96178  0.39910  1.0000
  C   C18       1.0  0.28817  0.53822  0.60090  1.0000
  C   C19       1.0  0.71184  0.03823  0.60091  1.0000
  C   C20       1.0  0.71184  0.46176  0.39909  1.0000
  C   C21       1.0  0.40526  0.61863  0.09534  1.0000
  C   C22       1.0  0.40526  0.88138  0.90466  1.0000
  C   C23       1.0  0.59473  0.38137  0.90465  1.0000
  C   C24       1.0  0.59474  0.11863  0.09535  1.0000
  O   O1        1.0  0.43069  0.76986  0.21824  1.0000
  O   O2        1.0  0.43071  0.73015  0.78175  1.0000
  O   O3        1.0  0.56929  0.23015  0.78175  1.0000
  O   O4        1.0  0.56929  0.26985  0.21826  1.0000
  O   O5        1.0  0.00374  0.98601  0.27435  1.0000
  O   O6        1.0  0.00376  0.51399  0.72566  1.0000
  O   O7        1.0  0.99625  0.01400  0.72566  1.0000
  O   O8        1.0  0.99627  0.48599  0.27434  1.0000
  O   O9        1.0  0.09702  0.18227  0.34630  1.0000
  O   O10       1.0  0.09700  0.31773  0.65371  1.0000
  O   O11       1.0  0.90301  0.81774  0.65371  1.0000
  O   O12       1.0  0.90300  0.68225  0.34629  1.0000
  O   O13       1.0  0.82041  0.72441  0.14944  1.0000
  O   O14       1.0  0.82042  0.77560  0.85056  1.0000
  O   O15       1.0  0.17957  0.27560  0.85055  1.0000
  O   O16       1.0  0.17958  0.22440  0.14945  1.0000
