data_image0
_chemical_formula_structural       Mn2H20C10O12
_chemical_formula_sum              "Mn2 H20 C10 O12"
_cell_length_a       7.66128
_cell_length_b       7.7756
_cell_length_c       7.55435
_cell_angle_alpha    83.2651
_cell_angle_beta     79.5764
_cell_angle_gamma    71.1133

_space_group_name_H-M_alt    "P 1"
_space_group_IT_number       1

loop_
  _space_group_symop_operation_xyz
  'x, y, z'

loop_
  _atom_site_type_symbol
  _atom_site_label
  _atom_site_symmetry_multiplicity
  _atom_site_fract_x
  _atom_site_fract_y
  _atom_site_fract_z
  _atom_site_occupancy
  Mn  Mn1       1.0  0.70720  0.66400  0.60438  1.0000
  Mn  Mn2       1.0  0.29280  0.33602  0.39562  1.0000
  H   H1        1.0  0.85188  0.51661  0.92365  1.0000
  H   H2        1.0  0.14812  0.48339  0.07635  1.0000
  H   H3        1.0  0.99145  0.45233  0.74683  1.0000
  H   H4        1.0  0.00854  0.54767  0.25317  1.0000
  H   H5        1.0  0.45199  0.67579  0.39090  1.0000
  H   H6        1.0  0.54802  0.32420  0.60910  1.0000
  H   H7        1.0  0.51500  0.85423  0.33704  1.0000
  H   H8        1.0  0.48500  0.14577  0.66296  1.0000
  H   H9        1.0  0.11697  0.81107  0.06927  1.0000
  H   H10       1.0  0.88303  0.18892  0.93073  1.0000
  H   H11       1.0  0.06713  0.86556  0.84946  1.0000
  H   H12       1.0  0.93287  0.13443  0.15054  1.0000
  H   H13       1.0  0.16195  0.98456  0.34223  1.0000
  H   H14       1.0  0.83806  0.01544  0.65776  1.0000
  H   H15       1.0  0.19182  0.91614  0.56538  1.0000
  H   H16       1.0  0.80818  0.08386  0.43461  1.0000
  H   H17       1.0  0.22180  0.12252  0.83344  1.0000
  H   H18       1.0  0.77820  0.87748  0.16656  1.0000
  H   H19       1.0  0.29874  0.02532  0.03802  1.0000
  H   H20       1.0  0.70125  0.97468  0.96199  1.0000
  C   C1        1.0  0.08833  0.92466  0.96611  1.0000
  C   C2        1.0  0.91166  0.07533  0.03389  1.0000
  C   C3        1.0  0.09205  0.74563  0.43667  1.0000
  C   C4        1.0  0.90795  0.25438  0.56333  1.0000
  C   C5        1.0  0.42709  0.86360  0.81597  1.0000
  C   C6        1.0  0.57291  0.13640  0.18403  1.0000
  C   C7        1.0  0.09481  0.93289  0.46946  1.0000
  C   C8        1.0  0.90520  0.06711  0.53054  1.0000
  C   C9        1.0  0.25678  0.99371  0.91649  1.0000
  C   C10       1.0  0.74322  0.00629  0.08351  1.0000
  O   O1        1.0  0.44696  0.69592  0.81481  1.0000
  O   O2        1.0  0.55305  0.30407  0.18519  1.0000
  O   O3        1.0  0.93887  0.71777  0.42450  1.0000
  O   O4        1.0  0.06113  0.28224  0.57550  1.0000
  O   O5        1.0  0.24948  0.62097  0.41353  1.0000
  O   O6        1.0  0.75052  0.37903  0.58647  1.0000
  O   O7        1.0  0.91101  0.56208  0.81046  1.0000
  O   O8        1.0  0.08898  0.43792  0.18954  1.0000
  O   O9        1.0  0.56079  0.72198  0.38013  1.0000
  O   O10       1.0  0.43922  0.27802  0.61987  1.0000
  O   O11       1.0  0.55591  0.92892  0.72571  1.0000
  O   O12       1.0  0.44409  0.07108  0.27429  1.0000
