data_image0
_chemical_formula_structural       Cu4H10C12I4N4
_chemical_formula_sum              "Cu4 H10 C12 I4 N4"
_cell_length_a       4.03631
_cell_length_b       10.8581
_cell_length_c       11.8072
_cell_angle_alpha    113.233
_cell_angle_beta     99.7074
_cell_angle_gamma    89.3816

_space_group_name_H-M_alt    "P 1"
_space_group_IT_number       1

loop_
  _space_group_symop_operation_xyz
  'x, y, z'

loop_
  _atom_site_type_symbol
  _atom_site_label
  _atom_site_symmetry_multiplicity
  _atom_site_fract_x
  _atom_site_fract_y
  _atom_site_fract_z
  _atom_site_occupancy
  Cu  Cu1       1.0  0.81427  0.71317  0.90386  1.0000
  Cu  Cu2       1.0  0.18577  0.28683  0.09614  1.0000
  Cu  Cu3       1.0  0.33924  0.59143  0.96713  1.0000
  Cu  Cu4       1.0  0.66072  0.40856  0.03288  1.0000
  H   H1        1.0  0.40915  0.57385  0.62077  1.0000
  H   H2        1.0  0.59086  0.42615  0.37923  1.0000
  H   H3        1.0  0.46271  0.68243  0.44666  1.0000
  H   H4        1.0  0.53728  0.31756  0.55334  1.0000
  H   H5        1.0  0.07534  0.91906  0.79575  1.0000
  H   H6        1.0  0.92467  0.08094  0.20425  1.0000
  H   H7        1.0  0.96877  0.09230  0.72704  1.0000
  H   H8        1.0  0.03122  0.90770  0.27296  1.0000
  H   H9        1.0  0.15575  0.24051  0.63487  1.0000
  H   H10       1.0  0.84425  0.75949  0.36513  1.0000
  C   C1        1.0  0.55701  0.66150  0.63098  1.0000
  C   C2        1.0  0.44299  0.33850  0.36903  1.0000
  C   C3        1.0  0.58128  0.71361  0.54392  1.0000
  C   C4        1.0  0.41871  0.28639  0.45608  1.0000
  C   C5        1.0  0.89619  0.84087  0.72655  1.0000
  C   C6        1.0  0.10381  0.15913  0.27344  1.0000
  C   C7        1.0  0.89708  0.91542  0.55246  1.0000
  C   C8        1.0  0.10292  0.08458  0.44753  1.0000
  C   C9        1.0  0.98706  0.05085  0.62799  1.0000
  C   C10       1.0  0.01295  0.94915  0.37200  1.0000
  C   C11       1.0  0.09067  0.13482  0.57545  1.0000
  C   C12       1.0  0.90933  0.86517  0.42455  1.0000
  I   I1        1.0  0.38106  0.84887  0.04528  1.0000
  I   I2        1.0  0.61898  0.15112  0.95472  1.0000
  I   I3        1.0  0.24463  0.55266  0.17355  1.0000
  I   I4        1.0  0.75531  0.44734  0.82645  1.0000
  N   N1        1.0  0.75514  0.74126  0.74411  1.0000
  N   N2        1.0  0.24487  0.25874  0.25590  1.0000
  N   N3        1.0  0.79546  0.82855  0.60571  1.0000
  N   N4        1.0  0.20454  0.17145  0.39429  1.0000
