data_image0
_chemical_formula_structural       Cu2H32C12N28
_chemical_formula_sum              "Cu2 H32 C12 N28"
_cell_length_a       7.26626
_cell_length_b       8.1821
_cell_length_c       11.269
_cell_angle_alpha    91.2157
_cell_angle_beta     82.1795
_cell_angle_gamma    73.7047

_space_group_name_H-M_alt    "P 1"
_space_group_IT_number       1

loop_
  _space_group_symop_operation_xyz
  'x, y, z'

loop_
  _atom_site_type_symbol
  _atom_site_label
  _atom_site_symmetry_multiplicity
  _atom_site_fract_x
  _atom_site_fract_y
  _atom_site_fract_z
  _atom_site_occupancy
  Cu  Cu1       1.0  0.50001  0.99998  0.99998  1.0000
  Cu  Cu2       1.0  0.49999  0.50001  0.50000  1.0000
  H   H1        1.0  0.87500  0.22256  0.40892  1.0000
  H   H2        1.0  0.12500  0.77746  0.59108  1.0000
  H   H3        1.0  0.80479  0.59455  0.45354  1.0000
  H   H4        1.0  0.19519  0.40548  0.54647  1.0000
  H   H5        1.0  0.02159  0.34626  0.34028  1.0000
  H   H6        1.0  0.97839  0.65378  0.65972  1.0000
  H   H7        1.0  0.13636  0.03662  0.08654  1.0000
  H   H8        1.0  0.86366  0.96334  0.91344  1.0000
  H   H9        1.0  0.50403  0.29151  0.32733  1.0000
  H   H10       1.0  0.49597  0.70850  0.67268  1.0000
  H   H11       1.0  0.44851  0.48843  0.28064  1.0000
  H   H12       1.0  0.55148  0.51158  0.71936  1.0000
  H   H13       1.0  0.75490  0.49920  0.23385  1.0000
  H   H14       1.0  0.24508  0.50083  0.76615  1.0000
  H   H15       1.0  0.84488  0.43982  0.54917  1.0000
  H   H16       1.0  0.15510  0.56020  0.45082  1.0000
  H   H17       1.0  0.50242  0.27570  0.10793  1.0000
  H   H18       1.0  0.49760  0.72423  0.89207  1.0000
  H   H19       1.0  0.61797  0.26442  0.96698  1.0000
  H   H20       1.0  0.38204  0.73555  0.03302  1.0000
  H   H21       1.0  0.79784  0.27486  0.20557  1.0000
  H   H22       1.0  0.20215  0.72518  0.79444  1.0000
  H   H23       1.0  0.28376  0.48369  0.00669  1.0000
  H   H24       1.0  0.71626  0.51629  0.99334  1.0000
  H   H25       1.0  0.01198  0.34666  0.02580  1.0000
  H   H26       1.0  0.98802  0.65332  0.97422  1.0000
  H   H27       1.0  0.32497  0.32429  0.88724  1.0000
  H   H28       1.0  0.67503  0.67570  0.11276  1.0000
  H   H29       1.0  0.16270  0.07140  0.94081  1.0000
  H   H30       1.0  0.83730  0.92859  0.05917  1.0000
  H   H31       1.0  0.14822  0.30207  0.14735  1.0000
  H   H32       1.0  0.85181  0.69787  0.85267  1.0000
  C   C1        1.0  0.33217  0.02049  0.41712  1.0000
  C   C2        1.0  0.66783  0.97952  0.58288  1.0000
  C   C3        1.0  0.87204  0.34724  0.37409  1.0000
  C   C4        1.0  0.12795  0.65280  0.62592  1.0000
  C   C5        1.0  0.74650  0.38074  0.27497  1.0000
  C   C6        1.0  0.25350  0.61928  0.72503  1.0000
  C   C7        1.0  0.15432  0.28057  0.05022  1.0000
  C   C8        1.0  0.84569  0.71939  0.94979  1.0000
  C   C9        1.0  0.31273  0.34673  0.98472  1.0000
  C   C10       1.0  0.68726  0.65325  0.01530  1.0000
  C   C11       1.0  0.03793  0.16514  0.69270  1.0000
  C   C12       1.0  0.96207  0.83488  0.30730  1.0000
  N   N1        1.0  0.78330  0.47820  0.47300  1.0000
  N   N2        1.0  0.21668  0.52182  0.52701  1.0000
  N   N3        1.0  0.20531  0.09460  0.02144  1.0000
  N   N4        1.0  0.79471  0.90536  0.97855  1.0000
  N   N5        1.0  0.39567  0.09219  0.31787  1.0000
  N   N6        1.0  0.60434  0.90782  0.68212  1.0000
  N   N7        1.0  0.48906  0.96169  0.23972  1.0000
  N   N8        1.0  0.51095  0.03831  0.76028  1.0000
  N   N9        1.0  0.22157  0.12569  0.51394  1.0000
  N   N10       1.0  0.77841  0.87432  0.48606  1.0000
  N   N11       1.0  0.16429  0.05151  0.60422  1.0000
  N   N12       1.0  0.83572  0.94851  0.39576  1.0000
  N   N13       1.0  0.38639  0.84742  0.40069  1.0000
  N   N14       1.0  0.61361  0.15259  0.59931  1.0000
  N   N15       1.0  0.48300  0.81409  0.28989  1.0000
  N   N16       1.0  0.51700  0.18592  0.71011  1.0000
  N   N17       1.0  0.82962  0.38424  0.78540  1.0000
  N   N18       1.0  0.17037  0.61576  0.21460  1.0000
  N   N19       1.0  0.94696  0.33176  0.68212  1.0000
  N   N20       1.0  0.05304  0.66825  0.31789  1.0000
  N   N21       1.0  0.97892  0.11487  0.80141  1.0000
  N   N22       1.0  0.02109  0.88513  0.19858  1.0000
  N   N23       1.0  0.54181  0.40454  0.32708  1.0000
  N   N24       1.0  0.45818  0.59549  0.67292  1.0000
  N   N25       1.0  0.49774  0.24636  0.01982  1.0000
  N   N26       1.0  0.50227  0.75361  0.98017  1.0000
  N   N27       1.0  0.84991  0.25504  0.85759  1.0000
  N   N28       1.0  0.15010  0.74495  0.14241  1.0000
