data_image0
_chemical_formula_structural       Cu4H24C28S12I4O16
_chemical_formula_sum              "Cu4 H24 C28 S12 I4 O16"
_cell_length_a       4.03166
_cell_length_b       9.12315
_cell_length_c       31.7692
_cell_angle_alpha    89.9998
_cell_angle_beta     89.9992
_cell_angle_gamma    89.9996

_space_group_name_H-M_alt    "P 1"
_space_group_IT_number       1

loop_
  _space_group_symop_operation_xyz
  'x, y, z'

loop_
  _atom_site_type_symbol
  _atom_site_label
  _atom_site_symmetry_multiplicity
  _atom_site_fract_x
  _atom_site_fract_y
  _atom_site_fract_z
  _atom_site_occupancy
  Cu  Cu1       1.0  0.42549  0.65699  0.48045  1.0000
  Cu  Cu2       1.0  0.92551  0.84301  0.51955  1.0000
  Cu  Cu3       1.0  0.57448  0.15699  0.01955  1.0000
  Cu  Cu4       1.0  0.07449  0.34300  0.98045  1.0000
  H   H1        1.0  0.04969  0.44931  0.25121  1.0000
  H   H2        1.0  0.54965  0.05069  0.74879  1.0000
  H   H3        1.0  0.95038  0.94931  0.24880  1.0000
  H   H4        1.0  0.45035  0.55069  0.75120  1.0000
  H   H5        1.0  0.05204  0.63180  0.27231  1.0000
  H   H6        1.0  0.55198  0.86821  0.72769  1.0000
  H   H7        1.0  0.94806  0.13180  0.22769  1.0000
  H   H8        1.0  0.44802  0.36820  0.77231  1.0000
  H   H9        1.0  0.67732  0.55712  0.25090  1.0000
  H   H10       1.0  0.17726  0.94289  0.74910  1.0000
  H   H11       1.0  0.32279  0.05711  0.24909  1.0000
  H   H12       1.0  0.82275  0.44288  0.75090  1.0000
  H   H13       1.0  0.37458  0.81429  0.30251  1.0000
  H   H14       1.0  0.87457  0.68570  0.69749  1.0000
  H   H15       1.0  0.62543  0.31429  0.19749  1.0000
  H   H16       1.0  0.12544  0.18571  0.80251  1.0000
  H   H17       1.0  0.24645  0.71987  0.35005  1.0000
  H   H18       1.0  0.74644  0.78014  0.64995  1.0000
  H   H19       1.0  0.75356  0.21985  0.14995  1.0000
  H   H20       1.0  0.25356  0.28013  0.85005  1.0000
  H   H21       1.0  0.67775  0.75102  0.33957  1.0000
  H   H22       1.0  0.17774  0.74898  0.66043  1.0000
  H   H23       1.0  0.32226  0.25101  0.16044  1.0000
  H   H24       1.0  0.82227  0.24897  0.83956  1.0000
  C   C1        1.0  0.44516  0.34440  0.43574  1.0000
  C   C2        1.0  0.94514  0.15561  0.56426  1.0000
  C   C3        1.0  0.55483  0.84438  0.06426  1.0000
  C   C4        1.0  0.05484  0.65561  0.93574  1.0000
  C   C5        1.0  0.57987  0.31421  0.35633  1.0000
  C   C6        1.0  0.07988  0.18582  0.64367  1.0000
  C   C7        1.0  0.42010  0.81418  0.14367  1.0000
  C   C8        1.0  0.92009  0.68581  0.85633  1.0000
  C   C9        1.0  0.53210  0.17494  0.37105  1.0000
  C   C10       1.0  0.03214  0.32509  0.62895  1.0000
  C   C11       1.0  0.46784  0.67490  0.12895  1.0000
  C   C12       1.0  0.96786  0.82507  0.87105  1.0000
  C   C13       1.0  0.64522  0.35652  0.31175  1.0000
  C   C14       1.0  0.14520  0.14351  0.68825  1.0000
  C   C15       1.0  0.35478  0.85649  0.18825  1.0000
  C   C16       1.0  0.85476  0.64349  0.81175  1.0000
  C   C17       1.0  0.90583  0.53214  0.26806  1.0000
  C   C18       1.0  0.40577  0.96787  0.73194  1.0000
  C   C19       1.0  0.09426  0.03213  0.23194  1.0000
  C   C20       1.0  0.59422  0.46787  0.76806  1.0000
  C   C21       1.0  0.58768  0.03982  0.34578  1.0000
  C   C22       1.0  0.08770  0.46020  0.65422  1.0000
  C   C23       1.0  0.41229  0.53979  0.15422  1.0000
  C   C24       1.0  0.91232  0.96019  0.84578  1.0000
  C   C25       1.0  0.42638  0.79478  0.33593  1.0000
  C   C26       1.0  0.92638  0.70522  0.66407  1.0000
  C   C27       1.0  0.57362  0.29477  0.16408  1.0000
  C   C28       1.0  0.07363  0.20522  0.83593  1.0000
  S   S1        1.0  0.38217  0.41206  0.48362  1.0000
  S   S2        1.0  0.88216  0.08794  0.51638  1.0000
  S   S3        1.0  0.61779  0.91206  0.01637  1.0000
  S   S4        1.0  0.11782  0.58794  0.98362  1.0000
  S   S5        1.0  0.54014  0.45398  0.39294  1.0000
  S   S6        1.0  0.04016  0.04603  0.60706  1.0000
  S   S7        1.0  0.45982  0.95396  0.10706  1.0000
  S   S8        1.0  0.95982  0.54602  0.89294  1.0000
  S   S9        1.0  0.42870  0.15842  0.42387  1.0000
  S   S10       1.0  0.92871  0.34159  0.57612  1.0000
  S   S11       1.0  0.57125  0.65840  0.07612  1.0000
  S   S12       1.0  0.07129  0.84159  0.92387  1.0000
  I   I1        1.0  0.92243  0.77370  0.43890  1.0000
  I   I2        1.0  0.42244  0.72628  0.56111  1.0000
  I   I3        1.0  0.07754  0.27371  0.06110  1.0000
  I   I4        1.0  0.57754  0.22628  0.93890  1.0000
  O   O1        1.0  0.53659  0.29316  0.28086  1.0000
  O   O2        1.0  0.03656  0.20685  0.71914  1.0000
  O   O3        1.0  0.46344  0.79314  0.21914  1.0000
  O   O4        1.0  0.96342  0.70685  0.78086  1.0000
  O   O5        1.0  0.83100  0.47981  0.31036  1.0000
  O   O6        1.0  0.33096  0.02022  0.68964  1.0000
  O   O7        1.0  0.16904  0.97978  0.18964  1.0000
  O   O8        1.0  0.66902  0.52021  0.81036  1.0000
  O   O9        1.0  0.78919  0.03036  0.31726  1.0000
  O   O10       1.0  0.28921  0.46967  0.68274  1.0000
  O   O11       1.0  0.21079  0.53033  0.18274  1.0000
  O   O12       1.0  0.71083  0.96966  0.81725  1.0000
  O   O13       1.0  0.39328  0.92984  0.35933  1.0000
  O   O14       1.0  0.89327  0.57017  0.64067  1.0000
  O   O15       1.0  0.60672  0.42982  0.14067  1.0000
  O   O16       1.0  0.10672  0.07016  0.85933  1.0000
