data_image0
_chemical_formula_structural       Cu4H24C24I4N8O4
_chemical_formula_sum              "Cu4 H24 C24 I4 N8 O4"
_cell_length_a       4.0578
_cell_length_b       13.3343
_cell_length_c       14.8571
_cell_angle_alpha    105.56
_cell_angle_beta     90
_cell_angle_gamma    90

_space_group_name_H-M_alt    "P 1"
_space_group_IT_number       1

loop_
  _space_group_symop_operation_xyz
  'x, y, z'

loop_
  _atom_site_type_symbol
  _atom_site_label
  _atom_site_symmetry_multiplicity
  _atom_site_fract_x
  _atom_site_fract_y
  _atom_site_fract_z
  _atom_site_occupancy
  Cu  Cu1       1.0  0.86536  0.53616  0.80756  1.0000
  Cu  Cu2       1.0  0.63464  0.53616  0.30756  1.0000
  Cu  Cu3       1.0  0.13464  0.46384  0.19244  1.0000
  Cu  Cu4       1.0  0.36536  0.46384  0.69244  1.0000
  H   H1        1.0  0.48446  0.97772  0.29020  1.0000
  H   H2        1.0  0.01555  0.97772  0.79021  1.0000
  H   H3        1.0  0.51555  0.02228  0.70980  1.0000
  H   H4        1.0  0.98445  0.02228  0.20980  1.0000
  H   H5        1.0  0.11889  0.63931  0.99893  1.0000
  H   H6        1.0  0.38108  0.63932  0.49892  1.0000
  H   H7        1.0  0.88110  0.36068  0.00107  1.0000
  H   H8        1.0  0.61891  0.36068  0.50107  1.0000
  H   H9        1.0  0.81252  0.96111  0.06278  1.0000
  H   H10       1.0  0.68748  0.96111  0.56279  1.0000
  H   H11       1.0  0.18749  0.03889  0.93722  1.0000
  H   H12       1.0  0.31251  0.03889  0.43722  1.0000
  H   H13       1.0  0.55180  0.91921  0.90292  1.0000
  H   H14       1.0  0.94821  0.91921  0.40293  1.0000
  H   H15       1.0  0.44822  0.08079  0.09708  1.0000
  H   H16       1.0  0.05178  0.08079  0.59708  1.0000
  H   H17       1.0  0.58716  0.73841  0.80075  1.0000
  H   H18       1.0  0.91283  0.73841  0.30076  1.0000
  H   H19       1.0  0.41285  0.26160  0.19925  1.0000
  H   H20       1.0  0.08716  0.26160  0.69924  1.0000
  H   H21       1.0  0.26113  0.74918  0.14999  1.0000
  H   H22       1.0  0.23886  0.74918  0.64999  1.0000
  H   H23       1.0  0.73889  0.25082  0.85001  1.0000
  H   H24       1.0  0.76113  0.25082  0.35001  1.0000
  C   C1        1.0  0.99114  0.70359  0.98119  1.0000
  C   C2        1.0  0.50883  0.70359  0.48119  1.0000
  C   C3        1.0  0.00885  0.29641  0.01881  1.0000
  C   C4        1.0  0.49116  0.29641  0.51880  1.0000
  C   C5        1.0  0.98329  0.80286  0.04435  1.0000
  C   C6        1.0  0.51670  0.80286  0.54435  1.0000
  C   C7        1.0  0.01671  0.19714  0.95565  1.0000
  C   C8        1.0  0.48330  0.19714  0.45565  1.0000
  C   C9        1.0  0.82230  0.88278  0.01618  1.0000
  C   C10       1.0  0.67769  0.88278  0.51618  1.0000
  C   C11       1.0  0.17770  0.11722  0.98382  1.0000
  C   C12       1.0  0.32229  0.11722  0.48382  1.0000
  C   C13       1.0  0.67798  0.86014  0.92837  1.0000
  C   C14       1.0  0.82203  0.86015  0.42837  1.0000
  C   C15       1.0  0.32202  0.13986  0.07163  1.0000
  C   C16       1.0  0.17797  0.13986  0.57163  1.0000
  C   C17       1.0  0.69651  0.75908  0.87028  1.0000
  C   C18       1.0  0.80349  0.75909  0.37028  1.0000
  C   C19       1.0  0.30350  0.24092  0.12972  1.0000
  C   C20       1.0  0.19650  0.24092  0.62972  1.0000
  C   C21       1.0  0.15506  0.81768  0.13298  1.0000
  C   C22       1.0  0.34495  0.81768  0.63298  1.0000
  C   C23       1.0  0.84495  0.18232  0.86702  1.0000
  C   C24       1.0  0.65506  0.18232  0.36702  1.0000
  I   I1        1.0  0.86144  0.56218  0.63916  1.0000
  I   I2        1.0  0.63856  0.56218  0.13916  1.0000
  I   I3        1.0  0.13855  0.43782  0.36084  1.0000
  I   I4        1.0  0.36145  0.43782  0.86084  1.0000
  N   N1        1.0  0.85222  0.68188  0.89589  1.0000
  N   N2        1.0  0.64777  0.68188  0.39589  1.0000
  N   N3        1.0  0.14779  0.31812  0.10412  1.0000
  N   N4        1.0  0.35222  0.31812  0.60411  1.0000
  N   N5        1.0  0.20229  0.90907  0.18859  1.0000
  N   N6        1.0  0.29771  0.90907  0.68859  1.0000
  N   N7        1.0  0.79772  0.09093  0.81141  1.0000
  N   N8        1.0  0.70230  0.09093  0.31141  1.0000
  O   O1        1.0  0.37808  0.90614  0.26829  1.0000
  O   O2        1.0  0.12193  0.90614  0.76829  1.0000
  O   O3        1.0  0.62192  0.09386  0.73171  1.0000
  O   O4        1.0  0.87807  0.09386  0.23171  1.0000
