data_image0
_chemical_formula_structural       Ag8H28C28N12O18
_chemical_formula_sum              "Ag8 H28 C28 N12 O18"
_cell_length_a       7.818
_cell_length_b       8.45735
_cell_length_c       14.9409
_cell_angle_alpha    91.3047
_cell_angle_beta     97.8202
_cell_angle_gamma    94.7274

_space_group_name_H-M_alt    "P 1"
_space_group_IT_number       1

loop_
  _space_group_symop_operation_xyz
  'x, y, z'

loop_
  _atom_site_type_symbol
  _atom_site_label
  _atom_site_symmetry_multiplicity
  _atom_site_fract_x
  _atom_site_fract_y
  _atom_site_fract_z
  _atom_site_occupancy
  Ag  Ag1       1.0  0.79252  0.69213  0.60732  1.0000
  Ag  Ag2       1.0  0.20748  0.30787  0.39268  1.0000
  Ag  Ag3       1.0  0.83418  0.18918  0.37617  1.0000
  Ag  Ag4       1.0  0.16582  0.81082  0.62383  1.0000
  Ag  Ag5       1.0  0.25798  0.67972  0.11519  1.0000
  Ag  Ag6       1.0  0.74203  0.32028  0.88481  1.0000
  Ag  Ag7       1.0  0.34945  0.19227  0.87623  1.0000
  Ag  Ag8       1.0  0.65055  0.80773  0.12377  1.0000
  H   H1        1.0  0.18202  0.92599  0.28120  1.0000
  H   H2        1.0  0.81798  0.07401  0.71880  1.0000
  H   H3        1.0  0.36177  0.94403  0.24234  1.0000
  H   H4        1.0  0.63823  0.05597  0.75766  1.0000
  H   H5        1.0  0.77743  0.99049  0.57011  1.0000
  H   H6        1.0  0.22257  0.00951  0.42989  1.0000
  H   H7        1.0  0.73871  0.88386  0.47443  1.0000
  H   H8        1.0  0.26129  0.11614  0.52557  1.0000
  H   H9        1.0  0.16077  0.80781  0.95883  1.0000
  H   H10       1.0  0.83923  0.19219  0.04117  1.0000
  H   H11       1.0  0.98413  0.73410  0.99864  1.0000
  H   H12       1.0  0.01588  0.26590  0.00136  1.0000
  H   H13       1.0  0.96086  0.67686  0.81111  1.0000
  H   H14       1.0  0.03913  0.32314  0.18889  1.0000
  H   H15       1.0  0.15281  0.49708  0.90465  1.0000
  H   H16       1.0  0.84719  0.50293  0.09535  1.0000
  H   H17       1.0  0.44193  0.67173  0.31337  1.0000
  H   H18       1.0  0.55806  0.32827  0.68663  1.0000
  H   H19       1.0  0.63728  0.48867  0.40612  1.0000
  H   H20       1.0  0.36271  0.51133  0.59389  1.0000
  H   H21       1.0  0.48054  0.94400  0.59525  1.0000
  H   H22       1.0  0.51945  0.05601  0.40475  1.0000
  H   H23       1.0  0.44050  0.82155  0.49452  1.0000
  H   H24       1.0  0.55950  0.17845  0.50547  1.0000
  H   H25       1.0  0.18308  0.04070  0.05254  1.0000
  H   H26       1.0  0.81693  0.95930  0.94746  1.0000
  H   H27       1.0  0.99888  0.96505  0.10060  1.0000
  H   H28       1.0  0.00112  0.03496  0.89940  1.0000
  C   C1        1.0  0.89497  0.34556  0.56301  1.0000
  C   C2        1.0  0.10503  0.65444  0.43699  1.0000
  C   C3        1.0  0.97090  0.38909  0.66020  1.0000
  C   C4        1.0  0.02910  0.61091  0.33980  1.0000
  C   C5        1.0  0.99338  0.56564  0.78280  1.0000
  C   C6        1.0  0.00661  0.43436  0.21720  1.0000
  C   C7        1.0  0.10023  0.46763  0.83429  1.0000
  C   C8        1.0  0.89977  0.53237  0.16571  1.0000
  C   C9        1.0  0.07845  0.29083  0.71245  1.0000
  C   C10       1.0  0.92155  0.70917  0.28755  1.0000
  C   C11       1.0  0.12315  0.13208  0.67853  1.0000
  C   C12       1.0  0.87685  0.86793  0.32147  1.0000
  C   C13       1.0  0.38204  0.34388  0.06399  1.0000
  C   C14       1.0  0.61797  0.65612  0.93601  1.0000
  C   C15       1.0  0.45647  0.38774  0.16111  1.0000
  C   C16       1.0  0.54353  0.61227  0.83889  1.0000
  C   C17       1.0  0.47731  0.56083  0.28542  1.0000
  C   C18       1.0  0.52269  0.43917  0.71458  1.0000
  C   C19       1.0  0.58441  0.46174  0.33555  1.0000
  C   C20       1.0  0.41558  0.53826  0.66445  1.0000
  C   C21       1.0  0.56669  0.28939  0.21165  1.0000
  C   C22       1.0  0.43331  0.71061  0.78835  1.0000
  C   C23       1.0  0.61636  0.13564  0.17289  1.0000
  C   C24       1.0  0.38364  0.86436  0.82711  1.0000
  C   C25       1.0  0.51786  0.92649  0.52769  1.0000
  C   C26       1.0  0.48213  0.07351  0.47231  1.0000
  C   C27       1.0  0.05987  0.96611  0.03845  1.0000
  C   C28       1.0  0.94013  0.03389  0.96155  1.0000
  N   N1        1.0  0.93241  0.52748  0.69602  1.0000
  N   N2        1.0  0.06759  0.47251  0.30398  1.0000
  N   N3        1.0  0.14618  0.33291  0.79867  1.0000
  N   N4        1.0  0.85382  0.66709  0.20134  1.0000
  N   N5        1.0  0.41558  0.52388  0.19840  1.0000
  N   N6        1.0  0.58442  0.47612  0.80160  1.0000
  N   N7        1.0  0.63224  0.32879  0.29831  1.0000
  N   N8        1.0  0.36775  0.67120  0.70169  1.0000
  N   N9        1.0  0.70247  0.89508  0.53803  1.0000
  N   N10       1.0  0.29753  0.10492  0.46197  1.0000
  N   N11       1.0  0.09944  0.80337  0.01577  1.0000
  N   N12       1.0  0.90056  0.19664  0.98423  1.0000
  O   O1        1.0  0.78452  0.43105  0.52443  1.0000
  O   O2        1.0  0.21548  0.56894  0.47557  1.0000
  O   O3        1.0  0.94992  0.22343  0.52858  1.0000
  O   O4        1.0  0.05009  0.77657  0.47142  1.0000
  O   O5        1.0  0.01195  0.01557  0.68513  1.0000
  O   O6        1.0  0.98805  0.98444  0.31487  1.0000
  O   O7        1.0  0.26865  0.12520  0.65235  1.0000
  O   O8        1.0  0.73135  0.87479  0.34765  1.0000
  O   O9        1.0  0.23229  0.38349  0.03607  1.0000
  O   O10       1.0  0.76772  0.61651  0.96393  1.0000
  O   O11       1.0  0.47970  0.26853  0.02025  1.0000
  O   O12       1.0  0.52030  0.73147  0.97975  1.0000
  O   O13       1.0  0.50013  0.01957  0.16737  1.0000
  O   O14       1.0  0.49987  0.98044  0.83263  1.0000
  O   O15       1.0  0.76706  0.13183  0.15336  1.0000
  O   O16       1.0  0.23294  0.86817  0.84664  1.0000
  O   O17       1.0  0.28895  0.87317  0.27624  1.0000
  O   O18       1.0  0.71105  0.12683  0.72376  1.0000
