data_image0
_chemical_formula_structural       Cu4H24C24I4N8O4
_chemical_formula_sum              "Cu4 H24 C24 I4 N8 O4"
_cell_length_a       3.98539
_cell_length_b       13.3806
_cell_length_c       16.4437
_cell_angle_alpha    108.726
_cell_angle_beta     90.0002
_cell_angle_gamma    90.0013

_space_group_name_H-M_alt    "P 1"
_space_group_IT_number       1

loop_
  _space_group_symop_operation_xyz
  'x, y, z'

loop_
  _atom_site_type_symbol
  _atom_site_label
  _atom_site_symmetry_multiplicity
  _atom_site_fract_x
  _atom_site_fract_y
  _atom_site_fract_z
  _atom_site_occupancy
  Cu  Cu1       1.0  0.55586  0.56891  0.25344  1.0000
  Cu  Cu2       1.0  0.94414  0.56891  0.75344  1.0000
  Cu  Cu3       1.0  0.44414  0.43109  0.74656  1.0000
  Cu  Cu4       1.0  0.05585  0.43108  0.24656  1.0000
  H   H1        1.0  0.86027  0.56388  0.09091  1.0000
  H   H2        1.0  0.63975  0.56388  0.59092  1.0000
  H   H3        1.0  0.13975  0.43612  0.90908  1.0000
  H   H4        1.0  0.36024  0.43612  0.40908  1.0000
  H   H5        1.0  0.00303  0.68940  0.01277  1.0000
  H   H6        1.0  0.49699  0.68940  0.51279  1.0000
  H   H7        1.0  0.99694  0.31060  0.98721  1.0000
  H   H8        1.0  0.50300  0.31060  0.48722  1.0000
  H   H9        1.0  0.53569  0.93586  0.22012  1.0000
  H   H10       1.0  0.96432  0.93587  0.72014  1.0000
  H   H11       1.0  0.46428  0.06413  0.77986  1.0000
  H   H12       1.0  0.03568  0.06413  0.27988  1.0000
  H   H13       1.0  0.39952  0.79892  0.28778  1.0000
  H   H14       1.0  0.10052  0.79893  0.78779  1.0000
  H   H15       1.0  0.60050  0.20108  0.71222  1.0000
  H   H16       1.0  0.89948  0.20107  0.21221  1.0000
  H   H17       1.0  0.91304  0.92172  0.94639  1.0000
  H   H18       1.0  0.58699  0.92171  0.44640  1.0000
  H   H19       1.0  0.08697  0.07830  0.05361  1.0000
  H   H20       1.0  0.41306  0.07829  0.55361  1.0000
  H   H21       1.0  0.75186  0.79896  0.94743  1.0000
  H   H22       1.0  0.74813  0.79897  0.44743  1.0000
  H   H23       1.0  0.24812  0.20103  0.05257  1.0000
  H   H24       1.0  0.25186  0.20103  0.55256  1.0000
  C   C1        1.0  0.78854  0.64688  0.11656  1.0000
  C   C2        1.0  0.71148  0.64689  0.61657  1.0000
  C   C3        1.0  0.21146  0.35312  0.88343  1.0000
  C   C4        1.0  0.28849  0.35310  0.38343  1.0000
  C   C5        1.0  0.86488  0.71745  0.07312  1.0000
  C   C6        1.0  0.63514  0.71746  0.57313  1.0000
  C   C7        1.0  0.13510  0.28254  0.92687  1.0000
  C   C8        1.0  0.36486  0.28255  0.42687  1.0000
  C   C9        1.0  0.77358  0.82349  0.10927  1.0000
  C   C10       1.0  0.72646  0.82350  0.60928  1.0000
  C   C11       1.0  0.22640  0.17650  0.89072  1.0000
  C   C12       1.0  0.27358  0.17651  0.39072  1.0000
  C   C13       1.0  0.60880  0.85415  0.18857  1.0000
  C   C14       1.0  0.89123  0.85415  0.68859  1.0000
  C   C15       1.0  0.39118  0.14585  0.81141  1.0000
  C   C16       1.0  0.10880  0.14585  0.31143  1.0000
  C   C17       1.0  0.53499  0.77812  0.22699  1.0000
  C   C18       1.0  0.96504  0.77813  0.72701  1.0000
  C   C19       1.0  0.46501  0.22188  0.77300  1.0000
  C   C20       1.0  0.03497  0.22187  0.27301  1.0000
  C   C21       1.0  0.86063  0.90373  0.06653  1.0000
  C   C22       1.0  0.63941  0.90374  0.56654  1.0000
  C   C23       1.0  0.13937  0.09626  0.93346  1.0000
  C   C24       1.0  0.36063  0.09626  0.43347  1.0000
  I   I1        1.0  0.57301  0.38357  0.13441  1.0000
  I   I2        1.0  0.92696  0.38357  0.63441  1.0000
  I   I3        1.0  0.42697  0.61643  0.86559  1.0000
  I   I4        1.0  0.07303  0.61643  0.36559  1.0000
  N   N1        1.0  0.62290  0.67565  0.19202  1.0000
  N   N2        1.0  0.87713  0.67566  0.69203  1.0000
  N   N3        1.0  0.37710  0.32435  0.80797  1.0000
  N   N4        1.0  0.12288  0.32434  0.30797  1.0000
  N   N5        1.0  0.84441  0.87162  0.98057  1.0000
  N   N6        1.0  0.65560  0.87162  0.48058  1.0000
  N   N7        1.0  0.15558  0.12838  0.01942  1.0000
  N   N8        1.0  0.34442  0.12838  0.51943  1.0000
  O   O1        1.0  0.94853  0.99469  0.11145  1.0000
  O   O2        1.0  0.55147  0.99471  0.61147  1.0000
  O   O3        1.0  0.05144  0.00530  0.88854  1.0000
  O   O4        1.0  0.44855  0.00530  0.38854  1.0000
