data_image0
_chemical_formula_structural       Ba2H32C28S2O20
_chemical_formula_sum              "Ba2 H32 C28 S2 O20"
_cell_length_a       6.20112
_cell_length_b       12.8618
_cell_length_c       13.7863
_cell_angle_alpha    76.3212
_cell_angle_beta     87.1815
_cell_angle_gamma    82.306

_space_group_name_H-M_alt    "P 1"
_space_group_IT_number       1

loop_
  _space_group_symop_operation_xyz
  'x, y, z'

loop_
  _atom_site_type_symbol
  _atom_site_label
  _atom_site_symmetry_multiplicity
  _atom_site_fract_x
  _atom_site_fract_y
  _atom_site_fract_z
  _atom_site_occupancy
  Ba  Ba1       1.0  0.74104  0.47169  0.63186  1.0000
  Ba  Ba2       1.0  0.25896  0.52831  0.36813  1.0000
  H   H1        1.0  0.95338  0.13576  0.20107  1.0000
  H   H2        1.0  0.04662  0.86423  0.79893  1.0000
  H   H3        1.0  0.97031  0.94444  0.29637  1.0000
  H   H4        1.0  0.02968  0.05555  0.70363  1.0000
  H   H5        1.0  0.32094  0.00900  0.41204  1.0000
  H   H6        1.0  0.67906  0.99101  0.58796  1.0000
  H   H7        1.0  0.30813  0.20367  0.32109  1.0000
  H   H8        1.0  0.69186  0.79633  0.67891  1.0000
  H   H9        1.0  0.20671  0.40787  0.12536  1.0000
  H   H10       1.0  0.79329  0.59214  0.87464  1.0000
  H   H11       1.0  0.04590  0.43483  0.95629  1.0000
  H   H12       1.0  0.95411  0.56518  0.04371  1.0000
  H   H13       1.0  0.65419  0.30109  0.84564  1.0000
  H   H14       1.0  0.34582  0.69890  0.15435  1.0000
  H   H15       1.0  0.81742  0.27212  0.01281  1.0000
  H   H16       1.0  0.18258  0.72787  0.98720  1.0000
  H   H17       1.0  0.69123  0.21375  0.64966  1.0000
  H   H18       1.0  0.30877  0.78626  0.35034  1.0000
  H   H19       1.0  0.93681  0.21933  0.63637  1.0000
  H   H20       1.0  0.06319  0.78068  0.36364  1.0000
  H   H21       1.0  0.15960  0.32799  0.54974  1.0000
  H   H22       1.0  0.84040  0.67201  0.45026  1.0000
  H   H23       1.0  0.23953  0.39981  0.61678  1.0000
  H   H24       1.0  0.76048  0.60019  0.38322  1.0000
  H   H25       1.0  0.93477  0.72068  0.57724  1.0000
  H   H26       1.0  0.06523  0.27932  0.42277  1.0000
  H   H27       1.0  0.02268  0.66904  0.68923  1.0000
  H   H28       1.0  0.97732  0.33096  0.31077  1.0000
  H   H29       1.0  0.75188  0.37623  0.43063  1.0000
  H   H30       1.0  0.24812  0.62377  0.56938  1.0000
  H   H31       1.0  0.56943  0.31556  0.49635  1.0000
  H   H32       1.0  0.43057  0.68444  0.50365  1.0000
  C   C1        1.0  0.81557  0.10762  0.24736  1.0000
  C   C2        1.0  0.18442  0.89237  0.75263  1.0000
  C   C3        1.0  0.82469  0.00093  0.30112  1.0000
  C   C4        1.0  0.17530  0.99906  0.69888  1.0000
  C   C5        1.0  0.64696  0.96584  0.36101  1.0000
  C   C6        1.0  0.35304  0.03416  0.63899  1.0000
  C   C7        1.0  0.45778  0.03786  0.36544  1.0000
  C   C8        1.0  0.54222  0.96214  0.63457  1.0000
  C   C9        1.0  0.44903  0.14542  0.31419  1.0000
  C   C10       1.0  0.55097  0.85458  0.68582  1.0000
  C   C11       1.0  0.62909  0.17941  0.25632  1.0000
  C   C12       1.0  0.37090  0.82059  0.74368  1.0000
  C   C13       1.0  0.51978  0.33780  0.07808  1.0000
  C   C14       1.0  0.48022  0.66219  0.92192  1.0000
  C   C15       1.0  0.30287  0.38391  0.06426  1.0000
  C   C16       1.0  0.69713  0.61610  0.93574  1.0000
  C   C17       1.0  0.21411  0.39944  0.97046  1.0000
  C   C18       1.0  0.78590  0.60057  0.02953  1.0000
  C   C19       1.0  0.33986  0.37109  0.89141  1.0000
  C   C20       1.0  0.66015  0.62891  0.10858  1.0000
  C   C21       1.0  0.55691  0.32424  0.90700  1.0000
  C   C22       1.0  0.44309  0.67576  0.09300  1.0000
  C   C23       1.0  0.64814  0.30701  0.00068  1.0000
  C   C24       1.0  0.35186  0.69298  0.99932  1.0000
  C   C25       1.0  0.65838  0.85220  0.42361  1.0000
  C   C26       1.0  0.34162  0.14780  0.57639  1.0000
  C   C27       1.0  0.23882  0.39454  0.78974  1.0000
  C   C28       1.0  0.76120  0.60546  0.21026  1.0000
  S   S1        1.0  0.62844  0.31821  0.19811  1.0000
  S   S2        1.0  0.37156  0.68179  0.80189  1.0000
  O   O1        1.0  0.81154  0.23903  0.67833  1.0000
  O   O2        1.0  0.18846  0.76097  0.32168  1.0000
  O   O3        1.0  0.48222  0.81161  0.44349  1.0000
  O   O4        1.0  0.51778  0.18839  0.55651  1.0000
  O   O5        1.0  0.15023  0.40386  0.55591  1.0000
  O   O6        1.0  0.84978  0.59614  0.44409  1.0000
  O   O7        1.0  0.84696  0.80444  0.45349  1.0000
  O   O8        1.0  0.15305  0.19556  0.54651  1.0000
  O   O9        1.0  0.03503  0.41759  0.78420  1.0000
  O   O10       1.0  0.96498  0.58240  0.21579  1.0000
  O   O11       1.0  0.98946  0.65339  0.62546  1.0000
  O   O12       1.0  0.01054  0.34661  0.37454  1.0000
  O   O13       1.0  0.37079  0.39011  0.71567  1.0000
  O   O14       1.0  0.62924  0.60988  0.28432  1.0000
  O   O15       1.0  0.61676  0.38835  0.47025  1.0000
  O   O16       1.0  0.38324  0.61165  0.52976  1.0000
  O   O17       1.0  0.47872  0.37974  0.25437  1.0000
  O   O18       1.0  0.52127  0.62026  0.74563  1.0000
  O   O19       1.0  0.85639  0.33731  0.18724  1.0000
  O   O20       1.0  0.14360  0.66270  0.81275  1.0000
