data_image0
_chemical_formula_structural       Ba2H32C28S2O20
_chemical_formula_sum              "Ba2 H32 C28 S2 O20"
_cell_length_a       6.00796
_cell_length_b       14.2192
_cell_length_c       13.7655
_cell_angle_alpha    113.949
_cell_angle_beta     86.5941
_cell_angle_gamma    91.1408

_space_group_name_H-M_alt    "P 1"
_space_group_IT_number       1

loop_
  _space_group_symop_operation_xyz
  'x, y, z'

loop_
  _atom_site_type_symbol
  _atom_site_label
  _atom_site_symmetry_multiplicity
  _atom_site_fract_x
  _atom_site_fract_y
  _atom_site_fract_z
  _atom_site_occupancy
  Ba  Ba1       1.0  0.25989  0.62836  0.01340  1.0000
  Ba  Ba2       1.0  0.74011  0.37163  0.98660  1.0000
  H   H1        1.0  0.77036  0.35580  0.27355  1.0000
  H   H2        1.0  0.22963  0.64420  0.72644  1.0000
  H   H3        1.0  0.88670  0.43707  0.46047  1.0000
  H   H4        1.0  0.11328  0.56294  0.53953  1.0000
  H   H5        1.0  0.27608  0.33855  0.56909  1.0000
  H   H6        1.0  0.72395  0.66144  0.43090  1.0000
  H   H7        1.0  0.15760  0.25587  0.38156  1.0000
  H   H8        1.0  0.84241  0.74413  0.61844  1.0000
  H   H9        1.0  0.19778  0.05841  0.21852  1.0000
  H   H10       1.0  0.80222  0.94159  0.78149  1.0000
  H   H11       1.0  0.34776  0.88653  0.18511  1.0000
  H   H12       1.0  0.65222  0.11348  0.81490  1.0000
  H   H13       1.0  0.96533  0.95866  0.05638  1.0000
  H   H14       1.0  0.03466  0.04133  0.94363  1.0000
  H   H15       1.0  0.81317  0.13232  0.08706  1.0000
  H   H16       1.0  0.18684  0.86768  0.91294  1.0000
  H   H17       1.0  0.76089  0.55699  0.89733  1.0000
  H   H18       1.0  0.23911  0.44301  0.10267  1.0000
  H   H19       1.0  0.59292  0.47675  0.82662  1.0000
  H   H20       1.0  0.40708  0.52325  0.17338  1.0000
  H   H21       1.0  0.77179  0.64413  0.11658  1.0000
  H   H22       1.0  0.22819  0.35587  0.88342  1.0000
  H   H23       1.0  0.86360  0.59214  0.18825  1.0000
  H   H24       1.0  0.13639  0.40786  0.81175  1.0000
  H   H25       1.0  0.94273  0.55033  0.76934  1.0000
  H   H26       1.0  0.05728  0.44967  0.23066  1.0000
  H   H27       1.0  0.94810  0.66824  0.84617  1.0000
  H   H28       1.0  0.05191  0.33176  0.15384  1.0000
  H   H29       1.0  0.33357  0.68495  0.27066  1.0000
  H   H30       1.0  0.66644  0.31504  0.72934  1.0000
  H   H31       1.0  0.42415  0.76003  0.22283  1.0000
  H   H32       1.0  0.57585  0.23996  0.77717  1.0000
  C   C1        1.0  0.66553  0.35069  0.33838  1.0000
  C   C2        1.0  0.33448  0.64933  0.66162  1.0000
  C   C3        1.0  0.72910  0.39623  0.44298  1.0000
  C   C4        1.0  0.27090  0.60378  0.55702  1.0000
  C   C5        1.0  0.59159  0.38954  0.52560  1.0000
  C   C6        1.0  0.40842  0.61047  0.47440  1.0000
  C   C7        1.0  0.38436  0.34023  0.50354  1.0000
  C   C8        1.0  0.61564  0.65978  0.49646  1.0000
  C   C9        1.0  0.31820  0.29427  0.39942  1.0000
  C   C10       1.0  0.68182  0.70572  0.60058  1.0000
  C   C11       1.0  0.46229  0.29893  0.31776  1.0000
  C   C12       1.0  0.53771  0.70108  0.68225  1.0000
  C   C13       1.0  0.49800  0.10410  0.15447  1.0000
  C   C14       1.0  0.50199  0.89590  0.84553  1.0000
  C   C15       1.0  0.36580  0.03621  0.18294  1.0000
  C   C16       1.0  0.63419  0.96379  0.81706  1.0000
  C   C17       1.0  0.45186  0.93975  0.16412  1.0000
  C   C18       1.0  0.54814  0.06025  0.83589  1.0000
  C   C19       1.0  0.66881  0.91192  0.11855  1.0000
  C   C20       1.0  0.33119  0.08808  0.88145  1.0000
  C   C21       1.0  0.79757  0.98168  0.09124  1.0000
  C   C22       1.0  0.20243  0.01832  0.90877  1.0000
  C   C23       1.0  0.71360  0.07797  0.10837  1.0000
  C   C24       1.0  0.28639  0.92203  0.89163  1.0000
  C   C25       1.0  0.66704  0.43386  0.63787  1.0000
  C   C26       1.0  0.33298  0.56615  0.36212  1.0000
  C   C27       1.0  0.76854  0.80826  0.09721  1.0000
  C   C28       1.0  0.23145  0.19174  0.90279  1.0000
  S   S1        1.0  0.39702  0.22946  0.18360  1.0000
  S   S2        1.0  0.60302  0.77055  0.81641  1.0000
  O   O1        1.0  0.63123  0.51511  0.90434  1.0000
  O   O2        1.0  0.36877  0.48489  0.09566  1.0000
  O   O3        1.0  0.85145  0.48089  0.65527  1.0000
  O   O4        1.0  0.14857  0.51910  0.34472  1.0000
  O   O5        1.0  0.85917  0.58286  0.11426  1.0000
  O   O6        1.0  0.14082  0.41713  0.88574  1.0000
  O   O7        1.0  0.53842  0.41756  0.70732  1.0000
  O   O8        1.0  0.46160  0.58243  0.29267  1.0000
  O   O9        1.0  0.63903  0.74249  0.11463  1.0000
  O   O10       1.0  0.36097  0.25751  0.88538  1.0000
  O   O11       1.0  0.98968  0.60013  0.84254  1.0000
  O   O12       1.0  0.01033  0.39987  0.15746  1.0000
  O   O13       1.0  0.96919  0.79127  0.06361  1.0000
  O   O14       1.0  0.03080  0.20873  0.93639  1.0000
  O   O15       1.0  0.28285  0.73327  0.24125  1.0000
  O   O16       1.0  0.71715  0.26673  0.75876  1.0000
  O   O17       1.0  0.52563  0.27081  0.11703  1.0000
  O   O18       1.0  0.47435  0.72918  0.88297  1.0000
  O   O19       1.0  0.15477  0.22364  0.17814  1.0000
  O   O20       1.0  0.84524  0.77636  0.82186  1.0000
