data_image0
_chemical_formula_structural       Zn2H22C26N4O10
_chemical_formula_sum              "Zn2 H22 C26 N4 O10"
_cell_length_a       8.23235
_cell_length_b       8.32994
_cell_length_c       10.2178
_cell_angle_alpha    100.258
_cell_angle_beta     101.115
_cell_angle_gamma    106.373

_space_group_name_H-M_alt    "P 1"
_space_group_IT_number       1

loop_
  _space_group_symop_operation_xyz
  'x, y, z'

loop_
  _atom_site_type_symbol
  _atom_site_label
  _atom_site_symmetry_multiplicity
  _atom_site_fract_x
  _atom_site_fract_y
  _atom_site_fract_z
  _atom_site_occupancy
  Zn  Zn1       1.0  0.66097  0.46937  0.89204  1.0000
  Zn  Zn2       1.0  0.33903  0.53063  0.10796  1.0000
  H   H1        1.0  0.43374  0.04503  0.76532  1.0000
  H   H2        1.0  0.56626  0.95498  0.23468  1.0000
  H   H3        1.0  0.59165  0.81551  0.85224  1.0000
  H   H4        1.0  0.40835  0.18449  0.14776  1.0000
  H   H5        1.0  0.91843  0.32665  0.05805  1.0000
  H   H6        1.0  0.08157  0.67335  0.94195  1.0000
  H   H7        1.0  0.86960  0.85818  0.04251  1.0000
  H   H8        1.0  0.13040  0.14182  0.95749  1.0000
  H   H9        1.0  0.98813  0.07195  0.14538  1.0000
  H   H10       1.0  0.01187  0.92804  0.85462  1.0000
  H   H11       1.0  0.07685  0.76018  0.71059  1.0000
  H   H12       1.0  0.92315  0.23982  0.28941  1.0000
  H   H13       1.0  0.02720  0.79786  0.29019  1.0000
  H   H14       1.0  0.97280  0.20214  0.70981  1.0000
  H   H15       1.0  0.61326  0.43887  0.39535  1.0000
  H   H16       1.0  0.38674  0.56113  0.60465  1.0000
  H   H17       1.0  0.32432  0.92593  0.38344  1.0000
  H   H18       1.0  0.67568  0.07407  0.61657  1.0000
  H   H19       1.0  0.41117  0.12220  0.51841  1.0000
  H   H20       1.0  0.58883  0.87780  0.48159  1.0000
  H   H21       1.0  0.19744  0.06794  0.40710  1.0000
  H   H22       1.0  0.80256  0.93206  0.59291  1.0000
  C   C1        1.0  0.55723  0.07076  0.83956  1.0000
  C   C2        1.0  0.44278  0.92923  0.16044  1.0000
  C   C3        1.0  0.63506  0.95556  0.87981  1.0000
  C   C4        1.0  0.36494  0.04444  0.12019  1.0000
  C   C5        1.0  0.80622  0.22223  0.98978  1.0000
  C   C6        1.0  0.19378  0.77777  0.01022  1.0000
  C   C7        1.0  0.92916  0.99247  0.03968  1.0000
  C   C8        1.0  0.07084  0.00753  0.96032  1.0000
  C   C9        1.0  0.75755  0.51537  0.66841  1.0000
  C   C10       1.0  0.24245  0.48463  0.33159  1.0000
  C   C11       1.0  0.83697  0.59124  0.56401  1.0000
  C   C12       1.0  0.16303  0.40876  0.43599  1.0000
  C   C13       1.0  0.00062  0.71977  0.60375  1.0000
  C   C14       1.0  0.99938  0.28023  0.39625  1.0000
  C   C15       1.0  0.06953  0.79840  0.50691  1.0000
  C   C16       1.0  0.93047  0.20160  0.49309  1.0000
  C   C17       1.0  0.97627  0.74270  0.36847  1.0000
  C   C18       1.0  0.02373  0.25730  0.63153  1.0000
  C   C19       1.0  0.81200  0.61295  0.32876  1.0000
  C   C20       1.0  0.18800  0.38705  0.67124  1.0000
  C   C21       1.0  0.74167  0.53743  0.42575  1.0000
  C   C22       1.0  0.25833  0.46257  0.57425  1.0000
  C   C23       1.0  0.29305  0.01554  0.45932  1.0000
  C   C24       1.0  0.70696  0.98447  0.54068  1.0000
  C   C25       1.0  0.71117  0.55721  0.18168  1.0000
  C   C26       1.0  0.28883  0.44278  0.81832  1.0000
  N   N1        1.0  0.66554  0.23643  0.90893  1.0000
  N   N2        1.0  0.33446  0.76357  0.09107  1.0000
  N   N3        1.0  0.79213  0.05368  0.97486  1.0000
  N   N4        1.0  0.20787  0.94631  0.02514  1.0000
  O   O1        1.0  0.82409  0.60221  0.79705  1.0000
  O   O2        1.0  0.17591  0.39779  0.20295  1.0000
  O   O3        1.0  0.63005  0.37823  0.63268  1.0000
  O   O4        1.0  0.36995  0.62178  0.36732  1.0000
  O   O5        1.0  0.55032  0.46080  0.15043  1.0000
  O   O6        1.0  0.44968  0.53920  0.84957  1.0000
  O   O7        1.0  0.78955  0.60406  0.09138  1.0000
  O   O8        1.0  0.21045  0.39594  0.90862  1.0000
  O   O9        1.0  0.22548  0.92897  0.55691  1.0000
  O   O10       1.0  0.77452  0.07103  0.44309  1.0000
