data_image0
_chemical_formula_structural       Cd4H34C58N4O18
_chemical_formula_sum              "Cd4 H34 C58 N4 O18"
_cell_length_a       8.34559
_cell_length_b       11.0463
_cell_length_c       14.1705
_cell_angle_alpha    70.4777
_cell_angle_beta     87.2924
_cell_angle_gamma    84.7101

_space_group_name_H-M_alt    "P 1"
_space_group_IT_number       1

loop_
  _space_group_symop_operation_xyz
  'x, y, z'

loop_
  _atom_site_type_symbol
  _atom_site_label
  _atom_site_symmetry_multiplicity
  _atom_site_fract_x
  _atom_site_fract_y
  _atom_site_fract_z
  _atom_site_occupancy
  Cd  Cd1       1.0  0.45490  0.18048  0.51047  1.0000
  Cd  Cd2       1.0  0.54510  0.81953  0.48953  1.0000
  Cd  Cd3       1.0  0.94759  0.33765  0.49329  1.0000
  Cd  Cd4       1.0  0.05241  0.66235  0.50671  1.0000
  H   H1        1.0  0.87823  0.75554  0.20730  1.0000
  H   H2        1.0  0.12177  0.24446  0.79270  1.0000
  H   H3        1.0  0.87713  0.71415  0.04508  1.0000
  H   H4        1.0  0.12287  0.28584  0.95492  1.0000
  H   H5        1.0  0.62991  0.37285  0.18856  1.0000
  H   H6        1.0  0.37009  0.62715  0.81144  1.0000
  H   H7        1.0  0.88488  0.56620  0.82287  1.0000
  H   H8        1.0  0.11512  0.43380  0.17713  1.0000
  H   H9        1.0  0.44803  0.89530  0.83569  1.0000
  H   H10       1.0  0.55197  0.10471  0.16431  1.0000
  H   H11       1.0  0.52910  0.72082  0.99147  1.0000
  H   H12       1.0  0.47090  0.27918  0.00853  1.0000
  H   H13       1.0  0.73490  0.44141  0.61973  1.0000
  H   H14       1.0  0.26510  0.55859  0.38027  1.0000
  H   H15       1.0  0.75564  0.43537  0.74482  1.0000
  H   H16       1.0  0.24436  0.56463  0.25518  1.0000
  H   H17       1.0  0.59103  0.36743  0.71205  1.0000
  H   H18       1.0  0.40897  0.63257  0.28795  1.0000
  H   H19       1.0  0.11681  0.03683  0.58856  1.0000
  H   H20       1.0  0.88319  0.96317  0.41144  1.0000
  H   H21       1.0  0.19892  0.82139  0.71021  1.0000
  H   H22       1.0  0.80108  0.17861  0.28979  1.0000
  H   H23       1.0  0.10066  0.75593  0.88604  1.0000
  H   H24       1.0  0.89934  0.24407  0.11396  1.0000
  H   H25       1.0  0.91069  0.90600  0.94608  1.0000
  H   H26       1.0  0.08931  0.09400  0.05392  1.0000
  H   H27       1.0  0.70646  0.27093  0.89118  1.0000
  H   H28       1.0  0.29354  0.72907  0.10882  1.0000
  H   H29       1.0  0.85161  0.15057  0.95672  1.0000
  H   H30       1.0  0.14839  0.84943  0.04328  1.0000
  H   H31       1.0  0.45558  0.16217  0.83065  1.0000
  H   H32       1.0  0.54442  0.83783  0.16935  1.0000
  H   H33       1.0  0.75871  0.97902  0.08537  1.0000
  H   H34       1.0  0.24129  0.02098  0.91463  1.0000
  C   C1        1.0  0.61130  0.38359  0.37318  1.0000
  C   C2        1.0  0.38870  0.61641  0.62682  1.0000
  C   C3        1.0  0.69149  0.47624  0.28482  1.0000
  C   C4        1.0  0.30851  0.52376  0.71518  1.0000
  C   C5        1.0  0.76145  0.58482  0.29006  1.0000
  C   C6        1.0  0.23854  0.41518  0.70994  1.0000
  C   C7        1.0  0.75566  0.62288  0.38315  1.0000
  C   C8        1.0  0.24434  0.37712  0.61684  1.0000
  C   C9        1.0  0.82822  0.66973  0.20320  1.0000
  C   C10       1.0  0.17178  0.33027  0.79680  1.0000
  C   C11       1.0  0.82532  0.64786  0.11235  1.0000
  C   C12       1.0  0.17468  0.35214  0.88765  1.0000
  C   C13       1.0  0.75508  0.54001  0.10635  1.0000
  C   C14       1.0  0.24492  0.45999  0.89365  1.0000
  C   C15       1.0  0.68851  0.45502  0.19285  1.0000
  C   C16       1.0  0.31149  0.54498  0.80715  1.0000
  C   C17       1.0  0.75241  0.51756  0.00825  1.0000
  C   C18       1.0  0.24759  0.48244  0.99175  1.0000
  C   C19       1.0  0.71322  0.63093  0.91789  1.0000
  C   C20       1.0  0.28678  0.36907  0.08211  1.0000
  C   C21       1.0  0.78993  0.63910  0.82650  1.0000
  C   C22       1.0  0.21007  0.36090  0.17350  1.0000
  C   C23       1.0  0.74977  0.74082  0.73882  1.0000
  C   C24       1.0  0.25023  0.25918  0.26118  1.0000
  C   C25       1.0  0.62555  0.83469  0.74233  1.0000
  C   C26       1.0  0.37445  0.16531  0.25767  1.0000
  C   C27       1.0  0.54653  0.82453  0.83380  1.0000
  C   C28       1.0  0.45347  0.17547  0.16620  1.0000
  C   C29       1.0  0.59168  0.72608  0.92125  1.0000
  C   C30       1.0  0.40832  0.27392  0.07875  1.0000
  C   C31       1.0  0.83768  0.74056  0.64443  1.0000
  C   C32       1.0  0.16232  0.25944  0.35557  1.0000
  C   C33       1.0  0.56374  0.94770  0.65484  1.0000
  C   C34       1.0  0.43626  0.05230  0.34516  1.0000
  C   C35       1.0  0.71971  0.38120  0.69797  1.0000
  C   C36       1.0  0.28029  0.61880  0.30203  1.0000
  C   C37       1.0  0.81431  0.25562  0.71829  1.0000
  C   C38       1.0  0.18569  0.74438  0.28171  1.0000
  C   C39       1.0  0.97078  0.09304  0.70034  1.0000
  C   C40       1.0  0.02922  0.90696  0.29966  1.0000
  C   C41       1.0  0.07344  0.00896  0.66595  1.0000
  C   C42       1.0  0.92656  0.99103  0.33405  1.0000
  C   C43       1.0  0.11822  0.88845  0.73493  1.0000
  C   C44       1.0  0.88178  0.11155  0.26507  1.0000
  C   C45       1.0  0.06195  0.85132  0.83493  1.0000
  C   C46       1.0  0.93805  0.14868  0.16507  1.0000
  C   C47       1.0  0.95837  0.93440  0.86962  1.0000
  C   C48       1.0  0.04163  0.06560  0.13038  1.0000
  C   C49       1.0  0.91469  0.05540  0.80080  1.0000
  C   C50       1.0  0.08531  0.94460  0.19920  1.0000
  C   C51       1.0  0.75153  0.17020  0.90464  1.0000
  C   C52       1.0  0.24847  0.82980  0.09535  1.0000
  C   C53       1.0  0.62227  0.08034  0.95238  1.0000
  C   C54       1.0  0.37773  0.91965  0.04762  1.0000
  C   C55       1.0  0.47542  0.09198  0.90527  1.0000
  C   C56       1.0  0.52458  0.90802  0.09473  1.0000
  C   C57       1.0  0.64543  0.98746  0.04723  1.0000
  C   C58       1.0  0.35457  0.01254  0.95277  1.0000
  N   N1        1.0  0.90648  0.21833  0.65161  1.0000
  N   N2        1.0  0.09352  0.78167  0.34839  1.0000
  N   N3        1.0  0.81703  0.16002  0.80982  1.0000
  N   N4        1.0  0.18297  0.83998  0.19019  1.0000
  O   O1        1.0  0.68651  0.32678  0.45527  1.0000
  O   O2        1.0  0.31349  0.67322  0.54473  1.0000
  O   O3        1.0  0.46919  0.36067  0.36274  1.0000
  O   O4        1.0  0.53081  0.63933  0.63727  1.0000
  O   O5        1.0  0.84731  0.55836  0.45652  1.0000
  O   O6        1.0  0.15268  0.44164  0.54348  1.0000
  O   O7        1.0  0.66316  0.72117  0.37890  1.0000
  O   O8        1.0  0.33684  0.27883  0.62110  1.0000
  O   O9        1.0  0.78044  0.40848  0.00172  1.0000
  O   O10       1.0  0.21956  0.59152  0.99828  1.0000
  O   O11       1.0  0.95628  0.65508  0.65465  1.0000
  O   O12       1.0  0.04372  0.34492  0.34535  1.0000
  O   O13       1.0  0.79520  0.82001  0.55951  1.0000
  O   O14       1.0  0.20480  0.17999  0.44049  1.0000
  O   O15       1.0  0.45290  0.93185  0.60172  1.0000
  O   O16       1.0  0.54710  0.06815  0.39828  1.0000
  O   O17       1.0  0.61246  0.05707  0.64354  1.0000
  O   O18       1.0  0.38754  0.94293  0.35646  1.0000
