data_image0
_chemical_formula_structural       Zn2H36C42N12O10
_chemical_formula_sum              "Zn2 H36 C42 N12 O10"
_cell_length_a       10.197
_cell_length_b       10.337
_cell_length_c       11.7351
_cell_angle_alpha    72.7948
_cell_angle_beta     82.1702
_cell_angle_gamma    64.0142

_space_group_name_H-M_alt    "P 1"
_space_group_IT_number       1

loop_
  _space_group_symop_operation_xyz
  'x, y, z'

loop_
  _atom_site_type_symbol
  _atom_site_label
  _atom_site_symmetry_multiplicity
  _atom_site_fract_x
  _atom_site_fract_y
  _atom_site_fract_z
  _atom_site_occupancy
  Zn  Zn1       1.0  0.55059  0.73329  0.64562  1.0000
  Zn  Zn2       1.0  0.44941  0.26671  0.35438  1.0000
  H   H1        1.0  0.07076  0.69187  0.65975  1.0000
  H   H2        1.0  0.92924  0.30813  0.34025  1.0000
  H   H3        1.0  0.10414  0.09879  0.63589  1.0000
  H   H4        1.0  0.89586  0.90121  0.36411  1.0000
  H   H5        1.0  0.67983  0.09342  0.65997  1.0000
  H   H6        1.0  0.32017  0.90658  0.34002  1.0000
  H   H7        1.0  0.97339  0.29559  0.70977  1.0000
  H   H8        1.0  0.02661  0.70441  0.29023  1.0000
  H   H9        1.0  0.82552  0.45705  0.63110  1.0000
  H   H10       1.0  0.17448  0.54295  0.36890  1.0000
  H   H11       1.0  0.96390  0.33812  0.54998  1.0000
  H   H12       1.0  0.03610  0.66188  0.45002  1.0000
  H   H13       1.0  0.41727  0.48675  0.78104  1.0000
  H   H14       1.0  0.58272  0.51325  0.21896  1.0000
  H   H15       1.0  0.78804  0.52505  0.85762  1.0000
  H   H16       1.0  0.21196  0.47494  0.14238  1.0000
  H   H17       1.0  0.70653  0.24746  0.12156  1.0000
  H   H18       1.0  0.29347  0.75254  0.87844  1.0000
  H   H19       1.0  0.82896  0.33369  0.07851  1.0000
  H   H20       1.0  0.17104  0.66631  0.92150  1.0000
  H   H21       1.0  0.74941  0.10420  0.92127  1.0000
  H   H22       1.0  0.25059  0.89580  0.07873  1.0000
  H   H23       1.0  0.06239  0.13182  0.11489  1.0000
  H   H24       1.0  0.93761  0.86817  0.88511  1.0000
  H   H25       1.0  0.62463  0.50471  0.46147  1.0000
  H   H26       1.0  0.37538  0.49529  0.53853  1.0000
  H   H27       1.0  0.35988  0.07881  0.59223  1.0000
  H   H28       1.0  0.64012  0.92119  0.40777  1.0000
  H   H29       1.0  0.17432  0.22356  0.84870  1.0000
  H   H30       1.0  0.82568  0.77644  0.15130  1.0000
  H   H31       1.0  0.25128  0.05909  0.79717  1.0000
  H   H32       1.0  0.74872  0.94091  0.20283  1.0000
  H   H33       1.0  0.28866  0.23892  0.00815  1.0000
  H   H34       1.0  0.71134  0.76109  0.99185  1.0000
  H   H35       1.0  0.52170  0.88620  0.83543  1.0000
  H   H36       1.0  0.47830  0.11380  0.16457  1.0000
  C   C1        1.0  0.77978  0.79546  0.67004  1.0000
  C   C2        1.0  0.22022  0.20455  0.32996  1.0000
  C   C3        1.0  0.86629  0.88367  0.66238  1.0000
  C   C4        1.0  0.13371  0.11633  0.33762  1.0000
  C   C5        1.0  0.01879  0.80984  0.65718  1.0000
  C   C6        1.0  0.98121  0.19016  0.34282  1.0000
  C   C7        1.0  0.10287  0.88882  0.64713  1.0000
  C   C8        1.0  0.89713  0.11118  0.35287  1.0000
  C   C9        1.0  0.03559  0.04042  0.64409  1.0000
  C   C10       1.0  0.96441  0.95958  0.35591  1.0000
  C   C11       1.0  0.88345  0.11423  0.64932  1.0000
  C   C12       1.0  0.11655  0.88577  0.35067  1.0000
  C   C13       1.0  0.79834  0.03567  0.65772  1.0000
  C   C14       1.0  0.20166  0.96433  0.34228  1.0000
  C   C15       1.0  0.26544  0.81101  0.63924  1.0000
  C   C16       1.0  0.73456  0.18899  0.36076  1.0000
  C   C17       1.0  0.89961  0.34165  0.63333  1.0000
  C   C18       1.0  0.10039  0.65835  0.36667  1.0000
  C   C19       1.0  0.51225  0.46844  0.82645  1.0000
  C   C20       1.0  0.48775  0.53156  0.17355  1.0000
  C   C21       1.0  0.70050  0.49025  0.86419  1.0000
  C   C22       1.0  0.29950  0.50975  0.13581  1.0000
  C   C23       1.0  0.77838  0.27473  0.04913  1.0000
  C   C24       1.0  0.22162  0.72527  0.95087  1.0000
  C   C25       1.0  0.85912  0.05908  0.95583  1.0000
  C   C26       1.0  0.14088  0.94092  0.04417  1.0000
  C   C27       1.0  0.89330  0.13438  0.02032  1.0000
  C   C28       1.0  0.10670  0.86562  0.97967  1.0000
  C   C29       1.0  0.03483  0.07453  0.06383  1.0000
  C   C30       1.0  0.96518  0.92547  0.93617  1.0000
  C   C31       1.0  0.36397  0.39178  0.57903  1.0000
  C   C32       1.0  0.63603  0.60822  0.42097  1.0000
  C   C33       1.0  0.35554  0.18151  0.60299  1.0000
  C   C34       1.0  0.64446  0.81849  0.39701  1.0000
  C   C35       1.0  0.27526  0.14322  0.81815  1.0000
  C   C36       1.0  0.72474  0.85678  0.18185  1.0000
  C   C37       1.0  0.38121  0.13363  0.00479  1.0000
  C   C38       1.0  0.61879  0.86637  0.99521  1.0000
  C   C39       1.0  0.39212  0.07023  0.91192  1.0000
  C   C40       1.0  0.60788  0.92978  0.08808  1.0000
  C   C41       1.0  0.48820  0.06411  0.09216  1.0000
  C   C42       1.0  0.51180  0.93590  0.90785  1.0000
  N   N1        1.0  0.59247  0.55054  0.78523  1.0000
  N   N2        1.0  0.40752  0.44946  0.21477  1.0000
  N   N3        1.0  0.68401  0.37840  0.94857  1.0000
  N   N4        1.0  0.31599  0.62160  0.05143  1.0000
  N   N5        1.0  0.38608  0.28649  0.52112  1.0000
  N   N6        1.0  0.61392  0.71351  0.47888  1.0000
  N   N7        1.0  0.31696  0.22346  0.70470  1.0000
  N   N8        1.0  0.68304  0.77654  0.29530  1.0000
  N   N9        1.0  0.56470  0.36265  0.92630  1.0000
  N   N10       1.0  0.43530  0.63735  0.07370  1.0000
  N   N11       1.0  0.32147  0.35707  0.69150  1.0000
  N   N12       1.0  0.67853  0.64293  0.30850  1.0000
  O   O1        1.0  0.64007  0.87020  0.65292  1.0000
  O   O2        1.0  0.35993  0.12980  0.34707  1.0000
  O   O3        1.0  0.84429  0.65585  0.69086  1.0000
  O   O4        1.0  0.15571  0.34415  0.30914  1.0000
  O   O5        1.0  0.32587  0.68757  0.61485  1.0000
  O   O6        1.0  0.67413  0.31243  0.38515  1.0000
  O   O7        1.0  0.34012  0.87595  0.66168  1.0000
  O   O8        1.0  0.65988  0.12405  0.33832  1.0000
  O   O9        1.0  0.81113  0.26177  0.64707  1.0000
  O   O10       1.0  0.18887  0.73823  0.35293  1.0000
