data_image0
_chemical_formula_structural       Co2H64C58N8O12
_chemical_formula_sum              "Co2 H64 C58 N8 O12"
_cell_length_a       8.1308
_cell_length_b       12.4754
_cell_length_c       14.0683
_cell_angle_alpha    97.7461
_cell_angle_beta     99.2016
_cell_angle_gamma    95.8813

_space_group_name_H-M_alt    "P 1"
_space_group_IT_number       1

loop_
  _space_group_symop_operation_xyz
  'x, y, z'

loop_
  _atom_site_type_symbol
  _atom_site_label
  _atom_site_symmetry_multiplicity
  _atom_site_fract_x
  _atom_site_fract_y
  _atom_site_fract_z
  _atom_site_occupancy
  Co  Co1       1.0  0.59524  0.39912  0.27617  1.0000
  Co  Co2       1.0  0.40476  0.60088  0.72383  1.0000
  H   H1        1.0  0.48287  0.01635  0.60806  1.0000
  H   H2        1.0  0.51714  0.98366  0.39194  1.0000
  H   H3        1.0  0.62995  0.09464  0.55661  1.0000
  H   H4        1.0  0.37005  0.90537  0.44339  1.0000
  H   H5        1.0  0.87201  0.58311  0.99618  1.0000
  H   H6        1.0  0.12798  0.41688  0.00382  1.0000
  H   H7        1.0  0.87203  0.47565  0.06658  1.0000
  H   H8        1.0  0.12798  0.52435  0.93342  1.0000
  H   H9        1.0  0.15437  0.66598  0.09118  1.0000
  H   H10       1.0  0.84562  0.33402  0.90881  1.0000
  H   H11       1.0  0.99684  0.65275  0.16499  1.0000
  H   H12       1.0  0.00316  0.34725  0.83501  1.0000
  H   H13       1.0  0.99464  0.27182  0.14265  1.0000
  H   H14       1.0  0.00535  0.72818  0.85734  1.0000
  H   H15       1.0  0.16689  0.18292  0.03341  1.0000
  H   H16       1.0  0.83311  0.81708  0.96659  1.0000
  H   H17       1.0  0.54421  0.14152  0.94031  1.0000
  H   H18       1.0  0.45578  0.85849  0.05969  1.0000
  H   H19       1.0  0.71558  0.05183  0.82617  1.0000
  H   H20       1.0  0.28442  0.94818  0.17383  1.0000
  H   H21       1.0  0.24952  0.02021  0.92673  1.0000
  H   H22       1.0  0.75047  0.97978  0.07327  1.0000
  H   H23       1.0  0.26876  0.15833  0.90490  1.0000
  H   H24       1.0  0.73123  0.84167  0.09510  1.0000
  H   H25       1.0  0.40835  0.05126  0.78864  1.0000
  H   H26       1.0  0.59165  0.94874  0.21136  1.0000
  H   H27       1.0  0.22967  0.09923  0.72758  1.0000
  H   H28       1.0  0.77033  0.90077  0.27242  1.0000
  H   H29       1.0  0.27858  0.86568  0.74909  1.0000
  H   H30       1.0  0.72142  0.13432  0.25092  1.0000
  H   H31       1.0  0.07226  0.90438  0.74392  1.0000
  H   H32       1.0  0.92774  0.09561  0.25608  1.0000
  H   H33       1.0  0.93308  0.77594  0.31947  1.0000
  H   H34       1.0  0.06693  0.22406  0.68053  1.0000
  H   H35       1.0  0.91388  0.57734  0.54441  1.0000
  H   H36       1.0  0.08613  0.42266  0.45560  1.0000
  H   H37       1.0  0.08105  0.72659  0.66720  1.0000
  H   H38       1.0  0.91896  0.27340  0.33279  1.0000
  H   H39       1.0  0.36391  0.18264  0.19852  1.0000
  H   H40       1.0  0.63609  0.81735  0.80149  1.0000
  H   H41       1.0  0.24531  0.08090  0.50845  1.0000
  H   H42       1.0  0.75468  0.91910  0.49156  1.0000
  H   H43       1.0  0.38280  0.19073  0.57978  1.0000
  H   H44       1.0  0.61720  0.80927  0.42023  1.0000
  H   H45       1.0  0.09403  0.93008  0.44222  1.0000
  H   H46       1.0  0.90597  0.06992  0.55778  1.0000
  H   H47       1.0  0.24850  0.37754  0.33543  1.0000
  H   H48       1.0  0.75151  0.62246  0.66457  1.0000
  H   H49       1.0  0.68212  0.29201  0.55968  1.0000
  H   H50       1.0  0.31788  0.70799  0.44032  1.0000
  H   H51       1.0  0.50982  0.36902  0.56205  1.0000
  H   H52       1.0  0.49017  0.63099  0.43795  1.0000
  H   H53       1.0  0.66761  0.40265  0.49276  1.0000
  H   H54       1.0  0.33238  0.59735  0.50724  1.0000
  H   H55       1.0  0.98393  0.47983  0.25332  1.0000
  H   H56       1.0  0.01607  0.52017  0.74668  1.0000
  H   H57       1.0  0.22683  0.05303  0.32164  1.0000
  H   H58       1.0  0.77317  0.94698  0.67836  1.0000
  H   H59       1.0  0.55892  0.54004  0.11759  1.0000
  H   H60       1.0  0.44108  0.45996  0.88241  1.0000
  H   H61       1.0  0.49009  0.66797  0.14647  1.0000
  H   H62       1.0  0.50992  0.33204  0.85353  1.0000
  H   H63       1.0  0.38100  0.57689  0.04257  1.0000
  H   H64       1.0  0.61900  0.42311  0.95743  1.0000
  C   C1        1.0  0.50405  0.04750  0.54106  1.0000
  C   C2        1.0  0.49595  0.95251  0.45894  1.0000
  C   C3        1.0  0.95366  0.53204  0.03513  1.0000
  C   C4        1.0  0.04634  0.46796  0.96487  1.0000
  C   C5        1.0  0.07097  0.60738  0.11861  1.0000
  C   C6        1.0  0.92903  0.39262  0.88139  1.0000
  C   C7        1.0  0.65034  0.26990  0.11012  1.0000
  C   C8        1.0  0.34965  0.73010  0.88988  1.0000
  C   C9        1.0  0.75778  0.21332  0.04776  1.0000
  C   C10       1.0  0.24222  0.78668  0.95224  1.0000
  C   C11       1.0  0.93310  0.22288  0.07361  1.0000
  C   C12       1.0  0.06689  0.77712  0.92639  1.0000
  C   C13       1.0  0.03068  0.17292  0.01173  1.0000
  C   C14       1.0  0.96931  0.82708  0.98827  1.0000
  C   C15       1.0  0.68056  0.14958  0.95877  1.0000
  C   C16       1.0  0.31943  0.85042  0.04123  1.0000
  C   C17       1.0  0.77504  0.10014  0.89591  1.0000
  C   C18       1.0  0.22495  0.89986  0.10409  1.0000
  C   C19       1.0  0.95128  0.11335  0.92123  1.0000
  C   C20       1.0  0.04872  0.88665  0.07877  1.0000
  C   C21       1.0  0.21374  0.07429  0.87313  1.0000
  C   C22       1.0  0.78625  0.92570  0.12687  1.0000
  C   C23       1.0  0.27039  0.04185  0.77676  1.0000
  C   C24       1.0  0.72960  0.95814  0.22324  1.0000
  C   C25       1.0  0.19783  0.92682  0.72718  1.0000
  C   C26       1.0  0.80218  0.07318  0.27282  1.0000
  C   C27       1.0  0.49820  0.26188  0.42801  1.0000
  C   C28       1.0  0.50179  0.73812  0.57199  1.0000
  C   C29       1.0  0.80220  0.58162  0.35209  1.0000
  C   C30       1.0  0.19780  0.41838  0.64792  1.0000
  C   C31       1.0  0.96580  0.76690  0.39595  1.0000
  C   C32       1.0  0.03421  0.23310  0.60405  1.0000
  C   C33       1.0  0.90970  0.66834  0.42505  1.0000
  C   C34       1.0  0.09031  0.33166  0.57495  1.0000
  C   C35       1.0  0.95321  0.65526  0.52284  1.0000
  C   C36       1.0  0.04679  0.34474  0.47716  1.0000
  C   C37       1.0  0.04622  0.73929  0.59187  1.0000
  C   C38       1.0  0.95378  0.26071  0.40813  1.0000
  C   C39       1.0  0.09616  0.83874  0.56224  1.0000
  C   C40       1.0  0.90385  0.16126  0.43776  1.0000
  C   C41       1.0  0.38584  0.18894  0.27731  1.0000
  C   C42       1.0  0.61417  0.81106  0.72268  1.0000
  C   C43       1.0  0.37273  0.12403  0.51892  1.0000
  C   C44       1.0  0.62727  0.87598  0.48108  1.0000
  C   C45       1.0  0.05685  0.85176  0.46368  1.0000
  C   C46       1.0  0.94315  0.14824  0.53632  1.0000
  C   C47       1.0  0.33870  0.53084  0.17919  1.0000
  C   C48       1.0  0.66130  0.46916  0.82081  1.0000
  C   C49       1.0  0.24459  0.43307  0.28261  1.0000
  C   C50       1.0  0.75542  0.56693  0.71738  1.0000
  C   C51       1.0  0.59448  0.33507  0.51550  1.0000
  C   C52       1.0  0.40551  0.66493  0.48450  1.0000
  C   C53       1.0  0.11400  0.48389  0.24440  1.0000
  C   C54       1.0  0.88602  0.51612  0.75560  1.0000
  C   C55       1.0  0.31849  0.12533  0.33714  1.0000
  C   C56       1.0  0.68149  0.87466  0.66287  1.0000
  C   C57       1.0  0.44687  0.58155  0.11761  1.0000
  C   C58       1.0  0.55314  0.41845  0.88238  1.0000
  N   N1        1.0  0.38380  0.46243  0.24188  1.0000
  N   N2        1.0  0.61621  0.53758  0.75811  1.0000
  N   N3        1.0  0.39001  0.17187  0.43154  1.0000
  N   N4        1.0  0.60998  0.82814  0.56847  1.0000
  N   N5        1.0  0.17503  0.54577  0.18021  1.0000
  N   N6        1.0  0.82497  0.45423  0.81978  1.0000
  N   N7        1.0  0.49751  0.27352  0.33449  1.0000
  N   N8        1.0  0.50249  0.72648  0.66551  1.0000
  O   O1        1.0  0.73143  0.33489  0.18762  1.0000
  O   O2        1.0  0.26857  0.66511  0.81238  1.0000
  O   O3        1.0  0.03302  0.06736  0.85189  1.0000
  O   O4        1.0  0.96697  0.93263  0.14811  1.0000
  O   O5        1.0  0.74623  0.49427  0.38440  1.0000
  O   O6        1.0  0.25377  0.50573  0.61560  1.0000
  O   O7        1.0  0.76750  0.59333  0.26411  1.0000
  O   O8        1.0  0.23251  0.40666  0.73589  1.0000
  O   O9        1.0  0.18278  0.92771  0.62355  1.0000
  O   O10       1.0  0.81723  0.07229  0.37645  1.0000
  O   O11       1.0  0.49334  0.25485  0.08672  1.0000
  O   O12       1.0  0.50666  0.74515  0.91328  1.0000
