data_image0
_chemical_formula_structural       Y4H52C36O32
_chemical_formula_sum              "Y4 H52 C36 O32"
_cell_length_a       9.24738
_cell_length_b       10.837
_cell_length_c       14.5722
_cell_angle_alpha    90.0005
_cell_angle_beta     89.9998
_cell_angle_gamma    107.119

_space_group_name_H-M_alt    "P 1"
_space_group_IT_number       1

loop_
  _space_group_symop_operation_xyz
  'x, y, z'

loop_
  _atom_site_type_symbol
  _atom_site_label
  _atom_site_symmetry_multiplicity
  _atom_site_fract_x
  _atom_site_fract_y
  _atom_site_fract_z
  _atom_site_occupancy
  Y   Y1        1.0  0.03003  0.07656  0.13301  1.0000
  Y   Y2        1.0  0.46997  0.92344  0.63301  1.0000
  Y   Y3        1.0  0.96997  0.92344  0.86699  1.0000
  Y   Y4        1.0  0.53003  0.07657  0.36699  1.0000
  H   H1        1.0  0.46828  0.44826  0.17573  1.0000
  H   H2        1.0  0.03172  0.55174  0.67573  1.0000
  H   H3        1.0  0.53172  0.55174  0.82427  1.0000
  H   H4        1.0  0.96829  0.44826  0.32427  1.0000
  H   H5        1.0  0.53895  0.34892  0.10294  1.0000
  H   H6        1.0  0.96105  0.65108  0.60294  1.0000
  H   H7        1.0  0.46104  0.65108  0.89706  1.0000
  H   H8        1.0  0.03895  0.34892  0.39706  1.0000
  H   H9        1.0  0.35009  0.52218  0.02901  1.0000
  H   H10       1.0  0.14991  0.47782  0.52901  1.0000
  H   H11       1.0  0.64991  0.47782  0.97099  1.0000
  H   H12       1.0  0.85010  0.52218  0.47099  1.0000
  H   H13       1.0  0.17359  0.72302  0.01039  1.0000
  H   H14       1.0  0.32641  0.27698  0.51039  1.0000
  H   H15       1.0  0.82641  0.27698  0.98962  1.0000
  H   H16       1.0  0.67359  0.72302  0.48960  1.0000
  H   H17       1.0  0.32902  0.84213  0.96555  1.0000
  H   H18       1.0  0.17097  0.15787  0.46556  1.0000
  H   H19       1.0  0.67097  0.15787  0.03444  1.0000
  H   H20       1.0  0.82902  0.84213  0.53444  1.0000
  H   H21       1.0  0.31783  0.75040  0.16921  1.0000
  H   H22       1.0  0.18217  0.24960  0.66921  1.0000
  H   H23       1.0  0.68218  0.24960  0.83079  1.0000
  H   H24       1.0  0.81784  0.75040  0.33078  1.0000
  H   H25       1.0  0.56528  0.82485  0.02148  1.0000
  H   H26       1.0  0.93472  0.17515  0.52148  1.0000
  H   H27       1.0  0.43473  0.17516  0.97852  1.0000
  H   H28       1.0  0.06528  0.82484  0.47852  1.0000
  H   H29       1.0  0.56686  0.75986  0.22792  1.0000
  H   H30       1.0  0.93314  0.24014  0.72792  1.0000
  H   H31       1.0  0.43314  0.24014  0.77208  1.0000
  H   H32       1.0  0.06686  0.75986  0.27208  1.0000
  H   H33       1.0  0.64848  0.67893  0.14391  1.0000
  H   H34       1.0  0.85151  0.32107  0.64392  1.0000
  H   H35       1.0  0.35151  0.32107  0.85609  1.0000
  H   H36       1.0  0.14849  0.67893  0.35608  1.0000
  H   H37       1.0  0.92096  0.02033  0.32250  1.0000
  H   H38       1.0  0.57903  0.97968  0.82250  1.0000
  H   H39       1.0  0.07904  0.97968  0.67750  1.0000
  H   H40       1.0  0.42096  0.02033  0.17750  1.0000
  H   H41       1.0  0.10064  0.03380  0.31972  1.0000
  H   H42       1.0  0.39935  0.96620  0.81972  1.0000
  H   H43       1.0  0.89936  0.96620  0.68028  1.0000
  H   H44       1.0  0.60064  0.03380  0.18028  1.0000
  H   H45       1.0  0.02823  0.33981  0.17191  1.0000
  H   H46       1.0  0.47177  0.66019  0.67190  1.0000
  H   H47       1.0  0.97177  0.66019  0.82809  1.0000
  H   H48       1.0  0.52823  0.33981  0.32809  1.0000
  H   H49       1.0  0.87192  0.25491  0.21411  1.0000
  H   H50       1.0  0.62808  0.74509  0.71412  1.0000
  H   H51       1.0  0.12807  0.74509  0.78588  1.0000
  H   H52       1.0  0.37192  0.25491  0.28589  1.0000
  C   C1        1.0  0.29986  0.28612  0.12088  1.0000
  C   C2        1.0  0.20014  0.71389  0.62089  1.0000
  C   C3        1.0  0.70013  0.71389  0.87911  1.0000
  C   C4        1.0  0.79987  0.28612  0.37912  1.0000
  C   C5        1.0  0.44714  0.39410  0.11052  1.0000
  C   C6        1.0  0.05286  0.60591  0.61053  1.0000
  C   C7        1.0  0.55286  0.60590  0.88947  1.0000
  C   C8        1.0  0.94714  0.39409  0.38947  1.0000
  C   C9        1.0  0.44601  0.48263  0.03186  1.0000
  C   C10       1.0  0.05397  0.51737  0.53186  1.0000
  C   C11       1.0  0.55398  0.51737  0.96813  1.0000
  C   C12       1.0  0.94603  0.48263  0.46814  1.0000
  C   C13       1.0  0.19452  0.90979  0.05925  1.0000
  C   C14       1.0  0.30549  0.09022  0.55924  1.0000
  C   C15       1.0  0.80548  0.09021  0.94076  1.0000
  C   C16       1.0  0.69451  0.90978  0.44076  1.0000
  C   C17       1.0  0.26721  0.80845  0.02987  1.0000
  C   C18       1.0  0.23278  0.19155  0.52987  1.0000
  C   C19       1.0  0.73278  0.19155  0.97013  1.0000
  C   C20       1.0  0.76722  0.80845  0.47013  1.0000
  C   C21       1.0  0.36797  0.78007  0.10176  1.0000
  C   C22       1.0  0.13202  0.21993  0.60177  1.0000
  C   C23       1.0  0.63203  0.21993  0.89824  1.0000
  C   C24       1.0  0.86798  0.78007  0.39823  1.0000
  C   C25       1.0  0.51454  0.79332  0.08850  1.0000
  C   C26       1.0  0.98546  0.20668  0.58851  1.0000
  C   C27       1.0  0.48546  0.20668  0.91149  1.0000
  C   C28       1.0  0.01454  0.79332  0.41149  1.0000
  C   C29       1.0  0.61974  0.76819  0.15945  1.0000
  C   C30       1.0  0.88026  0.23181  0.65946  1.0000
  C   C31       1.0  0.38025  0.23180  0.84055  1.0000
  C   C32       1.0  0.11975  0.76819  0.34054  1.0000
  C   C33       1.0  0.76637  0.87699  0.16150  1.0000
  C   C34       1.0  0.73363  0.12300  0.66150  1.0000
  C   C35       1.0  0.23363  0.12300  0.83850  1.0000
  C   C36       1.0  0.26637  0.87700  0.33850  1.0000
  O   O1        1.0  0.25776  0.23874  0.20089  1.0000
  O   O2        1.0  0.24224  0.76127  0.70089  1.0000
  O   O3        1.0  0.74224  0.76126  0.79911  1.0000
  O   O4        1.0  0.75776  0.23874  0.29911  1.0000
  O   O5        1.0  0.21793  0.24291  0.05127  1.0000
  O   O6        1.0  0.28207  0.75709  0.55128  1.0000
  O   O7        1.0  0.78206  0.75709  0.94873  1.0000
  O   O8        1.0  0.71794  0.24291  0.44873  1.0000
  O   O9        1.0  0.23384  0.97366  0.13333  1.0000
  O   O10       1.0  0.26616  0.02635  0.63333  1.0000
  O   O11       1.0  0.76616  0.02635  0.86667  1.0000
  O   O12       1.0  0.73384  0.97366  0.36667  1.0000
  O   O13       1.0  0.09017  0.93163  0.01043  1.0000
  O   O14       1.0  0.40983  0.06837  0.51043  1.0000
  O   O15       1.0  0.90983  0.06837  0.98957  1.0000
  O   O16       1.0  0.59017  0.93163  0.48957  1.0000
  O   O17       1.0  0.76085  0.99466  0.15796  1.0000
  O   O18       1.0  0.73916  0.00534  0.65797  1.0000
  O   O19       1.0  0.23915  0.00533  0.84204  1.0000
  O   O20       1.0  0.26085  0.99467  0.34204  1.0000
  O   O21       1.0  0.89340  0.85452  0.16410  1.0000
  O   O22       1.0  0.60661  0.14547  0.66410  1.0000
  O   O23       1.0  0.10661  0.14548  0.83590  1.0000
  O   O24       1.0  0.39340  0.85453  0.33590  1.0000
  O   O25       1.0  0.01924  0.06821  0.29445  1.0000
  O   O26       1.0  0.48076  0.93179  0.79445  1.0000
  O   O27       1.0  0.98076  0.93179  0.70555  1.0000
  O   O28       1.0  0.51925  0.06821  0.20555  1.0000
  O   O29       1.0  0.94490  0.26244  0.16062  1.0000
  O   O30       1.0  0.55510  0.73756  0.66062  1.0000
  O   O31       1.0  0.05510  0.73755  0.83938  1.0000
  O   O32       1.0  0.44490  0.26245  0.33938  1.0000
