data_image0
_chemical_formula_structural       Co4H44C72N8O16
_chemical_formula_sum              "Co4 H44 C72 N8 O16"
_cell_length_a       7.23821
_cell_length_b       13.0432
_cell_length_c       17.4656
_cell_angle_alpha    101.688
_cell_angle_beta     89.9948
_cell_angle_gamma    90.0023

_space_group_name_H-M_alt    "P 1"
_space_group_IT_number       1

loop_
  _space_group_symop_operation_xyz
  'x, y, z'

loop_
  _atom_site_type_symbol
  _atom_site_label
  _atom_site_symmetry_multiplicity
  _atom_site_fract_x
  _atom_site_fract_y
  _atom_site_fract_z
  _atom_site_occupancy
  Co  Co1       1.0  0.55960  0.78652  0.59930  1.0000
  Co  Co2       1.0  0.55966  0.21347  0.90072  1.0000
  Co  Co3       1.0  0.44039  0.21348  0.40071  1.0000
  Co  Co4       1.0  0.44031  0.78654  0.09929  1.0000
  H   H1        1.0  0.83856  0.62948  0.38483  1.0000
  H   H2        1.0  0.83852  0.37052  0.11522  1.0000
  H   H3        1.0  0.16149  0.37051  0.61520  1.0000
  H   H4        1.0  0.16141  0.62948  0.88480  1.0000
  H   H5        1.0  0.03990  0.59478  0.26545  1.0000
  H   H6        1.0  0.03991  0.40523  0.23457  1.0000
  H   H7        1.0  0.96010  0.40523  0.73456  1.0000
  H   H8        1.0  0.96006  0.59478  0.76544  1.0000
  H   H9        1.0  0.18045  0.89177  0.48292  1.0000
  H   H10       1.0  0.18041  0.10823  0.01708  1.0000
  H   H11       1.0  0.81958  0.10823  0.51709  1.0000
  H   H12       1.0  0.81955  0.89178  0.98291  1.0000
  H   H13       1.0  0.24411  0.02218  0.39642  1.0000
  H   H14       1.0  0.24410  0.97785  0.10357  1.0000
  H   H15       1.0  0.75588  0.97783  0.60356  1.0000
  H   H16       1.0  0.75586  0.02218  0.89643  1.0000
  H   H17       1.0  0.80003  0.09064  0.37456  1.0000
  H   H18       1.0  0.80003  0.90939  0.12541  1.0000
  H   H19       1.0  0.19997  0.90936  0.62546  1.0000
  H   H20       1.0  0.19994  0.09063  0.87457  1.0000
  H   H21       1.0  0.88077  0.90191  0.33741  1.0000
  H   H22       1.0  0.88073  0.09812  0.16256  1.0000
  H   H23       1.0  0.11925  0.09808  0.66261  1.0000
  H   H24       1.0  0.11923  0.90190  0.83743  1.0000
  H   H25       1.0  0.63172  0.76713  0.33331  1.0000
  H   H26       1.0  0.63172  0.23290  0.16667  1.0000
  H   H27       1.0  0.36828  0.23287  0.66672  1.0000
  H   H28       1.0  0.36826  0.76712  0.83332  1.0000
  H   H29       1.0  0.49222  0.62543  0.46315  1.0000
  H   H30       1.0  0.49214  0.37456  0.03685  1.0000
  H   H31       1.0  0.50787  0.37453  0.53684  1.0000
  H   H32       1.0  0.50781  0.62543  0.96316  1.0000
  H   H33       1.0  0.25822  0.49179  0.41313  1.0000
  H   H34       1.0  0.25812  0.50819  0.08686  1.0000
  H   H35       1.0  0.74190  0.50816  0.58686  1.0000
  H   H36       1.0  0.74183  0.49181  0.91315  1.0000
  H   H37       1.0  0.94658  0.60527  0.62594  1.0000
  H   H38       1.0  0.94657  0.39467  0.87405  1.0000
  H   H39       1.0  0.05350  0.39465  0.37404  1.0000
  H   H40       1.0  0.05339  0.60533  0.12594  1.0000
  H   H41       1.0  0.19837  0.73184  0.66762  1.0000
  H   H42       1.0  0.19839  0.26812  0.83238  1.0000
  H   H43       1.0  0.80164  0.26811  0.33236  1.0000
  H   H44       1.0  0.80159  0.73189  0.16762  1.0000
  C   C1        1.0  0.87978  0.79013  0.51292  1.0000
  C   C2        1.0  0.87974  0.20986  0.98713  1.0000
  C   C3        1.0  0.12027  0.20986  0.48710  1.0000
  C   C4        1.0  0.12021  0.79015  0.01290  1.0000
  C   C5        1.0  0.99650  0.76420  0.44077  1.0000
  C   C6        1.0  0.99645  0.23581  0.05925  1.0000
  C   C7        1.0  0.00356  0.23580  0.55925  1.0000
  C   C8        1.0  0.00349  0.76421  0.94075  1.0000
  C   C9        1.0  0.95632  0.67966  0.37969  1.0000
  C   C10       1.0  0.95631  0.32035  0.12034  1.0000
  C   C11       1.0  0.04371  0.32034  0.62033  1.0000
  C   C12       1.0  0.04366  0.67966  0.87967  1.0000
  C   C13       1.0  0.06781  0.66048  0.31350  1.0000
  C   C14       1.0  0.06784  0.33952  0.18652  1.0000
  C   C15       1.0  0.93219  0.33952  0.68652  1.0000
  C   C16       1.0  0.93216  0.66048  0.81349  1.0000
  C   C17       1.0  0.21691  0.72625  0.30546  1.0000
  C   C18       1.0  0.21696  0.27378  0.19454  1.0000
  C   C19       1.0  0.78308  0.27376  0.69455  1.0000
  C   C20       1.0  0.78305  0.72623  0.80546  1.0000
  C   C21       1.0  0.26032  0.81069  0.36729  1.0000
  C   C22       1.0  0.26034  0.18932  0.13271  1.0000
  C   C23       1.0  0.73968  0.18932  0.63273  1.0000
  C   C24       1.0  0.73965  0.81069  0.86728  1.0000
  C   C25       1.0  0.14936  0.82739  0.43434  1.0000
  C   C26       1.0  0.14935  0.17263  0.06567  1.0000
  C   C27       1.0  0.85067  0.17261  0.56567  1.0000
  C   C28       1.0  0.85062  0.82739  0.93433  1.0000
  C   C29       1.0  0.31049  0.70826  0.22693  1.0000
  C   C30       1.0  0.31057  0.29181  0.27303  1.0000
  C   C31       1.0  0.68948  0.29177  0.77306  1.0000
  C   C32       1.0  0.68946  0.70822  0.72694  1.0000
  C   C33       1.0  0.41664  0.88333  0.36500  1.0000
  C   C34       1.0  0.41663  0.11667  0.13498  1.0000
  C   C35       1.0  0.58336  0.11666  0.63501  1.0000
  C   C36       1.0  0.58334  0.88333  0.86501  1.0000
  C   C37       1.0  0.38329  0.99093  0.38403  1.0000
  C   C38       1.0  0.38327  0.00910  0.11596  1.0000
  C   C39       1.0  0.61671  0.00908  0.61596  1.0000
  C   C40       1.0  0.61669  0.99092  0.88404  1.0000
  C   C41       1.0  0.69300  0.03083  0.36964  1.0000
  C   C42       1.0  0.69300  0.96921  0.13034  1.0000
  C   C43       1.0  0.30701  0.96918  0.63037  1.0000
  C   C44       1.0  0.30699  0.03082  0.86965  1.0000
  C   C45       1.0  0.73738  0.92489  0.34961  1.0000
  C   C46       1.0  0.73736  0.07514  0.15037  1.0000
  C   C47       1.0  0.26262  0.07511  0.65040  1.0000
  C   C48       1.0  0.26261  0.92488  0.84962  1.0000
  C   C49       1.0  0.59877  0.85037  0.34736  1.0000
  C   C50       1.0  0.59875  0.14965  0.15262  1.0000
  C   C51       1.0  0.40123  0.14963  0.65265  1.0000
  C   C52       1.0  0.40122  0.85036  0.84737  1.0000
  C   C53       1.0  0.36859  0.61775  0.49706  1.0000
  C   C54       1.0  0.36853  0.38223  0.00294  1.0000
  C   C55       1.0  0.63148  0.38220  0.50293  1.0000
  C   C56       1.0  0.63143  0.61777  0.99706  1.0000
  C   C57       1.0  0.23499  0.54335  0.46965  1.0000
  C   C58       1.0  0.23491  0.45662  0.03034  1.0000
  C   C59       1.0  0.76511  0.45659  0.53034  1.0000
  C   C60       1.0  0.76505  0.54338  0.96966  1.0000
  C   C61       1.0  0.07545  0.53696  0.51441  1.0000
  C   C62       1.0  0.07540  0.46300  0.98558  1.0000
  C   C63       1.0  0.92463  0.46298  0.48557  1.0000
  C   C64       1.0  0.92456  0.53699  0.01442  1.0000
  C   C65       1.0  0.06539  0.60542  0.58772  1.0000
  C   C66       1.0  0.06535  0.39454  0.91227  1.0000
  C   C67       1.0  0.93469  0.39451  0.41226  1.0000
  C   C68       1.0  0.93461  0.60546  0.08772  1.0000
  C   C69       1.0  0.20553  0.67736  0.61138  1.0000
  C   C70       1.0  0.20549  0.32261  0.88862  1.0000
  C   C71       1.0  0.79453  0.32260  0.38860  1.0000
  C   C72       1.0  0.79449  0.67740  0.11138  1.0000
  N   N1        1.0  0.35485  0.68550  0.56662  1.0000
  N   N2        1.0  0.35479  0.31449  0.93337  1.0000
  N   N3        1.0  0.64520  0.31447  0.43336  1.0000
  N   N4        1.0  0.64519  0.68551  0.06662  1.0000
  N   N5        1.0  0.51785  0.06325  0.38652  1.0000
  N   N6        1.0  0.51786  0.93681  0.11346  1.0000
  N   N7        1.0  0.48215  0.93677  0.61348  1.0000
  N   N8        1.0  0.48212  0.06323  0.88653  1.0000
  O   O1        1.0  0.72067  0.74260  0.50964  1.0000
  O   O2        1.0  0.72064  0.25739  0.99038  1.0000
  O   O3        1.0  0.27939  0.25739  0.49037  1.0000
  O   O4        1.0  0.27933  0.74262  0.00961  1.0000
  O   O5        1.0  0.93467  0.85475  0.57145  1.0000
  O   O6        1.0  0.93456  0.14524  0.92859  1.0000
  O   O7        1.0  0.06539  0.14526  0.42858  1.0000
  O   O8        1.0  0.06534  0.85478  0.07142  1.0000
  O   O9        1.0  0.32194  0.61824  0.18608  1.0000
  O   O10       1.0  0.32210  0.38182  0.31387  1.0000
  O   O11       1.0  0.67796  0.38179  0.81390  1.0000
  O   O12       1.0  0.67803  0.61819  0.68610  1.0000
  O   O13       1.0  0.36419  0.79331  0.20529  1.0000
  O   O14       1.0  0.36420  0.20676  0.29468  1.0000
  O   O15       1.0  0.63586  0.20671  0.79472  1.0000
  O   O16       1.0  0.63578  0.79326  0.70529  1.0000
