data_image0
_chemical_formula_structural       Tl2H36C32N8O2
_chemical_formula_sum              "Tl2 H36 C32 N8 O2"
_cell_length_a       7.61846
_cell_length_b       9.76659
_cell_length_c       11.3689
_cell_angle_alpha    108.444
_cell_angle_beta     97.5774
_cell_angle_gamma    92.3876

_space_group_name_H-M_alt    "P 1"
_space_group_IT_number       1

loop_
  _space_group_symop_operation_xyz
  'x, y, z'

loop_
  _atom_site_type_symbol
  _atom_site_label
  _atom_site_symmetry_multiplicity
  _atom_site_fract_x
  _atom_site_fract_y
  _atom_site_fract_z
  _atom_site_occupancy
  Tl  Tl1       1.0  0.24424  0.08315  0.40506  1.0000
  Tl  Tl2       1.0  0.75576  0.91685  0.59494  1.0000
  H   H1        1.0  0.00725  0.24467  0.29247  1.0000
  H   H2        1.0  0.99275  0.75533  0.70753  1.0000
  H   H3        1.0  0.34865  0.76909  0.29159  1.0000
  H   H4        1.0  0.65135  0.23091  0.70841  1.0000
  H   H5        1.0  0.27598  0.56565  0.09329  1.0000
  H   H6        1.0  0.72401  0.43435  0.90671  1.0000
  H   H7        1.0  0.05844  0.58882  0.91708  1.0000
  H   H8        1.0  0.94155  0.41118  0.08293  1.0000
  H   H9        1.0  0.91267  0.81526  0.94225  1.0000
  H   H10       1.0  0.08733  0.18474  0.05775  1.0000
  H   H11       1.0  0.98126  0.02081  0.14283  1.0000
  H   H12       1.0  0.01874  0.97919  0.85717  1.0000
  H   H13       1.0  0.13841  0.15858  0.67773  1.0000
  H   H14       1.0  0.86158  0.84142  0.32226  1.0000
  H   H15       1.0  0.21947  0.35295  0.88024  1.0000
  H   H16       1.0  0.78052  0.64705  0.11976  1.0000
  H   H17       1.0  0.42480  0.56727  0.89834  1.0000
  H   H18       1.0  0.57520  0.43273  0.10166  1.0000
  H   H19       1.0  0.55000  0.58266  0.71062  1.0000
  H   H20       1.0  0.45000  0.41734  0.28938  1.0000
  H   H21       1.0  0.47582  0.38382  0.50795  1.0000
  H   H22       1.0  0.52418  0.61618  0.49205  1.0000
  H   H23       1.0  0.62330  0.22384  0.14257  1.0000
  H   H24       1.0  0.37670  0.77616  0.85743  1.0000
  H   H25       1.0  0.41759  0.17091  0.18016  1.0000
  H   H26       1.0  0.58241  0.82909  0.81984  1.0000
  H   H27       1.0  0.53126  0.08960  0.91368  1.0000
  H   H28       1.0  0.46874  0.91040  0.08632  1.0000
  H   H29       1.0  0.32139  0.03956  0.94529  1.0000
  H   H30       1.0  0.67861  0.96044  0.05471  1.0000
  H   H31       1.0  0.95873  0.46719  0.34648  1.0000
  H   H32       1.0  0.04126  0.53281  0.65352  1.0000
  H   H33       1.0  0.15895  0.51231  0.29662  1.0000
  H   H34       1.0  0.84105  0.48769  0.70338  1.0000
  H   H35       1.0  0.16641  0.48877  0.44681  1.0000
  H   H36       1.0  0.83359  0.51123  0.55319  1.0000
  C   C1        1.0  0.17054  0.90956  0.23047  1.0000
  C   C2        1.0  0.82946  0.09044  0.76953  1.0000
  C   C3        1.0  0.25286  0.78084  0.21593  1.0000
  C   C4        1.0  0.74714  0.21916  0.78407  1.0000
  C   C5        1.0  0.21172  0.66563  0.10335  1.0000
  C   C6        1.0  0.78827  0.33437  0.89665  1.0000
  C   C7        1.0  0.08996  0.67842  0.00499  1.0000
  C   C8        1.0  0.91004  0.32157  0.99501  1.0000
  C   C9        1.0  0.00768  0.80659  0.01963  1.0000
  C   C10       1.0  0.99232  0.19341  0.98037  1.0000
  C   C11       1.0  0.04774  0.92205  0.13226  1.0000
  C   C12       1.0  0.95227  0.07795  0.86774  1.0000
  C   C13       1.0  0.30157  0.25821  0.57895  1.0000
  C   C14       1.0  0.69843  0.74179  0.42105  1.0000
  C   C15       1.0  0.22981  0.25028  0.68390  1.0000
  C   C16       1.0  0.77019  0.74972  0.31610  1.0000
  C   C17       1.0  0.27526  0.36108  0.79886  1.0000
  C   C18       1.0  0.72473  0.63892  0.20114  1.0000
  C   C19       1.0  0.38996  0.48080  0.80855  1.0000
  C   C20       1.0  0.61004  0.51920  0.19145  1.0000
  C   C21       1.0  0.46004  0.48961  0.70339  1.0000
  C   C22       1.0  0.53996  0.51038  0.29661  1.0000
  C   C23       1.0  0.41695  0.37774  0.58876  1.0000
  C   C24       1.0  0.58305  0.62225  0.41124  1.0000
  C   C25       1.0  0.64884  0.13449  0.28957  1.0000
  C   C26       1.0  0.35116  0.86551  0.71043  1.0000
  C   C27       1.0  0.55301  0.13969  0.16848  1.0000
  C   C28       1.0  0.44699  0.86031  0.83152  1.0000
  C   C29       1.0  0.54344  0.99438  0.06244  1.0000
  C   C30       1.0  0.45656  0.00563  0.93756  1.0000
  C   C31       1.0  0.10046  0.44894  0.34846  1.0000
  C   C32       1.0  0.89954  0.55107  0.65154  1.0000
  N   N1        1.0  0.57512  0.09342  0.37570  1.0000
  N   N2        1.0  0.42488  0.90658  0.62430  1.0000
  N   N3        1.0  0.82588  0.16104  0.32522  1.0000
  N   N4        1.0  0.17413  0.83896  0.67478  1.0000
  N   N5        1.0  0.71081  0.09500  0.46517  1.0000
  N   N6        1.0  0.28919  0.90500  0.53483  1.0000
  N   N7        1.0  0.86127  0.13450  0.43473  1.0000
  N   N8        1.0  0.13873  0.86550  0.56527  1.0000
  O   O1        1.0  0.12212  0.29809  0.29074  1.0000
  O   O2        1.0  0.87788  0.70191  0.70926  1.0000
