data_image0
_chemical_formula_structural       Ag4H32C20S8O12F12
_chemical_formula_sum              "Ag4 H32 C20 S8 O12 F12"
_cell_length_a       7.86395
_cell_length_b       11.6755
_cell_length_c       11.9673
_cell_angle_alpha    114.144
_cell_angle_beta     90
_cell_angle_gamma    89.9998

_space_group_name_H-M_alt    "P 1"
_space_group_IT_number       1

loop_
  _space_group_symop_operation_xyz
  'x, y, z'

loop_
  _atom_site_type_symbol
  _atom_site_label
  _atom_site_symmetry_multiplicity
  _atom_site_fract_x
  _atom_site_fract_y
  _atom_site_fract_z
  _atom_site_occupancy
  Ag  Ag1       1.0  0.43470  0.52986  0.31011  1.0000
  Ag  Ag2       1.0  0.06530  0.52986  0.81011  1.0000
  Ag  Ag3       1.0  0.56530  0.47014  0.68989  1.0000
  Ag  Ag4       1.0  0.93470  0.47014  0.18989  1.0000
  H   H1        1.0  0.82581  0.77405  0.25569  1.0000
  H   H2        1.0  0.67419  0.77405  0.75569  1.0000
  H   H3        1.0  0.17419  0.22595  0.74431  1.0000
  H   H4        1.0  0.32581  0.22595  0.24431  1.0000
  H   H5        1.0  0.59773  0.76681  0.25172  1.0000
  H   H6        1.0  0.90227  0.76681  0.75172  1.0000
  H   H7        1.0  0.40227  0.23319  0.74829  1.0000
  H   H8        1.0  0.09773  0.23319  0.24828  1.0000
  H   H9        1.0  0.74379  0.95884  0.44008  1.0000
  H   H10       1.0  0.75620  0.95884  0.94008  1.0000
  H   H11       1.0  0.25621  0.04116  0.55992  1.0000
  H   H12       1.0  0.24380  0.04116  0.05992  1.0000
  H   H13       1.0  0.58090  0.87361  0.47569  1.0000
  H   H14       1.0  0.91909  0.87361  0.97569  1.0000
  H   H15       1.0  0.41910  0.12639  0.52431  1.0000
  H   H16       1.0  0.08091  0.12639  0.02431  1.0000
  H   H17       1.0  0.96658  0.82881  0.47816  1.0000
  H   H18       1.0  0.53341  0.82881  0.97816  1.0000
  H   H19       1.0  0.03342  0.17119  0.52184  1.0000
  H   H20       1.0  0.46659  0.17119  0.02184  1.0000
  H   H21       1.0  0.82848  0.87720  0.60641  1.0000
  H   H22       1.0  0.67151  0.87720  0.10640  1.0000
  H   H23       1.0  0.17152  0.12280  0.39359  1.0000
  H   H24       1.0  0.32849  0.12280  0.89359  1.0000
  H   H25       1.0  0.69123  0.67309  0.53344  1.0000
  H   H26       1.0  0.80877  0.67309  0.03344  1.0000
  H   H27       1.0  0.30877  0.32691  0.46656  1.0000
  H   H28       1.0  0.19123  0.32691  0.96656  1.0000
  H   H29       1.0  0.90585  0.62964  0.48410  1.0000
  H   H30       1.0  0.59416  0.62963  0.98410  1.0000
  H   H31       1.0  0.09416  0.37037  0.51590  1.0000
  H   H32       1.0  0.40584  0.37037  0.01590  1.0000
  C   C1        1.0  0.71119  0.76803  0.30511  1.0000
  C   C2        1.0  0.78881  0.76803  0.80511  1.0000
  C   C3        1.0  0.28881  0.23197  0.69489  1.0000
  C   C4        1.0  0.21120  0.23197  0.19489  1.0000
  C   C5        1.0  0.70929  0.86635  0.43690  1.0000
  C   C6        1.0  0.79071  0.86636  0.93690  1.0000
  C   C7        1.0  0.29072  0.13365  0.56310  1.0000
  C   C8        1.0  0.20929  0.13365  0.06310  1.0000
  C   C9        1.0  0.83608  0.82130  0.50724  1.0000
  C   C10       1.0  0.66391  0.82130  0.00724  1.0000
  C   C11       1.0  0.16392  0.17870  0.49276  1.0000
  C   C12       1.0  0.33608  0.17870  0.99276  1.0000
  C   C13       1.0  0.79573  0.68402  0.47809  1.0000
  C   C14       1.0  0.70427  0.68402  0.97809  1.0000
  C   C15       1.0  0.20427  0.31598  0.52191  1.0000
  C   C16       1.0  0.29573  0.31598  0.02191  1.0000
  C   C17       1.0  0.29240  0.84568  0.70524  1.0000
  C   C18       1.0  0.20759  0.84568  0.20524  1.0000
  C   C19       1.0  0.70760  0.15432  0.29476  1.0000
  C   C20       1.0  0.79241  0.15432  0.79476  1.0000
  S   S1        1.0  0.72015  0.61696  0.31833  1.0000
  S   S2        1.0  0.77985  0.61696  0.81833  1.0000
  S   S3        1.0  0.27985  0.38304  0.68167  1.0000
  S   S4        1.0  0.22015  0.38304  0.18167  1.0000
  S   S5        1.0  0.27875  0.67818  0.59442  1.0000
  S   S6        1.0  0.22125  0.67818  0.09442  1.0000
  S   S7        1.0  0.72125  0.32182  0.40558  1.0000
  S   S8        1.0  0.77875  0.32182  0.90558  1.0000
  O   O1        1.0  0.25287  0.68565  0.47624  1.0000
  O   O2        1.0  0.24713  0.68565  0.97624  1.0000
  O   O3        1.0  0.74713  0.31435  0.52376  1.0000
  O   O4        1.0  0.75287  0.31434  0.02376  1.0000
  O   O5        1.0  0.13401  0.63005  0.63796  1.0000
  O   O6        1.0  0.36599  0.63005  0.13796  1.0000
  O   O7        1.0  0.86599  0.36995  0.36204  1.0000
  O   O8        1.0  0.63401  0.36995  0.86204  1.0000
  O   O9        1.0  0.44543  0.62961  0.60780  1.0000
  O   O10       1.0  0.05457  0.62961  0.10780  1.0000
  O   O11       1.0  0.55458  0.37039  0.39220  1.0000
  O   O12       1.0  0.94542  0.37039  0.89220  1.0000
  F   F1        1.0  0.31249  0.85472  0.82129  1.0000
  F   F2        1.0  0.18750  0.85472  0.32129  1.0000
  F   F3        1.0  0.68751  0.14528  0.17871  1.0000
  F   F4        1.0  0.81250  0.14528  0.67871  1.0000
  F   F5        1.0  0.15011  0.91047  0.70267  1.0000
  F   F6        1.0  0.34989  0.91047  0.20268  1.0000
  F   F7        1.0  0.84989  0.08953  0.29733  1.0000
  F   F8        1.0  0.65011  0.08953  0.79732  1.0000
  F   F9        1.0  0.42731  0.90311  0.67863  1.0000
  F   F10       1.0  0.07269  0.90311  0.17863  1.0000
  F   F11       1.0  0.57269  0.09689  0.32137  1.0000
  F   F12       1.0  0.92731  0.09689  0.82137  1.0000
