data_image0
_chemical_formula_structural       Ag2H28C22N2O6F12
_chemical_formula_sum              "Ag2 H28 C22 N2 O6 F12"
_cell_length_a       5.98346
_cell_length_b       9.3587
_cell_length_c       13.514
_cell_angle_alpha    89.6763
_cell_angle_beta     79.9954
_cell_angle_gamma    76.8632

_space_group_name_H-M_alt    "P 1"
_space_group_IT_number       1

loop_
  _space_group_symop_operation_xyz
  'x, y, z'

loop_
  _atom_site_type_symbol
  _atom_site_label
  _atom_site_symmetry_multiplicity
  _atom_site_fract_x
  _atom_site_fract_y
  _atom_site_fract_z
  _atom_site_occupancy
  Ag  Ag1       1.0  0.70286  0.51545  0.43419  1.0000
  Ag  Ag2       1.0  0.29716  0.48455  0.56579  1.0000
  H   H1        1.0  0.24950  0.95880  0.26764  1.0000
  H   H2        1.0  0.75050  0.04120  0.73236  1.0000
  H   H3        1.0  0.15616  0.75572  0.44057  1.0000
  H   H4        1.0  0.84385  0.24428  0.55944  1.0000
  H   H5        1.0  0.26070  0.91962  0.44198  1.0000
  H   H6        1.0  0.73930  0.08039  0.55803  1.0000
  H   H7        1.0  0.43960  0.76048  0.37445  1.0000
  H   H8        1.0  0.56040  0.23953  0.62556  1.0000
  H   H9        1.0  0.83177  0.00031  0.26070  1.0000
  H   H10       1.0  0.16823  0.99968  0.73931  1.0000
  H   H11       1.0  0.88140  0.05162  0.37921  1.0000
  H   H12       1.0  0.11860  0.94838  0.62079  1.0000
  H   H13       1.0  0.79060  0.88538  0.36518  1.0000
  H   H14       1.0  0.20939  0.11463  0.63482  1.0000
  H   H15       1.0  0.40897  0.67494  0.08598  1.0000
  H   H16       1.0  0.59103  0.32506  0.91402  1.0000
  H   H17       1.0  0.55316  0.93403  0.17177  1.0000
  H   H18       1.0  0.44682  0.06597  0.82823  1.0000
  H   H19       1.0  0.70974  0.79839  0.07910  1.0000
  H   H20       1.0  0.29026  0.20162  0.92090  1.0000
  H   H21       1.0  0.65000  0.74928  0.20633  1.0000
  H   H22       1.0  0.35000  0.25073  0.79368  1.0000
  H   H23       1.0  0.07821  0.86192  0.04184  1.0000
  H   H24       1.0  0.92179  0.13807  0.95817  1.0000
  H   H25       1.0  0.34640  0.90949  0.99373  1.0000
  H   H26       1.0  0.65358  0.09051  0.00627  1.0000
  H   H27       1.0  0.16550  0.00275  0.10349  1.0000
  H   H28       1.0  0.83449  0.99725  0.89652  1.0000
  C   C1        1.0  0.34169  0.37934  0.35273  1.0000
  C   C2        1.0  0.65832  0.62065  0.64727  1.0000
  C   C3        1.0  0.28178  0.30275  0.26222  1.0000
  C   C4        1.0  0.71825  0.69724  0.73777  1.0000
  C   C5        1.0  0.28496  0.38281  0.16036  1.0000
  C   C6        1.0  0.71503  0.61720  0.83964  1.0000
  C   C7        1.0  0.10129  0.53044  0.15846  1.0000
  C   C8        1.0  0.89871  0.46956  0.84154  1.0000
  C   C9        1.0  0.09638  0.64881  0.24076  1.0000
  C   C10       1.0  0.90362  0.35119  0.75925  1.0000
  C   C11       1.0  0.15528  0.87865  0.30244  1.0000
  C   C12       1.0  0.84472  0.12135  0.69757  1.0000
  C   C13       1.0  0.25876  0.82416  0.39548  1.0000
  C   C14       1.0  0.74125  0.17584  0.60453  1.0000
  C   C15       1.0  0.89810  0.95742  0.32824  1.0000
  C   C16       1.0  0.10190  0.04258  0.67177  1.0000
  C   C17       1.0  0.35649  0.78087  0.12685  1.0000
  C   C18       1.0  0.64351  0.21912  0.87315  1.0000
  C   C19       1.0  0.57949  0.81868  0.14836  1.0000
  C   C20       1.0  0.42050  0.18132  0.85165  1.0000
  C   C21       1.0  0.22789  0.89563  0.06300  1.0000
  C   C22       1.0  0.77210  0.10437  0.93701  1.0000
  N   N1        1.0  0.19989  0.76130  0.22189  1.0000
  N   N2        1.0  0.80011  0.23870  0.77811  1.0000
  O   O1        1.0  0.52164  0.42957  0.32921  1.0000
  O   O2        1.0  0.47840  0.57043  0.67077  1.0000
  O   O3        1.0  0.21406  0.37461  0.43664  1.0000
  O   O4        1.0  0.78599  0.62536  0.56335  1.0000
  O   O5        1.0  0.98253  0.63069  0.32455  1.0000
  O   O6        1.0  0.01747  0.36931  0.67545  1.0000
  F   F1        1.0  0.45097  0.17250  0.24153  1.0000
  F   F2        1.0  0.54903  0.82750  0.75845  1.0000
  F   F3        1.0  0.07144  0.26487  0.28619  1.0000
  F   F4        1.0  0.92856  0.73514  0.71380  1.0000
  F   F5        1.0  0.24348  0.28694  0.09222  1.0000
  F   F6        1.0  0.75649  0.71306  0.90779  1.0000
  F   F7        1.0  0.50154  0.40624  0.12596  1.0000
  F   F8        1.0  0.49846  0.59375  0.87402  1.0000
  F   F9        1.0  0.13293  0.57776  0.06138  1.0000
  F   F10       1.0  0.86705  0.42225  0.93863  1.0000
  F   F11       1.0  0.88672  0.49748  0.17559  1.0000
  F   F12       1.0  0.11327  0.50252  0.82442  1.0000
