data_image0
_chemical_formula_structural       Cd4H44C52N8O20
_chemical_formula_sum              "Cd4 H44 C52 N8 O20"
_cell_length_a       10.2651
_cell_length_b       10.2654
_cell_length_c       13.2582
_cell_angle_alpha    74.8696
_cell_angle_beta     74.8689
_cell_angle_gamma    83.0915

_space_group_name_H-M_alt    "P 1"
_space_group_IT_number       1

loop_
  _space_group_symop_operation_xyz
  'x, y, z'

loop_
  _atom_site_type_symbol
  _atom_site_label
  _atom_site_symmetry_multiplicity
  _atom_site_fract_x
  _atom_site_fract_y
  _atom_site_fract_z
  _atom_site_occupancy
  Cd  Cd1       1.0  0.11044  0.03266  0.09728  1.0000
  Cd  Cd2       1.0  0.96736  0.88956  0.40272  1.0000
  Cd  Cd3       1.0  0.88955  0.96734  0.90273  1.0000
  Cd  Cd4       1.0  0.03265  0.11044  0.59728  1.0000
  H   H1        1.0  0.62060  0.03758  0.08554  1.0000
  H   H2        1.0  0.96243  0.37939  0.41447  1.0000
  H   H3        1.0  0.37939  0.96242  0.91447  1.0000
  H   H4        1.0  0.03758  0.62061  0.58553  1.0000
  H   H5        1.0  0.00657  0.52153  0.83914  1.0000
  H   H6        1.0  0.47847  0.99343  0.66086  1.0000
  H   H7        1.0  0.99343  0.47847  0.16086  1.0000
  H   H8        1.0  0.52152  0.00658  0.33913  1.0000
  H   H9        1.0  0.91043  0.27291  0.96238  1.0000
  H   H10       1.0  0.72710  0.08956  0.53763  1.0000
  H   H11       1.0  0.08956  0.72709  0.03763  1.0000
  H   H12       1.0  0.27290  0.91044  0.46237  1.0000
  H   H13       1.0  0.35534  0.73369  0.29694  1.0000
  H   H14       1.0  0.26631  0.64465  0.20305  1.0000
  H   H15       1.0  0.64466  0.26630  0.70307  1.0000
  H   H16       1.0  0.73369  0.35535  0.79694  1.0000
  H   H17       1.0  0.30315  0.29775  0.99582  1.0000
  H   H18       1.0  0.70226  0.69687  0.50416  1.0000
  H   H19       1.0  0.69685  0.70225  0.00418  1.0000
  H   H20       1.0  0.29774  0.30313  0.49584  1.0000
  H   H21       1.0  0.44999  0.57510  0.42022  1.0000
  H   H22       1.0  0.42490  0.55001  0.07977  1.0000
  H   H23       1.0  0.55001  0.42489  0.57979  1.0000
  H   H24       1.0  0.57511  0.45000  0.92024  1.0000
  H   H25       1.0  0.77209  0.71671  0.31734  1.0000
  H   H26       1.0  0.28329  0.22791  0.18265  1.0000
  H   H27       1.0  0.22791  0.28328  0.68266  1.0000
  H   H28       1.0  0.71673  0.77209  0.81734  1.0000
  H   H29       1.0  0.37140  0.50559  0.81914  1.0000
  H   H30       1.0  0.49442  0.62860  0.68085  1.0000
  H   H31       1.0  0.62859  0.49441  0.18086  1.0000
  H   H32       1.0  0.50558  0.37140  0.31915  1.0000
  H   H33       1.0  0.29210  0.58886  0.92253  1.0000
  H   H34       1.0  0.41115  0.70790  0.57745  1.0000
  H   H35       1.0  0.70790  0.41114  0.07746  1.0000
  H   H36       1.0  0.58885  0.29210  0.42254  1.0000
  H   H37       1.0  0.13206  0.71637  0.81667  1.0000
  H   H38       1.0  0.28363  0.86794  0.68332  1.0000
  H   H39       1.0  0.86794  0.28363  0.18333  1.0000
  H   H40       1.0  0.71637  0.13206  0.31667  1.0000
  H   H41       1.0  0.20035  0.63089  0.71295  1.0000
  H   H42       1.0  0.36911  0.79965  0.78704  1.0000
  H   H43       1.0  0.79964  0.36911  0.28705  1.0000
  H   H44       1.0  0.63089  0.20035  0.21295  1.0000
  C   C1        1.0  0.47931  0.88870  0.18330  1.0000
  C   C2        1.0  0.11130  0.52068  0.31670  1.0000
  C   C3        1.0  0.52068  0.11129  0.81671  1.0000
  C   C4        1.0  0.88870  0.47932  0.68330  1.0000
  C   C5        1.0  0.60469  0.94583  0.14965  1.0000
  C   C6        1.0  0.05418  0.39530  0.35035  1.0000
  C   C7        1.0  0.39530  0.05417  0.85035  1.0000
  C   C8        1.0  0.94582  0.60470  0.64965  1.0000
  C   C9        1.0  0.05233  0.43928  0.89050  1.0000
  C   C10       1.0  0.56073  0.94766  0.60950  1.0000
  C   C11       1.0  0.94766  0.56072  0.10950  1.0000
  C   C12       1.0  0.43926  0.05233  0.39050  1.0000
  C   C13       1.0  0.00524  0.31679  0.95228  1.0000
  C   C14       1.0  0.68322  0.99476  0.54772  1.0000
  C   C15       1.0  0.99475  0.68321  0.04772  1.0000
  C   C16       1.0  0.31679  0.00524  0.45229  1.0000
  C   C17       1.0  0.36638  0.95500  0.13253  1.0000
  C   C18       1.0  0.04501  0.63362  0.36747  1.0000
  C   C19       1.0  0.63362  0.04500  0.86748  1.0000
  C   C20       1.0  0.95500  0.36638  0.63252  1.0000
  C   C21       1.0  0.45664  0.77249  0.26771  1.0000
  C   C22       1.0  0.22751  0.54335  0.23228  1.0000
  C   C23       1.0  0.54335  0.22751  0.73230  1.0000
  C   C24       1.0  0.77249  0.45666  0.76771  1.0000
  C   C25       1.0  0.20810  0.32539  0.97244  1.0000
  C   C26       1.0  0.67462  0.79191  0.52755  1.0000
  C   C27       1.0  0.79189  0.67461  0.02756  1.0000
  C   C28       1.0  0.32538  0.20809  0.47245  1.0000
  C   C29       1.0  0.70933  0.88443  0.19852  1.0000
  C   C30       1.0  0.11557  0.29067  0.30148  1.0000
  C   C31       1.0  0.29067  0.11556  0.80148  1.0000
  C   C32       1.0  0.88445  0.70933  0.69852  1.0000
  C   C33       1.0  0.68934  0.76599  0.28109  1.0000
  C   C34       1.0  0.23401  0.31066  0.21890  1.0000
  C   C35       1.0  0.31066  0.23400  0.71891  1.0000
  C   C36       1.0  0.76600  0.68934  0.78109  1.0000
  C   C37       1.0  0.84299  0.94626  0.16107  1.0000
  C   C38       1.0  0.05374  0.15701  0.33893  1.0000
  C   C39       1.0  0.15701  0.05374  0.83893  1.0000
  C   C40       1.0  0.94627  0.84299  0.66106  1.0000
  C   C41       1.0  0.56193  0.71226  0.31605  1.0000
  C   C42       1.0  0.28774  0.43807  0.18394  1.0000
  C   C43       1.0  0.43807  0.28773  0.68395  1.0000
  C   C44       1.0  0.71226  0.56194  0.81606  1.0000
  C   C45       1.0  0.27475  0.55155  0.85684  1.0000
  C   C46       1.0  0.44845  0.72525  0.64315  1.0000
  C   C47       1.0  0.72524  0.44845  0.14316  1.0000
  C   C48       1.0  0.55155  0.27475  0.35684  1.0000
  C   C49       1.0  0.22538  0.66848  0.77577  1.0000
  C   C50       1.0  0.33152  0.77462  0.72422  1.0000
  C   C51       1.0  0.77462  0.33153  0.22423  1.0000
  C   C52       1.0  0.66847  0.22538  0.27578  1.0000
  N   N1        1.0  0.10315  0.24744  0.00348  1.0000
  N   N2        1.0  0.75258  0.89685  0.49651  1.0000
  N   N3        1.0  0.89684  0.75256  0.99652  1.0000
  N   N4        1.0  0.24743  0.10315  0.50349  1.0000
  N   N5        1.0  0.18074  0.44294  0.90418  1.0000
  N   N6        1.0  0.55708  0.81927  0.59581  1.0000
  N   N7        1.0  0.81926  0.55706  0.09582  1.0000
  N   N8        1.0  0.44293  0.18073  0.40418  1.0000
  O   O1        1.0  0.27438  0.87782  0.13560  1.0000
  O   O2        1.0  0.12219  0.72561  0.36440  1.0000
  O   O3        1.0  0.72561  0.12218  0.86441  1.0000
  O   O4        1.0  0.87781  0.27440  0.63559  1.0000
  O   O5        1.0  0.36395  0.08068  0.09210  1.0000
  O   O6        1.0  0.91932  0.63604  0.40790  1.0000
  O   O7        1.0  0.63604  0.91931  0.90791  1.0000
  O   O8        1.0  0.08069  0.36396  0.59210  1.0000
  O   O9        1.0  0.54431  0.59832  0.40036  1.0000
  O   O10       1.0  0.40167  0.45570  0.09962  1.0000
  O   O11       1.0  0.45569  0.40167  0.59964  1.0000
  O   O12       1.0  0.59834  0.54432  0.90038  1.0000
  O   O13       1.0  0.86955  0.03453  0.07161  1.0000
  O   O14       1.0  0.96547  0.13045  0.42839  1.0000
  O   O15       1.0  0.13044  0.96547  0.92840  1.0000
  O   O16       1.0  0.03453  0.86956  0.57160  1.0000
  O   O17       1.0  0.93017  0.90967  0.21834  1.0000
  O   O18       1.0  0.09033  0.06984  0.28165  1.0000
  O   O19       1.0  0.06984  0.09033  0.78166  1.0000
  O   O20       1.0  0.90968  0.93016  0.71834  1.0000
