data_image0
_chemical_formula_structural       Cd2H24C26N6O14
_chemical_formula_sum              "Cd2 H24 C26 N6 O14"
_cell_length_a       8.39059
_cell_length_b       10.0087
_cell_length_c       10.5949
_cell_angle_alpha    92.05
_cell_angle_beta     103.471
_cell_angle_gamma    112.777

_space_group_name_H-M_alt    "P 1"
_space_group_IT_number       1

loop_
  _space_group_symop_operation_xyz
  'x, y, z'

loop_
  _atom_site_type_symbol
  _atom_site_label
  _atom_site_symmetry_multiplicity
  _atom_site_fract_x
  _atom_site_fract_y
  _atom_site_fract_z
  _atom_site_occupancy
  Cd  Cd1       1.0  0.74254  0.08213  0.44138  1.0000
  Cd  Cd2       1.0  0.25746  0.91787  0.55862  1.0000
  H   H1        1.0  0.12982  0.78001  0.00074  1.0000
  H   H2        1.0  0.87018  0.21999  0.99926  1.0000
  H   H3        1.0  0.15748  0.90822  0.88725  1.0000
  H   H4        1.0  0.84252  0.09178  0.11275  1.0000
  H   H5        1.0  0.86930  0.83983  0.94722  1.0000
  H   H6        1.0  0.13070  0.16017  0.05278  1.0000
  H   H7        1.0  0.98505  0.90794  0.11359  1.0000
  H   H8        1.0  0.01495  0.09206  0.88641  1.0000
  H   H9        1.0  0.24209  0.28953  0.28273  1.0000
  H   H10       1.0  0.75791  0.71047  0.71727  1.0000
  H   H11       1.0  0.77551  0.42427  0.53916  1.0000
  H   H12       1.0  0.22449  0.57573  0.46084  1.0000
  H   H13       1.0  0.70069  0.27683  0.18520  1.0000
  H   H14       1.0  0.29931  0.72317  0.81480  1.0000
  H   H15       1.0  0.33382  0.86681  0.23867  1.0000
  H   H16       1.0  0.66618  0.13319  0.76133  1.0000
  H   H17       1.0  0.66750  0.68953  0.24830  1.0000
  H   H18       1.0  0.33250  0.31047  0.75170  1.0000
  H   H19       1.0  0.40827  0.16772  0.96425  1.0000
  H   H20       1.0  0.59173  0.83228  0.03575  1.0000
  H   H21       1.0  0.04680  0.08035  0.36376  1.0000
  H   H22       1.0  0.95320  0.91965  0.63624  1.0000
  H   H23       1.0  0.92186  0.91691  0.34173  1.0000
  H   H24       1.0  0.07814  0.08309  0.65827  1.0000
  C   C1        1.0  0.14829  0.89271  0.98770  1.0000
  C   C2        1.0  0.85171  0.10729  0.01230  1.0000
  C   C3        1.0  0.99312  0.92359  0.01250  1.0000
  C   C4        1.0  0.00688  0.07641  0.98750  1.0000
  C   C5        1.0  0.44613  0.20206  0.47757  1.0000
  C   C6        1.0  0.55387  0.79794  0.52242  1.0000
  C   C7        1.0  0.38258  0.36510  0.31512  1.0000
  C   C8        1.0  0.61742  0.63490  0.68488  1.0000
  C   C9        1.0  0.50380  0.33925  0.41562  1.0000
  C   C10       1.0  0.49620  0.66075  0.58438  1.0000
  C   C11       1.0  0.68185  0.44202  0.45866  1.0000
  C   C12       1.0  0.31815  0.55798  0.54134  1.0000
  C   C13       1.0  0.44503  0.49114  0.25690  1.0000
  C   C14       1.0  0.55498  0.50886  0.74310  1.0000
  C   C15       1.0  0.93090  0.68089  0.45361  1.0000
  C   C16       1.0  0.06910  0.31911  0.54639  1.0000
  C   C17       1.0  0.58034  0.17617  0.16387  1.0000
  C   C18       1.0  0.41966  0.82383  0.83613  1.0000
  C   C19       1.0  0.39492  0.96411  0.19549  1.0000
  C   C20       1.0  0.60508  0.03589  0.80451  1.0000
  C   C21       1.0  0.62331  0.59251  0.29613  1.0000
  C   C22       1.0  0.37669  0.40749  0.70387  1.0000
  C   C23       1.0  0.74211  0.56866  0.39981  1.0000
  C   C24       1.0  0.25789  0.43134  0.60018  1.0000
  C   C25       1.0  0.43624  0.12410  0.05475  1.0000
  C   C26       1.0  0.56376  0.87590  0.94525  1.0000
  N   N1        1.0  0.32092  0.99013  0.07645  1.0000
  N   N2        1.0  0.67907  0.00987  0.92355  1.0000
  N   N3        1.0  0.31736  0.51911  0.15184  1.0000
  N   N4        1.0  0.68263  0.48089  0.84816  1.0000
  N   N5        1.0  0.55281  0.07502  0.25077  1.0000
  N   N6        1.0  0.44719  0.92498  0.74923  1.0000
  O   O1        1.0  0.91946  0.01390  0.32610  1.0000
  O   O2        1.0  0.08054  0.98610  0.67390  1.0000
  O   O3        1.0  0.37495  0.63273  0.10152  1.0000
  O   O4        1.0  0.62505  0.36727  0.89848  1.0000
  O   O5        1.0  0.56528  0.16810  0.54870  1.0000
  O   O6        1.0  0.43472  0.83190  0.45130  1.0000
  O   O7        1.0  0.72202  0.87662  0.54401  1.0000
  O   O8        1.0  0.27798  0.12339  0.45599  1.0000
  O   O9        1.0  0.99275  0.78364  0.38558  1.0000
  O   O10       1.0  0.00725  0.21636  0.61442  1.0000
  O   O11       1.0  0.02095  0.67336  0.56458  1.0000
  O   O12       1.0  0.97905  0.32664  0.43542  1.0000
  O   O13       1.0  0.15918  0.42851  0.11939  1.0000
  O   O14       1.0  0.84082  0.57149  0.88061  1.0000
