data_image0
_chemical_formula_structural       Cu8H32C48N16
_chemical_formula_sum              "Cu8 H32 C48 N16"
_cell_length_a       8.48278
_cell_length_b       11.3697
_cell_length_c       12.4599
_cell_angle_alpha    90.0001
_cell_angle_beta     100.78
_cell_angle_gamma    89.9999

_space_group_name_H-M_alt    "P 1"
_space_group_IT_number       1

loop_
  _space_group_symop_operation_xyz
  'x, y, z'

loop_
  _atom_site_type_symbol
  _atom_site_label
  _atom_site_symmetry_multiplicity
  _atom_site_fract_x
  _atom_site_fract_y
  _atom_site_fract_z
  _atom_site_occupancy
  Cu  Cu1       1.0  0.01840  0.90490  0.54755  1.0000
  Cu  Cu2       1.0  0.48159  0.40490  0.95245  1.0000
  Cu  Cu3       1.0  0.98159  0.09510  0.45246  1.0000
  Cu  Cu4       1.0  0.51840  0.59510  0.04755  1.0000
  Cu  Cu5       1.0  0.86260  0.14938  0.81577  1.0000
  Cu  Cu6       1.0  0.63740  0.64937  0.68424  1.0000
  Cu  Cu7       1.0  0.13740  0.85063  0.18424  1.0000
  Cu  Cu8       1.0  0.36260  0.35062  0.31576  1.0000
  H   H1        1.0  0.78837  0.88620  0.17883  1.0000
  H   H2        1.0  0.71163  0.38620  0.32117  1.0000
  H   H3        1.0  0.21163  0.11380  0.82117  1.0000
  H   H4        1.0  0.28837  0.61380  0.67883  1.0000
  H   H5        1.0  0.53730  0.90031  0.03979  1.0000
  H   H6        1.0  0.96270  0.40031  0.46021  1.0000
  H   H7        1.0  0.46270  0.09969  0.96021  1.0000
  H   H8        1.0  0.03730  0.59969  0.53979  1.0000
  H   H9        1.0  0.82869  0.87240  0.79045  1.0000
  H   H10       1.0  0.67131  0.37240  0.70955  1.0000
  H   H11       1.0  0.17132  0.12760  0.20955  1.0000
  H   H12       1.0  0.32869  0.62760  0.29045  1.0000
  H   H13       1.0  0.06666  0.85099  0.94158  1.0000
  H   H14       1.0  0.43334  0.35099  0.55842  1.0000
  H   H15       1.0  0.93334  0.14901  0.05842  1.0000
  H   H16       1.0  0.56666  0.64901  0.44158  1.0000
  H   H17       1.0  0.36741  0.79922  0.91215  1.0000
  H   H18       1.0  0.13259  0.29923  0.58785  1.0000
  H   H19       1.0  0.63259  0.20077  0.08785  1.0000
  H   H20       1.0  0.86741  0.70078  0.41215  1.0000
  H   H21       1.0  0.62005  0.99208  0.69703  1.0000
  H   H22       1.0  0.87995  0.49208  0.80296  1.0000
  H   H23       1.0  0.37994  0.00792  0.30296  1.0000
  H   H24       1.0  0.12005  0.50792  0.19703  1.0000
  H   H25       1.0  0.12334  0.80902  0.76504  1.0000
  H   H26       1.0  0.37666  0.30903  0.73496  1.0000
  H   H27       1.0  0.87666  0.19097  0.23497  1.0000
  H   H28       1.0  0.62334  0.69098  0.26504  1.0000
  H   H29       1.0  0.36307  0.99487  0.56003  1.0000
  H   H30       1.0  0.13693  0.49488  0.93997  1.0000
  H   H31       1.0  0.63693  0.00513  0.43997  1.0000
  H   H32       1.0  0.86307  0.50513  0.06003  1.0000
  C   C1        1.0  0.93512  0.07324  0.59780  1.0000
  C   C2        1.0  0.56489  0.57326  0.90221  1.0000
  C   C3        1.0  0.06489  0.92674  0.40221  1.0000
  C   C4        1.0  0.43511  0.42676  0.09780  1.0000
  C   C5        1.0  0.87762  0.79474  0.59085  1.0000
  C   C6        1.0  0.62237  0.29474  0.90914  1.0000
  C   C7        1.0  0.12237  0.20526  0.40914  1.0000
  C   C8        1.0  0.37763  0.70526  0.09086  1.0000
  C   C9        1.0  0.79126  0.88193  0.09172  1.0000
  C   C10       1.0  0.70873  0.38193  0.40828  1.0000
  C   C11       1.0  0.20873  0.11807  0.90828  1.0000
  C   C12       1.0  0.29126  0.61807  0.59172  1.0000
  C   C13       1.0  0.65196  0.89114  0.01347  1.0000
  C   C14       1.0  0.84804  0.39114  0.48653  1.0000
  C   C15       1.0  0.34804  0.10886  0.98653  1.0000
  C   C16       1.0  0.15196  0.60886  0.51347  1.0000
  C   C17       1.0  0.66129  0.88940  0.90221  1.0000
  C   C18       1.0  0.83871  0.38940  0.59779  1.0000
  C   C19       1.0  0.33871  0.11060  0.09779  1.0000
  C   C20       1.0  0.16129  0.61060  0.40220  1.0000
  C   C21       1.0  0.81402  0.87730  0.87532  1.0000
  C   C22       1.0  0.68598  0.37730  0.62468  1.0000
  C   C23       1.0  0.18598  0.12270  0.12468  1.0000
  C   C24       1.0  0.31402  0.62270  0.37532  1.0000
  C   C25       1.0  0.94650  0.86405  0.95882  1.0000
  C   C26       1.0  0.55350  0.36405  0.54118  1.0000
  C   C27       1.0  0.05350  0.13596  0.04118  1.0000
  C   C28       1.0  0.44650  0.63595  0.45882  1.0000
  C   C29       1.0  0.51500  0.89601  0.81743  1.0000
  C   C30       1.0  0.98500  0.39601  0.68257  1.0000
  C   C31       1.0  0.48500  0.10399  0.18257  1.0000
  C   C32       1.0  0.01500  0.60399  0.31743  1.0000
  C   C33       1.0  0.37156  0.84549  0.83613  1.0000
  C   C34       1.0  0.12844  0.34549  0.66387  1.0000
  C   C35       1.0  0.62845  0.15451  0.16387  1.0000
  C   C36       1.0  0.87156  0.65451  0.33613  1.0000
  C   C37       1.0  0.51275  0.95017  0.71588  1.0000
  C   C38       1.0  0.98725  0.45018  0.78412  1.0000
  C   C39       1.0  0.48725  0.04983  0.28412  1.0000
  C   C40       1.0  0.01275  0.54983  0.21587  1.0000
  C   C41       1.0  0.23593  0.84994  0.75467  1.0000
  C   C42       1.0  0.26407  0.34995  0.74534  1.0000
  C   C43       1.0  0.76408  0.15005  0.24534  1.0000
  C   C44       1.0  0.73593  0.65006  0.25467  1.0000
  C   C45       1.0  0.37031  0.95222  0.63933  1.0000
  C   C46       1.0  0.12969  0.45223  0.86067  1.0000
  C   C47       1.0  0.62969  0.04777  0.36067  1.0000
  C   C48       1.0  0.87031  0.54778  0.13933  1.0000
  N   N1        1.0  0.89781  0.09816  0.68181  1.0000
  N   N2        1.0  0.60220  0.59816  0.81820  1.0000
  N   N3        1.0  0.10220  0.90184  0.31819  1.0000
  N   N4        1.0  0.39780  0.40184  0.18181  1.0000
  N   N5        1.0  0.79257  0.72777  0.62469  1.0000
  N   N6        1.0  0.70742  0.22778  0.87530  1.0000
  N   N7        1.0  0.20742  0.27222  0.37530  1.0000
  N   N8        1.0  0.29258  0.77223  0.12470  1.0000
  N   N9        1.0  0.23350  0.90263  0.65751  1.0000
  N   N10       1.0  0.26651  0.40263  0.84249  1.0000
  N   N11       1.0  0.76651  0.09737  0.34249  1.0000
  N   N12       1.0  0.73349  0.59737  0.15752  1.0000
  N   N13       1.0  0.93707  0.86702  0.06560  1.0000
  N   N14       1.0  0.56293  0.36702  0.43440  1.0000
  N   N15       1.0  0.06293  0.13298  0.93440  1.0000
  N   N16       1.0  0.43707  0.63298  0.56560  1.0000
