data_image0
_chemical_formula_structural       Tb2H44C62N4O14F6
_chemical_formula_sum              "Tb2 H44 C62 N4 O14 F6"
_cell_length_a       9.58639
_cell_length_b       12.7425
_cell_length_c       13.0956
_cell_angle_alpha    113.797
_cell_angle_beta     104.629
_cell_angle_gamma    97.0553

_space_group_name_H-M_alt    "P 1"
_space_group_IT_number       1

loop_
  _space_group_symop_operation_xyz
  'x, y, z'

loop_
  _atom_site_type_symbol
  _atom_site_label
  _atom_site_symmetry_multiplicity
  _atom_site_fract_x
  _atom_site_fract_y
  _atom_site_fract_z
  _atom_site_occupancy
  Tb  Tb1       1.0  0.23859  0.53690  0.52435  1.0000
  Tb  Tb2       1.0  0.76142  0.46310  0.47566  1.0000
  H   H1        1.0  0.37261  0.36867  0.35840  1.0000
  H   H2        1.0  0.62739  0.63133  0.64160  1.0000
  H   H3        1.0  0.19634  0.30558  0.29488  1.0000
  H   H4        1.0  0.80365  0.69442  0.70512  1.0000
  H   H5        1.0  0.10297  0.67771  0.28893  1.0000
  H   H6        1.0  0.89703  0.32230  0.71107  1.0000
  H   H7        1.0  0.07429  0.74853  0.13388  1.0000
  H   H8        1.0  0.92570  0.25147  0.86611  1.0000
  H   H9        1.0  0.86422  0.63447  0.94073  1.0000
  H   H10       1.0  0.13577  0.36551  0.05926  1.0000
  H   H11       1.0  0.68547  0.45468  0.90824  1.0000
  H   H12       1.0  0.31453  0.54531  0.09176  1.0000
  H   H13       1.0  0.23449  0.25208  0.50009  1.0000
  H   H14       1.0  0.76551  0.74794  0.49992  1.0000
  H   H15       1.0  0.32410  0.06979  0.47652  1.0000
  H   H16       1.0  0.67590  0.93022  0.52348  1.0000
  H   H17       1.0  0.13828  0.87364  0.37671  1.0000
  H   H18       1.0  0.86172  0.12636  0.62329  1.0000
  H   H19       1.0  0.86648  0.86181  0.30352  1.0000
  H   H20       1.0  0.13353  0.13819  0.69648  1.0000
  H   H21       1.0  0.63978  0.57837  0.25361  1.0000
  H   H22       1.0  0.36023  0.42163  0.74639  1.0000
  H   H23       1.0  0.65630  0.68206  0.12979  1.0000
  H   H24       1.0  0.34370  0.31793  0.87020  1.0000
  H   H25       1.0  0.52814  0.84541  0.14739  1.0000
  H   H26       1.0  0.47186  0.15458  0.85260  1.0000
  H   H27       1.0  0.38308  0.90028  0.28834  1.0000
  H   H28       1.0  0.61691  0.09971  0.71166  1.0000
  H   H29       1.0  0.46742  0.62049  0.81587  1.0000
  H   H30       1.0  0.53258  0.37951  0.18413  1.0000
  H   H31       1.0  0.66148  0.78291  0.99612  1.0000
  H   H32       1.0  0.33852  0.21709  0.00388  1.0000
  H   H33       1.0  0.62523  0.99872  0.81200  1.0000
  H   H34       1.0  0.37477  0.00127  0.18800  1.0000
  H   H35       1.0  0.43146  0.82674  0.64030  1.0000
  H   H36       1.0  0.56853  0.17326  0.35970  1.0000
  H   H37       1.0  0.93982  0.30038  0.14458  1.0000
  H   H38       1.0  0.06017  0.69962  0.85542  1.0000
  H   H39       1.0  0.70965  0.14933  0.99624  1.0000
  H   H40       1.0  0.29034  0.85067  0.00375  1.0000
  H   H41       1.0  0.90212  0.88744  0.07096  1.0000
  H   H42       1.0  0.09787  0.11256  0.92904  1.0000
  H   H43       1.0  0.12151  0.05136  0.21952  1.0000
  H   H44       1.0  0.87849  0.94864  0.78048  1.0000
  C   C1        1.0  0.93226  0.49900  0.29001  1.0000
  C   C2        1.0  0.06775  0.50101  0.71000  1.0000
  C   C3        1.0  0.90918  0.53322  0.19010  1.0000
  C   C4        1.0  0.09083  0.46678  0.80990  1.0000
  C   C5        1.0  0.01017  0.63263  0.20583  1.0000
  C   C6        1.0  0.98983  0.36737  0.79417  1.0000
  C   C7        1.0  0.99395  0.67080  0.11865  1.0000
  C   C8        1.0  0.00605  0.32920  0.88134  1.0000
  C   C9        1.0  0.87677  0.60773  0.01117  1.0000
  C   C10       1.0  0.12322  0.39226  0.98883  1.0000
  C   C11       1.0  0.77590  0.50728  0.99186  1.0000
  C   C12       1.0  0.22411  0.49271  0.00813  1.0000
  C   C13       1.0  0.79350  0.47288  0.08152  1.0000
  C   C14       1.0  0.20651  0.52712  0.91848  1.0000
  C   C15       1.0  0.96212  0.27582  0.43765  1.0000
  C   C16       1.0  0.03788  0.72418  0.56236  1.0000
  C   C17       1.0  0.00461  0.16173  0.42040  1.0000
  C   C18       1.0  0.99539  0.83827  0.57961  1.0000
  C   C19       1.0  0.15663  0.16543  0.45883  1.0000
  C   C20       1.0  0.84337  0.83458  0.54118  1.0000
  C   C21       1.0  0.20555  0.06357  0.44360  1.0000
  C   C22       1.0  0.79445  0.93644  0.55640  1.0000
  C   C23       1.0  0.10138  0.95360  0.38732  1.0000
  C   C24       1.0  0.89862  0.04640  0.61268  1.0000
  C   C25       1.0  0.94977  0.94630  0.34687  1.0000
  C   C26       1.0  0.05023  0.05370  0.65314  1.0000
  C   C27       1.0  0.90395  0.04989  0.36473  1.0000
  C   C28       1.0  0.09605  0.95012  0.63528  1.0000
  C   C29       1.0  0.49439  0.60894  0.40713  1.0000
  C   C30       1.0  0.50561  0.39106  0.59288  1.0000
  C   C31       1.0  0.49899  0.67557  0.33534  1.0000
  C   C32       1.0  0.50102  0.32443  0.66466  1.0000
  C   C33       1.0  0.58171  0.64760  0.25741  1.0000
  C   C34       1.0  0.41830  0.35240  0.74259  1.0000
  C   C35       1.0  0.59193  0.70691  0.18970  1.0000
  C   C36       1.0  0.40807  0.29309  0.81029  1.0000
  C   C37       1.0  0.51949  0.79745  0.19900  1.0000
  C   C38       1.0  0.48051  0.20255  0.80100  1.0000
  C   C39       1.0  0.43824  0.82843  0.27635  1.0000
  C   C40       1.0  0.56176  0.17156  0.72365  1.0000
  C   C41       1.0  0.42991  0.76788  0.34325  1.0000
  C   C42       1.0  0.57010  0.23212  0.65675  1.0000
  C   C43       1.0  0.50589  0.70608  0.81912  1.0000
  C   C44       1.0  0.49411  0.29392  0.18088  1.0000
  C   C45       1.0  0.61386  0.79754  0.91960  1.0000
  C   C46       1.0  0.38614  0.20246  0.08040  1.0000
  C   C47       1.0  0.66131  0.90635  0.91995  1.0000
  C   C48       1.0  0.33868  0.09365  0.08005  1.0000
  C   C49       1.0  0.59193  0.91709  0.81788  1.0000
  C   C50       1.0  0.40806  0.08291  0.18212  1.0000
  C   C51       1.0  0.48532  0.82122  0.72110  1.0000
  C   C52       1.0  0.51467  0.17877  0.27889  1.0000
  C   C53       1.0  0.92764  0.20760  0.12539  1.0000
  C   C54       1.0  0.07235  0.79240  0.87461  1.0000
  C   C55       1.0  0.79877  0.12211  0.04161  1.0000
  C   C56       1.0  0.20122  0.87789  0.95838  1.0000
  C   C57       1.0  0.78623  0.00293  0.01782  1.0000
  C   C58       1.0  0.21376  0.99707  0.98218  1.0000
  C   C59       1.0  0.90396  0.97800  0.08522  1.0000
  C   C60       1.0  0.09604  0.02200  0.91478  1.0000
  C   C61       1.0  0.02836  0.06945  0.16719  1.0000
  C   C62       1.0  0.97164  0.93055  0.83281  1.0000
  N   N1        1.0  0.44336  0.71609  0.72037  1.0000
  N   N2        1.0  0.55664  0.28390  0.27962  1.0000
  N   N3        1.0  0.04280  0.18269  0.18664  1.0000
  N   N4        1.0  0.95719  0.81731  0.81336  1.0000
  O   O1        1.0  0.06682  0.52130  0.35225  1.0000
  O   O2        1.0  0.93319  0.47872  0.64775  1.0000
  O   O3        1.0  0.81780  0.45381  0.30481  1.0000
  O   O4        1.0  0.18221  0.54619  0.69519  1.0000
  O   O5        1.0  0.06679  0.36481  0.46700  1.0000
  O   O6        1.0  0.93320  0.63519  0.53300  1.0000
  O   O7        1.0  0.82740  0.27929  0.42373  1.0000
  O   O8        1.0  0.17260  0.72072  0.57628  1.0000
  O   O9        1.0  0.41392  0.62954  0.47258  1.0000
  O   O10       1.0  0.58608  0.37046  0.52742  1.0000
  O   O11       1.0  0.57479  0.53563  0.39736  1.0000
  O   O12       1.0  0.42521  0.46437  0.60264  1.0000
  O   O13       1.0  0.27351  0.38203  0.35158  1.0000
  O   O14       1.0  0.72649  0.61797  0.64842  1.0000
  F   F1        1.0  0.69479  0.37240  0.05861  1.0000
  F   F2        1.0  0.30521  0.62760  0.94140  1.0000
  F   F3        1.0  0.75474  0.03785  0.32210  1.0000
  F   F4        1.0  0.24526  0.96215  0.67791  1.0000
  F   F5        1.0  0.35357  0.80512  0.42064  1.0000
  F   F6        1.0  0.64644  0.19488  0.57936  1.0000
