data_image0
_chemical_formula_structural       Ag4H32C28S4N20O12
_chemical_formula_sum              "Ag4 H32 C28 S4 N20 O12"
_cell_length_a       8.97166
_cell_length_b       8.97163
_cell_length_c       14.1307
_cell_angle_alpha    91.1058
_cell_angle_beta     91.1055
_cell_angle_gamma    103.758

_space_group_name_H-M_alt    "P 1"
_space_group_IT_number       1

loop_
  _space_group_symop_operation_xyz
  'x, y, z'

loop_
  _atom_site_type_symbol
  _atom_site_label
  _atom_site_symmetry_multiplicity
  _atom_site_fract_x
  _atom_site_fract_y
  _atom_site_fract_z
  _atom_site_occupancy
  Ag  Ag1       1.0  0.85882  0.85647  0.78742  1.0000
  Ag  Ag2       1.0  0.14353  0.14118  0.71258  1.0000
  Ag  Ag3       1.0  0.14118  0.14353  0.21258  1.0000
  Ag  Ag4       1.0  0.85647  0.85883  0.28742  1.0000
  H   H1        1.0  0.08705  0.68937  0.24841  1.0000
  H   H2        1.0  0.31063  0.91294  0.25159  1.0000
  H   H3        1.0  0.91295  0.31063  0.75159  1.0000
  H   H4        1.0  0.68937  0.08705  0.74841  1.0000
  H   H5        1.0  0.10832  0.67996  0.79194  1.0000
  H   H6        1.0  0.32004  0.89168  0.70805  1.0000
  H   H7        1.0  0.89168  0.32004  0.20805  1.0000
  H   H8        1.0  0.67996  0.10832  0.29195  1.0000
  H   H9        1.0  0.31107  0.55033  0.86223  1.0000
  H   H10       1.0  0.44967  0.68893  0.63777  1.0000
  H   H11       1.0  0.68893  0.44967  0.13777  1.0000
  H   H12       1.0  0.55033  0.31107  0.36224  1.0000
  H   H13       1.0  0.29412  0.50528  0.98515  1.0000
  H   H14       1.0  0.49472  0.70587  0.51484  1.0000
  H   H15       1.0  0.70587  0.49473  0.01484  1.0000
  H   H16       1.0  0.50528  0.29413  0.48516  1.0000
  H   H17       1.0  0.54371  0.67546  0.97533  1.0000
  H   H18       1.0  0.32453  0.45628  0.52467  1.0000
  H   H19       1.0  0.45629  0.32454  0.02467  1.0000
  H   H20       1.0  0.67547  0.54372  0.47533  1.0000
  H   H21       1.0  0.42665  0.79287  0.02297  1.0000
  H   H22       1.0  0.20713  0.57334  0.47703  1.0000
  H   H23       1.0  0.57335  0.20713  0.97703  1.0000
  H   H24       1.0  0.79288  0.42665  0.52297  1.0000
  H   H25       1.0  0.74429  0.92918  0.11299  1.0000
  H   H26       1.0  0.07082  0.25570  0.38701  1.0000
  H   H27       1.0  0.25570  0.07082  0.88701  1.0000
  H   H28       1.0  0.92917  0.74430  0.61299  1.0000
  H   H29       1.0  0.75675  0.91139  0.99163  1.0000
  H   H30       1.0  0.08861  0.24325  0.50837  1.0000
  H   H31       1.0  0.24325  0.08861  0.00837  1.0000
  H   H32       1.0  0.91139  0.75675  0.49163  1.0000
  C   C1        1.0  0.06285  0.71016  0.17457  1.0000
  C   C2        1.0  0.28984  0.93714  0.32543  1.0000
  C   C3        1.0  0.93715  0.28984  0.82543  1.0000
  C   C4        1.0  0.71016  0.06285  0.67457  1.0000
  C   C5        1.0  0.10054  0.68818  0.02142  1.0000
  C   C6        1.0  0.31182  0.89946  0.47858  1.0000
  C   C7        1.0  0.89946  0.31182  0.97858  1.0000
  C   C8        1.0  0.68818  0.10054  0.52142  1.0000
  C   C9        1.0  0.98281  0.75839  0.99510  1.0000
  C   C10       1.0  0.24161  0.01718  0.50490  1.0000
  C   C11       1.0  0.01719  0.24160  0.00490  1.0000
  C   C12       1.0  0.75840  0.98282  0.49510  1.0000
  C   C13       1.0  0.90494  0.81283  0.07007  1.0000
  C   C14       1.0  0.18717  0.09506  0.42992  1.0000
  C   C15       1.0  0.09506  0.18717  0.92992  1.0000
  C   C16       1.0  0.81283  0.90494  0.57008  1.0000
  C   C17       1.0  0.08510  0.69789  0.86600  1.0000
  C   C18       1.0  0.30212  0.91489  0.63400  1.0000
  C   C19       1.0  0.91489  0.30212  0.13400  1.0000
  C   C20       1.0  0.69788  0.08511  0.36600  1.0000
  C   C21       1.0  0.30430  0.59741  0.93390  1.0000
  C   C22       1.0  0.40259  0.69569  0.56609  1.0000
  C   C23       1.0  0.69570  0.40259  0.06609  1.0000
  C   C24       1.0  0.59741  0.30431  0.43391  1.0000
  C   C25       1.0  0.44551  0.72533  0.96056  1.0000
  C   C26       1.0  0.27466  0.55449  0.53944  1.0000
  C   C27       1.0  0.55449  0.27466  0.03944  1.0000
  C   C28       1.0  0.72534  0.44551  0.46056  1.0000
  S   S1        1.0  0.50414  0.85595  0.86564  1.0000
  S   S2        1.0  0.14404  0.49586  0.63436  1.0000
  S   S3        1.0  0.49586  0.14404  0.13436  1.0000
  S   S4        1.0  0.85596  0.50414  0.36564  1.0000
  N   N1        1.0  0.95101  0.78649  0.16005  1.0000
  N   N2        1.0  0.21352  0.04899  0.33995  1.0000
  N   N3        1.0  0.04899  0.21351  0.83995  1.0000
  N   N4        1.0  0.78649  0.95101  0.66005  1.0000
  N   N5        1.0  0.14372  0.65914  0.10926  1.0000
  N   N6        1.0  0.34086  0.85627  0.39074  1.0000
  N   N7        1.0  0.85627  0.34086  0.89074  1.0000
  N   N8        1.0  0.65914  0.14373  0.60926  1.0000
  N   N9        1.0  0.79311  0.88512  0.05749  1.0000
  N   N10       1.0  0.11488  0.20689  0.44251  1.0000
  N   N11       1.0  0.20689  0.11488  0.94251  1.0000
  N   N12       1.0  0.88512  0.79311  0.55749  1.0000
  N   N13       1.0  0.97443  0.76202  0.89648  1.0000
  N   N14       1.0  0.23798  0.02557  0.60352  1.0000
  N   N15       1.0  0.02557  0.23798  0.10352  1.0000
  N   N16       1.0  0.76202  0.97443  0.39648  1.0000
  N   N17       1.0  0.16378  0.65173  0.93860  1.0000
  N   N18       1.0  0.34827  0.83622  0.56140  1.0000
  N   N19       1.0  0.83622  0.34827  0.06140  1.0000
  N   N20       1.0  0.65173  0.16378  0.43860  1.0000
  O   O1        1.0  0.53355  0.76131  0.78561  1.0000
  O   O2        1.0  0.23869  0.46645  0.71439  1.0000
  O   O3        1.0  0.46645  0.23869  0.21439  1.0000
  O   O4        1.0  0.76131  0.53355  0.28561  1.0000
  O   O5        1.0  0.64495  0.96762  0.90098  1.0000
  O   O6        1.0  0.03238  0.35504  0.59902  1.0000
  O   O7        1.0  0.35504  0.03238  0.09902  1.0000
  O   O8        1.0  0.96763  0.64496  0.40098  1.0000
  O   O9        1.0  0.37707  0.93025  0.84693  1.0000
  O   O10       1.0  0.06975  0.62292  0.65306  1.0000
  O   O11       1.0  0.62292  0.06975  0.15306  1.0000
  O   O12       1.0  0.93025  0.37708  0.34694  1.0000
