data_image0
_chemical_formula_structural       NiH42C24N4O8
_chemical_formula_sum              "Ni1 H42 C24 N4 O8"
_cell_length_a       7.97048
_cell_length_b       8.47031
_cell_length_c       10.9742
_cell_angle_alpha    77.4307
_cell_angle_beta     85.916
_cell_angle_gamma    67.8655

_space_group_name_H-M_alt    "P 1"
_space_group_IT_number       1

loop_
  _space_group_symop_operation_xyz
  'x, y, z'

loop_
  _atom_site_type_symbol
  _atom_site_label
  _atom_site_symmetry_multiplicity
  _atom_site_fract_x
  _atom_site_fract_y
  _atom_site_fract_z
  _atom_site_occupancy
  Ni  Ni1       1.0  1.00000  0.00000  1.00000  1.0000
  H   H1        1.0  0.97957  0.21330  0.13073  1.0000
  H   H2        1.0  0.02044  0.78670  0.86927  1.0000
  H   H3        1.0  0.10747  0.88047  0.40608  1.0000
  H   H4        1.0  0.89254  0.11953  0.59392  1.0000
  H   H5        1.0  0.92100  0.03109  0.31370  1.0000
  H   H6        1.0  0.07901  0.96890  0.68630  1.0000
  H   H7        1.0  0.17045  0.69263  0.23743  1.0000
  H   H8        1.0  0.82955  0.30736  0.76257  1.0000
  H   H9        1.0  0.02930  0.61332  0.08424  1.0000
  H   H10       1.0  0.97070  0.38668  0.91576  1.0000
  H   H11       1.0  0.81776  0.64217  0.15958  1.0000
  H   H12       1.0  0.18224  0.35783  0.84042  1.0000
  H   H13       1.0  0.33725  0.10778  0.01405  1.0000
  H   H14       1.0  0.66274  0.89222  0.98595  1.0000
  H   H15       1.0  0.22923  0.30590  0.06575  1.0000
  H   H16       1.0  0.77077  0.69410  0.93425  1.0000
  H   H17       1.0  0.37827  0.80155  0.16752  1.0000
  H   H18       1.0  0.62174  0.19845  0.83248  1.0000
  H   H19       1.0  0.42339  0.81238  0.32160  1.0000
  H   H20       1.0  0.57661  0.18762  0.67840  1.0000
  H   H21       1.0  0.46801  0.95622  0.19285  1.0000
  H   H22       1.0  0.53199  0.04378  0.80715  1.0000
  H   H23       1.0  0.27453  0.22309  0.26908  1.0000
  H   H24       1.0  0.72546  0.77691  0.73092  1.0000
  H   H25       1.0  0.25288  0.08115  0.40789  1.0000
  H   H26       1.0  0.74712  0.91885  0.59211  1.0000
  H   H27       1.0  0.05459  0.24409  0.32893  1.0000
  H   H28       1.0  0.94541  0.75590  0.67108  1.0000
  H   H29       1.0  0.59740  0.51905  0.87474  1.0000
  H   H30       1.0  0.40260  0.48095  0.12526  1.0000
  H   H31       1.0  0.82610  0.76208  0.39656  1.0000
  H   H32       1.0  0.17390  0.23792  0.60344  1.0000
  H   H33       1.0  0.04876  0.62595  0.45110  1.0000
  H   H34       1.0  0.95125  0.37404  0.54890  1.0000
  H   H35       1.0  0.94258  0.56661  0.34116  1.0000
  H   H36       1.0  0.05742  0.43338  0.65883  1.0000
  H   H37       1.0  0.79807  0.93408  0.16958  1.0000
  H   H38       1.0  0.20193  0.06593  0.83042  1.0000
  H   H39       1.0  0.43571  0.76748  0.71399  1.0000
  H   H40       1.0  0.56429  0.23252  0.28601  1.0000
  H   H41       1.0  0.34558  0.42978  0.52973  1.0000
  H   H42       1.0  0.65442  0.57022  0.47027  1.0000
  C   C1        1.0  0.36497  0.74030  0.92374  1.0000
  C   C2        1.0  0.63503  0.25970  0.07625  1.0000
  C   C3        1.0  0.05713  0.93098  0.30905  1.0000
  C   C4        1.0  0.94287  0.06902  0.69095  1.0000
  C   C5        1.0  0.18295  0.02116  0.23975  1.0000
  C   C6        1.0  0.81704  0.97884  0.76026  1.0000
  C   C7        1.0  0.03711  0.77974  0.26342  1.0000
  C   C8        1.0  0.96289  0.22026  0.73658  1.0000
  C   C9        1.0  0.89459  0.71051  0.09717  1.0000
  C   C10       1.0  0.10541  0.28949  0.90283  1.0000
  C   C11       1.0  0.20443  0.20614  0.02796  1.0000
  C   C12       1.0  0.79557  0.79386  0.97204  1.0000
  C   C13       1.0  0.37449  0.88974  0.22821  1.0000
  C   C14       1.0  0.62551  0.11026  0.77179  1.0000
  C   C15       1.0  0.19103  0.15088  0.31568  1.0000
  C   C16       1.0  0.80897  0.84912  0.68432  1.0000
  C   C17       1.0  0.49795  0.55769  0.94693  1.0000
  C   C18       1.0  0.50204  0.44232  0.05307  1.0000
  C   C19       1.0  0.95924  0.67690  0.36869  1.0000
  C   C20       1.0  0.04076  0.32309  0.63131  1.0000
  C   C21       1.0  0.42868  0.50403  0.53733  1.0000
  C   C22       1.0  0.57132  0.49597  0.46267  1.0000
  C   C23       1.0  0.37717  0.60701  0.63656  1.0000
  C   C24       1.0  0.62283  0.39299  0.36344  1.0000
  N   N1        1.0  0.09958  0.11874  0.11360  1.0000
  N   N2        1.0  0.90042  0.88126  0.88640  1.0000
  N   N3        1.0  0.92199  0.84573  0.14925  1.0000
  N   N4        1.0  0.07801  0.15427  0.85075  1.0000
  O   O1        1.0  0.24312  0.78215  0.00453  1.0000
  O   O2        1.0  0.75688  0.21786  0.99547  1.0000
  O   O3        1.0  0.38303  0.84558  0.82459  1.0000
  O   O4        1.0  0.61698  0.15443  0.17541  1.0000
  O   O5        1.0  0.47008  0.70868  0.63592  1.0000
  O   O6        1.0  0.52991  0.29133  0.36408  1.0000
  O   O7        1.0  0.25828  0.59442  0.71303  1.0000
  O   O8        1.0  0.74172  0.40558  0.28697  1.0000
