data_image0
_chemical_formula_structural       Zn2H24C20S2N4O12
_chemical_formula_sum              "Zn2 H24 C20 S2 N4 O12"
_cell_length_a       6.80351
_cell_length_b       9.88875
_cell_length_c       9.88869
_cell_angle_alpha    79.2123
_cell_angle_beta     79.4205
_cell_angle_gamma    79.4204

_space_group_name_H-M_alt    "P 1"
_space_group_IT_number       1

loop_
  _space_group_symop_operation_xyz
  'x, y, z'

loop_
  _atom_site_type_symbol
  _atom_site_label
  _atom_site_symmetry_multiplicity
  _atom_site_fract_x
  _atom_site_fract_y
  _atom_site_fract_z
  _atom_site_occupancy
  Zn  Zn1       1.0  0.75000  0.27849  0.72151  1.0000
  Zn  Zn2       1.0  0.25000  0.72151  0.27850  1.0000
  H   H1        1.0  0.81557  0.03100  0.55674  1.0000
  H   H2        1.0  0.68443  0.44326  0.96901  1.0000
  H   H3        1.0  0.18443  0.96901  0.44326  1.0000
  H   H4        1.0  0.31556  0.55674  0.03100  1.0000
  H   H5        1.0  0.84187  0.77108  0.61439  1.0000
  H   H6        1.0  0.65812  0.38560  0.22893  1.0000
  H   H7        1.0  0.15813  0.22893  0.38561  1.0000
  H   H8        1.0  0.34187  0.61439  0.77108  1.0000
  H   H9        1.0  0.76356  0.81276  0.04887  1.0000
  H   H10       1.0  0.73644  0.95113  0.18724  1.0000
  H   H11       1.0  0.23645  0.18724  0.95113  1.0000
  H   H12       1.0  0.26357  0.04887  0.81276  1.0000
  H   H13       1.0  0.81851  0.66081  0.86700  1.0000
  H   H14       1.0  0.68148  0.13299  0.33920  1.0000
  H   H15       1.0  0.18148  0.33920  0.13299  1.0000
  H   H16       1.0  0.31852  0.86700  0.66080  1.0000
  H   H17       1.0  0.90439  0.49501  0.69679  1.0000
  H   H18       1.0  0.59560  0.30322  0.50498  1.0000
  H   H19       1.0  0.09561  0.50499  0.30321  1.0000
  H   H20       1.0  0.40440  0.69678  0.49501  1.0000
  H   H21       1.0  0.70696  0.55043  0.62705  1.0000
  H   H22       1.0  0.79303  0.37295  0.44957  1.0000
  H   H23       1.0  0.29303  0.44958  0.37295  1.0000
  H   H24       1.0  0.20697  0.62705  0.55043  1.0000
  C   C1        1.0  0.76490  0.00284  0.89744  1.0000
  C   C2        1.0  0.73509  0.10256  0.99716  1.0000
  C   C3        1.0  0.23510  0.99717  0.10255  1.0000
  C   C4        1.0  0.26491  0.89744  0.00284  1.0000
  C   C5        1.0  0.77875  0.85844  0.93910  1.0000
  C   C6        1.0  0.72125  0.06090  0.14156  1.0000
  C   C7        1.0  0.22125  0.14156  0.06091  1.0000
  C   C8        1.0  0.27876  0.93910  0.85844  1.0000
  C   C9        1.0  0.80812  0.77337  0.83747  1.0000
  C   C10       1.0  0.69188  0.16252  0.22663  1.0000
  C   C11       1.0  0.19189  0.22663  0.16253  1.0000
  C   C12       1.0  0.30812  0.83747  0.77337  1.0000
  C   C13       1.0  0.82225  0.83308  0.69721  1.0000
  C   C14       1.0  0.67774  0.30278  0.16693  1.0000
  C   C15       1.0  0.17774  0.16693  0.30279  1.0000
  C   C16       1.0  0.32225  0.69721  0.83307  1.0000
  C   C17       1.0  0.80617  0.97734  0.66407  1.0000
  C   C18       1.0  0.69383  0.33592  0.02267  1.0000
  C   C19       1.0  0.19383  0.02266  0.33593  1.0000
  C   C20       1.0  0.30616  0.66407  0.97733  1.0000
  S   S1        1.0  0.25000  0.34217  0.65783  1.0000
  S   S2        1.0  0.75000  0.65783  0.34217  1.0000
  N   N1        1.0  0.77793  0.05962  0.76148  1.0000
  N   N2        1.0  0.72207  0.23851  0.94038  1.0000
  N   N3        1.0  0.22207  0.94038  0.23852  1.0000
  N   N4        1.0  0.27793  0.76149  0.05962  1.0000
  O   O1        1.0  0.09671  0.24692  0.69706  1.0000
  O   O2        1.0  0.40329  0.30294  0.75308  1.0000
  O   O3        1.0  0.90329  0.75308  0.30294  1.0000
  O   O4        1.0  0.59671  0.69706  0.24692  1.0000
  O   O5        1.0  0.14621  0.48945  0.66552  1.0000
  O   O6        1.0  0.35379  0.33448  0.51055  1.0000
  O   O7        1.0  0.85379  0.51055  0.33448  1.0000
  O   O8        1.0  0.64621  0.66552  0.48945  1.0000
  O   O9        1.0  0.75539  0.48947  0.71101  1.0000
  O   O10       1.0  0.74461  0.28900  0.51053  1.0000
  O   O11       1.0  0.24461  0.51053  0.28899  1.0000
  O   O12       1.0  0.25539  0.71100  0.48947  1.0000
