data_image0
_chemical_formula_structural       Zn2H44C46N8O8
_chemical_formula_sum              "Zn2 H44 C46 N8 O8"
_cell_length_a       9.42545
_cell_length_b       9.51367
_cell_length_c       10.8021
_cell_angle_alpha    94.9067
_cell_angle_beta     89.9999
_cell_angle_gamma    90

_space_group_name_H-M_alt    "P 1"
_space_group_IT_number       1

loop_
  _space_group_symop_operation_xyz
  'x, y, z'

loop_
  _atom_site_type_symbol
  _atom_site_label
  _atom_site_symmetry_multiplicity
  _atom_site_fract_x
  _atom_site_fract_y
  _atom_site_fract_z
  _atom_site_occupancy
  Zn  Zn1       1.0  0.72279  0.44138  0.08786  1.0000
  Zn  Zn2       1.0  0.22279  0.55862  0.91214  1.0000
  H   H1        1.0  0.64038  0.08712  0.45476  1.0000
  H   H2        1.0  0.14038  0.91287  0.54524  1.0000
  H   H3        1.0  0.08359  0.48045  0.21984  1.0000
  H   H4        1.0  0.58359  0.51955  0.78016  1.0000
  H   H5        1.0  0.00717  0.46871  0.36780  1.0000
  H   H6        1.0  0.50717  0.53129  0.63220  1.0000
  H   H7        1.0  0.05010  0.73072  0.39298  1.0000
  H   H8        1.0  0.55010  0.26928  0.60701  1.0000
  H   H9        1.0  0.94846  0.96536  0.35886  1.0000
  H   H10       1.0  0.44846  0.03464  0.64114  1.0000
  H   H11       1.0  0.74696  0.97853  0.20543  1.0000
  H   H12       1.0  0.24696  0.02147  0.79457  1.0000
  H   H13       1.0  0.65886  0.75315  0.09554  1.0000
  H   H14       1.0  0.15886  0.24685  0.90446  1.0000
  H   H15       1.0  0.04378  0.17995  0.18764  1.0000
  H   H16       1.0  0.54378  0.82005  0.81236  1.0000
  H   H17       1.0  0.06707  0.32059  0.09167  1.0000
  H   H18       1.0  0.56707  0.67941  0.90833  1.0000
  H   H19       1.0  0.05481  0.01349  0.99701  1.0000
  H   H20       1.0  0.55481  0.98651  0.00299  1.0000
  H   H21       1.0  0.92095  0.90106  0.81491  1.0000
  H   H22       1.0  0.42095  0.09894  0.18509  1.0000
  H   H23       1.0  0.68758  0.00792  0.75750  1.0000
  H   H24       1.0  0.18758  0.99208  0.24250  1.0000
  H   H25       1.0  0.60339  0.22520  0.88433  1.0000
  H   H26       1.0  0.10339  0.77480  0.11567  1.0000
  H   H27       1.0  0.85336  0.31941  0.40517  1.0000
  H   H28       1.0  0.35336  0.68059  0.59483  1.0000
  H   H29       1.0  0.85133  0.16744  0.30266  1.0000
  H   H30       1.0  0.35133  0.83257  0.69734  1.0000
  H   H31       1.0  0.39311  0.29758  0.22542  1.0000
  H   H32       1.0  0.89311  0.70241  0.77458  1.0000
  H   H33       1.0  0.28662  0.50355  0.33553  1.0000
  H   H34       1.0  0.78662  0.49645  0.66447  1.0000
  H   H35       1.0  0.41170  0.41455  0.42329  1.0000
  H   H36       1.0  0.91171  0.58544  0.57671  1.0000
  H   H37       1.0  0.65501  0.52889  0.46983  1.0000
  H   H38       1.0  0.15501  0.47111  0.53017  1.0000
  H   H39       1.0  0.76656  0.75786  0.54239  1.0000
  H   H40       1.0  0.26656  0.24214  0.45761  1.0000
  H   H41       1.0  0.42466  0.97845  0.38155  1.0000
  H   H42       1.0  0.92466  0.02155  0.61845  1.0000
  H   H43       1.0  0.31219  0.75005  0.31074  1.0000
  H   H44       1.0  0.81219  0.24995  0.68926  1.0000
  C   C1        1.0  0.98142  0.47761  0.26938  1.0000
  C   C2        1.0  0.48142  0.52239  0.73062  1.0000
  C   C3        1.0  0.91242  0.61922  0.25728  1.0000
  C   C4        1.0  0.41242  0.38078  0.74272  1.0000
  C   C5        1.0  0.96620  0.73994  0.32454  1.0000
  C   C6        1.0  0.46620  0.26006  0.67546  1.0000
  C   C7        1.0  0.90906  0.87114  0.30538  1.0000
  C   C8        1.0  0.40906  0.12886  0.69462  1.0000
  C   C9        1.0  0.79789  0.87878  0.22074  1.0000
  C   C10       1.0  0.29789  0.12123  0.77926  1.0000
  C   C11       1.0  0.74821  0.75435  0.15958  1.0000
  C   C12       1.0  0.24821  0.24565  0.84042  1.0000
  C   C13       1.0  0.98651  0.25769  0.13576  1.0000
  C   C14       1.0  0.48651  0.74231  0.86424  1.0000
  C   C15       1.0  0.90159  0.18009  0.03293  1.0000
  C   C16       1.0  0.40159  0.81991  0.96707  1.0000
  C   C17       1.0  0.95425  0.05717  0.96875  1.0000
  C   C18       1.0  0.45425  0.94283  0.03125  1.0000
  C   C19       1.0  0.87836  0.99361  0.86881  1.0000
  C   C20       1.0  0.37836  0.00639  0.13119  1.0000
  C   C21       1.0  0.74887  0.05220  0.83704  1.0000
  C   C22       1.0  0.24887  0.94780  0.16296  1.0000
  C   C23       1.0  0.70274  0.17389  0.90578  1.0000
  C   C24       1.0  0.20275  0.82611  0.09422  1.0000
  C   C25       1.0  0.82143  0.27953  0.31048  1.0000
  C   C26       1.0  0.32143  0.72047  0.68952  1.0000
  C   C27       1.0  0.65927  0.28765  0.30657  1.0000
  C   C28       1.0  0.15927  0.71235  0.69343  1.0000
  C   C29       1.0  0.45350  0.39747  0.22874  1.0000
  C   C30       1.0  0.95350  0.60253  0.77126  1.0000
  C   C31       1.0  0.41267  0.46492  0.10918  1.0000
  C   C32       1.0  0.91267  0.53508  0.89082  1.0000
  C   C33       1.0  0.40042  0.48437  0.34785  1.0000
  C   C34       1.0  0.90043  0.51562  0.65215  1.0000
  C   C35       1.0  0.47500  0.62185  0.38354  1.0000
  C   C36       1.0  0.97499  0.37814  0.61646  1.0000
  C   C37       1.0  0.60357  0.62716  0.44978  1.0000
  C   C38       1.0  0.10357  0.37284  0.55022  1.0000
  C   C39       1.0  0.66666  0.75487  0.49133  1.0000
  C   C40       1.0  0.16666  0.24513  0.50867  1.0000
  C   C41       1.0  0.60467  0.88298  0.46420  1.0000
  C   C42       1.0  0.10467  0.11702  0.53580  1.0000
  C   C43       1.0  0.47627  0.87961  0.39852  1.0000
  C   C44       1.0  0.97628  0.12039  0.60148  1.0000
  C   C45       1.0  0.41350  0.75066  0.35954  1.0000
  C   C46       1.0  0.91350  0.24933  0.64046  1.0000
  N   N1        1.0  0.90107  0.35397  0.21793  1.0000
  N   N2        1.0  0.40107  0.64603  0.78207  1.0000
  N   N3        1.0  0.80517  0.62795  0.17673  1.0000
  N   N4        1.0  0.30518  0.37205  0.82327  1.0000
  N   N5        1.0  0.77800  0.23699  0.00063  1.0000
  N   N6        1.0  0.27800  0.76301  0.99937  1.0000
  N   N7        1.0  0.60440  0.37263  0.22986  1.0000
  N   N8        1.0  0.10440  0.62737  0.77014  1.0000
  O   O1        1.0  0.59014  0.21512  0.38129  1.0000
  O   O2        1.0  0.09014  0.78488  0.61871  1.0000
  O   O3        1.0  0.51012  0.49568  0.03442  1.0000
  O   O4        1.0  0.01011  0.50432  0.96558  1.0000
  O   O5        1.0  0.28075  0.48323  0.09045  1.0000
  O   O6        1.0  0.78075  0.51677  0.90955  1.0000
  O   O7        1.0  0.67177  0.00514  0.50375  1.0000
  O   O8        1.0  0.17178  0.99486  0.49625  1.0000
