data_image0
_chemical_formula_structural       Zn4P4H16C16O12
_chemical_formula_sum              "Zn4 P4 H16 C16 O12"
_cell_length_a       5.14517
_cell_length_b       10.5885
_cell_length_c       10.8751
_cell_angle_alpha    93.5891
_cell_angle_beta     90
_cell_angle_gamma    90

_space_group_name_H-M_alt    "P 1"
_space_group_IT_number       1

loop_
  _space_group_symop_operation_xyz
  'x, y, z'

loop_
  _atom_site_type_symbol
  _atom_site_label
  _atom_site_symmetry_multiplicity
  _atom_site_fract_x
  _atom_site_fract_y
  _atom_site_fract_z
  _atom_site_occupancy
  Zn  Zn1       1.0  0.70605  0.64616  0.00124  1.0000
  Zn  Zn2       1.0  0.20605  0.85384  0.99876  1.0000
  Zn  Zn3       1.0  0.29395  0.35384  0.99876  1.0000
  Zn  Zn4       1.0  0.79395  0.14616  0.00124  1.0000
  P   P1        1.0  0.20907  0.58817  0.84428  1.0000
  P   P2        1.0  0.70907  0.91183  0.15572  1.0000
  P   P3        1.0  0.79093  0.41184  0.15572  1.0000
  P   P4        1.0  0.29093  0.08816  0.84428  1.0000
  H   H1        1.0  0.27235  0.73895  0.69513  1.0000
  H   H2        1.0  0.77235  0.76105  0.30487  1.0000
  H   H3        1.0  0.72764  0.26105  0.30487  1.0000
  H   H4        1.0  0.22764  0.23895  0.69513  1.0000
  H   H5        1.0  0.51099  0.61715  0.68495  1.0000
  H   H6        1.0  0.01099  0.88285  0.31505  1.0000
  H   H7        1.0  0.48901  0.38285  0.31505  1.0000
  H   H8        1.0  0.98901  0.11715  0.68495  1.0000
  H   H9        1.0  0.86937  0.71761  0.57291  1.0000
  H   H10       1.0  0.36937  0.78239  0.42709  1.0000
  H   H11       1.0  0.13063  0.28239  0.42709  1.0000
  H   H12       1.0  0.63063  0.21761  0.57291  1.0000
  H   H13       1.0  0.39014  0.40157  0.58735  1.0000
  H   H14       1.0  0.89014  0.09843  0.41265  1.0000
  H   H15       1.0  0.60987  0.59843  0.41265  1.0000
  H   H16       1.0  0.10986  0.90157  0.58735  1.0000
  C   C1        1.0  0.30125  0.63601  0.69349  1.0000
  C   C2        1.0  0.80125  0.86399  0.30651  1.0000
  C   C3        1.0  0.69875  0.36399  0.30651  1.0000
  C   C4        1.0  0.19875  0.13601  0.69349  1.0000
  C   C5        1.0  0.14854  0.56745  0.59206  1.0000
  C   C6        1.0  0.64854  0.93255  0.40794  1.0000
  C   C7        1.0  0.85146  0.43255  0.40794  1.0000
  C   C8        1.0  0.35146  0.06745  0.59206  1.0000
  C   C9        1.0  0.92848  0.62210  0.54111  1.0000
  C   C10       1.0  0.42848  0.87790  0.45889  1.0000
  C   C11       1.0  0.07152  0.37790  0.45889  1.0000
  C   C12       1.0  0.57152  0.12210  0.54111  1.0000
  C   C13       1.0  0.21773  0.44447  0.54934  1.0000
  C   C14       1.0  0.71773  0.05553  0.45066  1.0000
  C   C15       1.0  0.78227  0.55553  0.45066  1.0000
  C   C16       1.0  0.28227  0.94447  0.54934  1.0000
  O   O1        1.0  0.34738  0.68280  0.94214  1.0000
  O   O2        1.0  0.84738  0.81720  0.05786  1.0000
  O   O3        1.0  0.65262  0.31720  0.05786  1.0000
  O   O4        1.0  0.15262  0.18280  0.94214  1.0000
  O   O5        1.0  0.31615  0.45455  0.85783  1.0000
  O   O6        1.0  0.81615  0.04545  0.14216  1.0000
  O   O7        1.0  0.68386  0.54545  0.14217  1.0000
  O   O8        1.0  0.18385  0.95455  0.85784  1.0000
  O   O9        1.0  0.91407  0.60142  0.85749  1.0000
  O   O10       1.0  0.41407  0.89858  0.14251  1.0000
  O   O11       1.0  0.08593  0.39858  0.14251  1.0000
  O   O12       1.0  0.58593  0.10142  0.85749  1.0000
