data_image0
_chemical_formula_structural       Cd4H48C48S4N8O24
_chemical_formula_sum              "Cd4 H48 C48 S4 N8 O24"
_cell_length_a       6.91347
_cell_length_b       10.2938
_cell_length_c       19.8978
_cell_angle_alpha    89.9999
_cell_angle_beta     90
_cell_angle_gamma    89.9999

_space_group_name_H-M_alt    "P 1"
_space_group_IT_number       1

loop_
  _space_group_symop_operation_xyz
  'x, y, z'

loop_
  _atom_site_type_symbol
  _atom_site_label
  _atom_site_symmetry_multiplicity
  _atom_site_fract_x
  _atom_site_fract_y
  _atom_site_fract_z
  _atom_site_occupancy
  Cd  Cd1       1.0  0.23736  0.00253  0.83906  1.0000
  Cd  Cd2       1.0  0.73736  0.49747  0.16095  1.0000
  Cd  Cd3       1.0  0.26264  0.99747  0.33906  1.0000
  Cd  Cd4       1.0  0.76264  0.50253  0.66094  1.0000
  H   H1        1.0  0.21816  0.67650  0.84833  1.0000
  H   H2        1.0  0.71817  0.82350  0.15167  1.0000
  H   H3        1.0  0.28184  0.32350  0.34833  1.0000
  H   H4        1.0  0.78184  0.17650  0.65167  1.0000
  H   H5        1.0  0.19509  0.50435  0.93533  1.0000
  H   H6        1.0  0.69510  0.99564  0.06467  1.0000
  H   H7        1.0  0.30491  0.49564  0.43533  1.0000
  H   H8        1.0  0.80491  0.00436  0.56467  1.0000
  H   H9        1.0  0.18509  0.57046  0.05856  1.0000
  H   H10       1.0  0.68509  0.92954  0.94144  1.0000
  H   H11       1.0  0.31491  0.42954  0.55856  1.0000
  H   H12       1.0  0.81491  0.07046  0.44144  1.0000
  H   H13       1.0  0.18224  0.74550  0.14281  1.0000
  H   H14       1.0  0.68224  0.75450  0.85719  1.0000
  H   H15       1.0  0.31776  0.25450  0.64281  1.0000
  H   H16       1.0  0.81777  0.24550  0.35718  1.0000
  H   H17       1.0  0.20253  0.98117  0.17034  1.0000
  H   H18       1.0  0.70252  0.51883  0.82966  1.0000
  H   H19       1.0  0.29747  0.01883  0.67034  1.0000
  H   H20       1.0  0.79748  0.48118  0.32966  1.0000
  H   H21       1.0  0.24278  0.21060  0.13191  1.0000
  H   H22       1.0  0.74278  0.28940  0.86809  1.0000
  H   H23       1.0  0.25722  0.78940  0.63191  1.0000
  H   H24       1.0  0.75722  0.71060  0.36809  1.0000
  H   H25       1.0  0.28543  0.36666  0.03782  1.0000
  H   H26       1.0  0.78543  0.13335  0.96218  1.0000
  H   H27       1.0  0.21457  0.63334  0.53782  1.0000
  H   H28       1.0  0.71456  0.86666  0.46219  1.0000
  H   H29       1.0  0.28389  0.28059  0.91820  1.0000
  H   H30       1.0  0.78389  0.21941  0.08180  1.0000
  H   H31       1.0  0.21611  0.71941  0.41820  1.0000
  H   H32       1.0  0.71610  0.78059  0.58180  1.0000
  H   H33       1.0  0.45403  0.18537  0.77261  1.0000
  H   H34       1.0  0.95403  0.31463  0.22739  1.0000
  H   H35       1.0  0.04597  0.81463  0.27261  1.0000
  H   H36       1.0  0.54597  0.68537  0.72739  1.0000
  H   H37       1.0  0.03711  0.89098  0.73856  1.0000
  H   H38       1.0  0.53711  0.60902  0.26144  1.0000
  H   H39       1.0  0.46289  0.10902  0.23856  1.0000
  H   H40       1.0  0.96289  0.39098  0.76144  1.0000
  H   H41       1.0  0.26900  0.28128  0.77849  1.0000
  H   H42       1.0  0.76900  0.21872  0.22151  1.0000
  H   H43       1.0  0.23099  0.71872  0.27849  1.0000
  H   H44       1.0  0.73100  0.78128  0.72151  1.0000
  H   H45       1.0  0.21543  0.78792  0.74577  1.0000
  H   H46       1.0  0.71542  0.71208  0.25423  1.0000
  H   H47       1.0  0.28457  0.21208  0.24577  1.0000
  H   H48       1.0  0.78457  0.28792  0.75423  1.0000
  C   C1        1.0  0.21195  0.70258  0.90143  1.0000
  C   C2        1.0  0.71195  0.79742  0.09857  1.0000
  C   C3        1.0  0.28805  0.29741  0.40143  1.0000
  C   C4        1.0  0.78805  0.20258  0.59857  1.0000
  C   C5        1.0  0.20057  0.60558  0.95104  1.0000
  C   C6        1.0  0.70057  0.89442  0.04896  1.0000
  C   C7        1.0  0.29943  0.39442  0.45104  1.0000
  C   C8        1.0  0.79943  0.10558  0.54896  1.0000
  C   C9        1.0  0.19513  0.64133  0.01790  1.0000
  C   C10       1.0  0.69514  0.85867  0.98210  1.0000
  C   C11       1.0  0.30487  0.35867  0.51789  1.0000
  C   C12       1.0  0.80487  0.14133  0.48210  1.0000
  C   C13       1.0  0.20204  0.77465  0.03510  1.0000
  C   C14       1.0  0.70204  0.72535  0.96490  1.0000
  C   C15       1.0  0.29796  0.22535  0.53510  1.0000
  C   C16       1.0  0.79796  0.27465  0.46490  1.0000
  C   C17       1.0  0.19610  0.81827  0.10332  1.0000
  C   C18       1.0  0.69610  0.68173  0.89668  1.0000
  C   C19       1.0  0.30389  0.18173  0.60332  1.0000
  C   C20       1.0  0.80390  0.31827  0.39668  1.0000
  C   C21       1.0  0.20538  0.94752  0.11846  1.0000
  C   C22       1.0  0.70537  0.55248  0.88154  1.0000
  C   C23       1.0  0.29462  0.05248  0.61846  1.0000
  C   C24       1.0  0.79462  0.44752  0.38154  1.0000
  C   C25       1.0  0.22419  0.04261  0.06638  1.0000
  C   C26       1.0  0.72418  0.45739  0.93362  1.0000
  C   C27       1.0  0.27581  0.95739  0.56638  1.0000
  C   C28       1.0  0.77581  0.54261  0.43362  1.0000
  C   C29       1.0  0.24348  0.17687  0.08003  1.0000
  C   C30       1.0  0.74347  0.32313  0.91997  1.0000
  C   C31       1.0  0.25652  0.82313  0.58003  1.0000
  C   C32       1.0  0.75652  0.67687  0.41997  1.0000
  C   C33       1.0  0.26607  0.26362  0.02761  1.0000
  C   C34       1.0  0.76607  0.23639  0.97239  1.0000
  C   C35       1.0  0.23393  0.73639  0.52761  1.0000
  C   C36       1.0  0.73392  0.76361  0.47239  1.0000
  C   C37       1.0  0.26668  0.21622  0.96142  1.0000
  C   C38       1.0  0.76667  0.28378  0.03858  1.0000
  C   C39       1.0  0.23332  0.78378  0.46142  1.0000
  C   C40       1.0  0.73332  0.71621  0.53858  1.0000
  C   C41       1.0  0.22836  0.00318  0.99783  1.0000
  C   C42       1.0  0.72836  0.49682  0.00217  1.0000
  C   C43       1.0  0.27164  0.99682  0.49783  1.0000
  C   C44       1.0  0.77164  0.50318  0.50217  1.0000
  C   C45       1.0  0.21504  0.86617  0.98181  1.0000
  C   C46       1.0  0.71503  0.63383  0.01819  1.0000
  C   C47       1.0  0.28497  0.13383  0.48181  1.0000
  C   C48       1.0  0.78497  0.36617  0.51819  1.0000
  S   S1        1.0  0.74180  0.01999  0.78910  1.0000
  S   S2        1.0  0.24180  0.48001  0.21090  1.0000
  S   S3        1.0  0.75820  0.98001  0.28909  1.0000
  S   S4        1.0  0.25820  0.51999  0.71090  1.0000
  N   N1        1.0  0.21890  0.82855  0.91645  1.0000
  N   N2        1.0  0.71890  0.67145  0.08355  1.0000
  N   N3        1.0  0.28110  0.17145  0.41645  1.0000
  N   N4        1.0  0.78110  0.32855  0.58355  1.0000
  N   N5        1.0  0.24832  0.09050  0.94723  1.0000
  N   N6        1.0  0.74832  0.40951  0.05277  1.0000
  N   N7        1.0  0.25168  0.90951  0.44723  1.0000
  N   N8        1.0  0.75168  0.59049  0.55277  1.0000
  O   O1        1.0  0.68025  0.14531  0.75711  1.0000
  O   O2        1.0  0.18025  0.35468  0.24289  1.0000
  O   O3        1.0  0.81975  0.85469  0.25711  1.0000
  O   O4        1.0  0.31976  0.64531  0.74289  1.0000
  O   O5        1.0  0.81104  0.93149  0.73422  1.0000
  O   O6        1.0  0.31104  0.56851  0.26579  1.0000
  O   O7        1.0  0.68896  0.06852  0.23421  1.0000
  O   O8        1.0  0.18896  0.43149  0.76579  1.0000
  O   O9        1.0  0.57476  0.95988  0.82432  1.0000
  O   O10       1.0  0.07476  0.54012  0.17568  1.0000
  O   O11       1.0  0.92524  0.04012  0.32431  1.0000
  O   O12       1.0  0.42524  0.45988  0.67568  1.0000
  O   O13       1.0  0.89961  0.04547  0.83819  1.0000
  O   O14       1.0  0.39961  0.45453  0.16181  1.0000
  O   O15       1.0  0.60039  0.95453  0.33819  1.0000
  O   O16       1.0  0.10038  0.54547  0.66181  1.0000
  O   O17       1.0  0.31543  0.19089  0.78611  1.0000
  O   O18       1.0  0.81544  0.30911  0.21389  1.0000
  O   O19       1.0  0.18456  0.80911  0.28611  1.0000
  O   O20       1.0  0.68457  0.69089  0.71390  1.0000
  O   O21       1.0  0.17987  0.88190  0.74599  1.0000
  O   O22       1.0  0.67987  0.61810  0.25401  1.0000
  O   O23       1.0  0.32013  0.11809  0.24599  1.0000
  O   O24       1.0  0.82013  0.38190  0.75401  1.0000
