data_image0
_chemical_formula_structural       Cd2H32C28S2N4O12
_chemical_formula_sum              "Cd2 H32 C28 S2 N4 O12"
_cell_length_a       7.05262
_cell_length_b       10.5958
_cell_length_c       10.5958
_cell_angle_alpha    88.0929
_cell_angle_beta     74.6778
_cell_angle_gamma    74.6771

_space_group_name_H-M_alt    "P 1"
_space_group_IT_number       1

loop_
  _space_group_symop_operation_xyz
  'x, y, z'

loop_
  _atom_site_type_symbol
  _atom_site_label
  _atom_site_symmetry_multiplicity
  _atom_site_fract_x
  _atom_site_fract_y
  _atom_site_fract_z
  _atom_site_occupancy
  Cd  Cd1       1.0  0.25000  0.29732  0.70268  1.0000
  Cd  Cd2       1.0  0.75000  0.70268  0.29732  1.0000
  H   H1        1.0  0.23875  0.79250  0.61173  1.0000
  H   H2        1.0  0.73873  0.61174  0.79250  1.0000
  H   H3        1.0  0.76126  0.20750  0.38827  1.0000
  H   H4        1.0  0.26126  0.38826  0.20750  1.0000
  H   H5        1.0  0.24396  0.72155  0.83786  1.0000
  H   H6        1.0  0.74395  0.83786  0.72155  1.0000
  H   H7        1.0  0.75606  0.27845  0.16214  1.0000
  H   H8        1.0  0.25604  0.16214  0.27845  1.0000
  H   H9        1.0  0.24401  0.77693  0.06407  1.0000
  H   H10       1.0  0.74400  0.06407  0.77692  1.0000
  H   H11       1.0  0.75600  0.22307  0.93593  1.0000
  H   H12       1.0  0.25599  0.93593  0.22308  1.0000
  H   H13       1.0  0.15589  0.52324  0.90992  1.0000
  H   H14       1.0  0.65589  0.90993  0.52324  1.0000
  H   H15       1.0  0.84410  0.47676  0.09008  1.0000
  H   H16       1.0  0.34411  0.09007  0.47675  1.0000
  H   H17       1.0  0.41608  0.48018  0.90485  1.0000
  H   H18       1.0  0.91608  0.90485  0.48019  1.0000
  H   H19       1.0  0.58391  0.51982  0.09515  1.0000
  H   H20       1.0  0.08392  0.09515  0.51981  1.0000
  H   H21       1.0  0.23210  0.54810  0.05385  1.0000
  H   H22       1.0  0.73209  0.05386  0.54811  1.0000
  H   H23       1.0  0.76790  0.45190  0.94615  1.0000
  H   H24       1.0  0.26791  0.94615  0.45189  1.0000
  H   H25       1.0  0.18561  0.56511  0.61400  1.0000
  H   H26       1.0  0.68561  0.61400  0.56511  1.0000
  H   H27       1.0  0.81439  0.43489  0.38600  1.0000
  H   H28       1.0  0.31439  0.38600  0.43489  1.0000
  H   H29       1.0  0.37279  0.51801  0.67736  1.0000
  H   H30       1.0  0.87279  0.67736  0.51801  1.0000
  H   H31       1.0  0.62721  0.48199  0.32264  1.0000
  H   H32       1.0  0.12721  0.32264  0.48199  1.0000
  C   C1        1.0  0.24555  0.98963  0.65165  1.0000
  C   C2        1.0  0.74554  0.65165  0.98963  1.0000
  C   C3        1.0  0.75445  0.01037  0.34835  1.0000
  C   C4        1.0  0.25445  0.34835  0.01038  1.0000
  C   C5        1.0  0.24358  0.85986  0.68551  1.0000
  C   C6        1.0  0.74357  0.68551  0.85986  1.0000
  C   C7        1.0  0.75642  0.14013  0.31449  1.0000
  C   C8        1.0  0.25642  0.31449  0.14014  1.0000
  C   C9        1.0  0.24566  0.82136  0.81042  1.0000
  C   C10       1.0  0.74564  0.81042  0.82136  1.0000
  C   C11       1.0  0.75436  0.17864  0.18958  1.0000
  C   C12       1.0  0.25435  0.18958  0.17864  1.0000
  C   C13       1.0  0.24752  0.91195  0.90422  1.0000
  C   C14       1.0  0.74751  0.90422  0.91195  1.0000
  C   C15       1.0  0.75248  0.08805  0.09578  1.0000
  C   C16       1.0  0.25248  0.09578  0.08805  1.0000
  C   C17       1.0  0.25027  0.04112  0.86357  1.0000
  C   C18       1.0  0.75026  0.86357  0.04112  1.0000
  C   C19       1.0  0.74973  0.95888  0.13643  1.0000
  C   C20       1.0  0.24973  0.13643  0.95888  1.0000
  C   C21       1.0  0.25226  0.96479  0.12388  1.0000
  C   C22       1.0  0.75226  0.12387  0.96479  1.0000
  C   C23       1.0  0.74774  0.03521  0.87612  1.0000
  C   C24       1.0  0.24775  0.87612  0.03521  1.0000
  C   C25       1.0  0.26348  0.48305  0.96826  1.0000
  C   C26       1.0  0.76348  0.96826  0.48305  1.0000
  C   C27       1.0  0.73651  0.51695  0.03174  1.0000
  C   C28       1.0  0.23653  0.03174  0.51695  1.0000
  S   S1        1.0  0.75001  0.35690  0.64310  1.0000
  S   S2        1.0  0.25000  0.64310  0.35690  1.0000
  N   N1        1.0  0.25233  0.07640  0.73860  1.0000
  N   N2        1.0  0.75232  0.73860  0.07640  1.0000
  N   N3        1.0  0.74767  0.92360  0.26140  1.0000
  N   N4        1.0  0.24767  0.26140  0.92360  1.0000
  O   O1        1.0  0.88147  0.33382  0.73479  1.0000
  O   O2        1.0  0.38147  0.73479  0.33382  1.0000
  O   O3        1.0  0.11853  0.66619  0.26521  1.0000
  O   O4        1.0  0.61854  0.26521  0.66619  1.0000
  O   O5        1.0  0.61830  0.49580  0.66232  1.0000
  O   O6        1.0  0.11830  0.66232  0.49580  1.0000
  O   O7        1.0  0.38171  0.50420  0.33768  1.0000
  O   O8        1.0  0.88171  0.33767  0.50420  1.0000
  O   O9        1.0  0.22622  0.51946  0.69051  1.0000
  O   O10       1.0  0.72621  0.69052  0.51946  1.0000
  O   O11       1.0  0.77379  0.48054  0.30949  1.0000
  O   O12       1.0  0.27379  0.30949  0.48054  1.0000
