data_image0
_chemical_formula_structural       MnH20C20N8O4
_chemical_formula_sum              "Mn1 H20 C20 N8 O4"
_cell_length_a       8.13036
_cell_length_b       8.44194
_cell_length_c       8.87454
_cell_angle_alpha    72.9896
_cell_angle_beta     64.8179
_cell_angle_gamma    76.9026

_space_group_name_H-M_alt    "P 1"
_space_group_IT_number       1

loop_
  _space_group_symop_operation_xyz
  'x, y, z'

loop_
  _atom_site_type_symbol
  _atom_site_label
  _atom_site_symmetry_multiplicity
  _atom_site_fract_x
  _atom_site_fract_y
  _atom_site_fract_z
  _atom_site_occupancy
  Mn  Mn1       1.0  0.50000  0.50000  0.50000  1.0000
  H   H1        1.0  0.55380  0.29764  0.88946  1.0000
  H   H2        1.0  0.44620  0.70237  0.11054  1.0000
  H   H3        1.0  0.98715  0.35234  0.77087  1.0000
  H   H4        1.0  0.01284  0.64766  0.22913  1.0000
  H   H5        1.0  0.98682  0.14878  0.09330  1.0000
  H   H6        1.0  0.01318  0.85123  0.90669  1.0000
  H   H7        1.0  0.86565  0.28971  0.57113  1.0000
  H   H8        1.0  0.13435  0.71029  0.42887  1.0000
  H   H9        1.0  0.24992  0.90348  0.97108  1.0000
  H   H10       1.0  0.75009  0.09652  0.02892  1.0000
  H   H11       1.0  0.81676  0.62529  0.86456  1.0000
  H   H12       1.0  0.18323  0.37471  0.13546  1.0000
  H   H13       1.0  0.82964  0.43128  0.14601  1.0000
  H   H14       1.0  0.17036  0.56872  0.85399  1.0000
  H   H15       1.0  0.55490  0.73032  0.72258  1.0000
  H   H16       1.0  0.44510  0.26968  0.27743  1.0000
  H   H17       1.0  0.58696  0.08493  0.60323  1.0000
  H   H18       1.0  0.41304  0.91507  0.39676  1.0000
  H   H19       1.0  0.85533  0.91398  0.36641  1.0000
  H   H20       1.0  0.14467  0.08602  0.63359  1.0000
  C   C1        1.0  0.53263  0.16666  0.93616  1.0000
  C   C2        1.0  0.46737  0.83334  0.06384  1.0000
  C   C3        1.0  0.28060  0.23357  0.82761  1.0000
  C   C4        1.0  0.71940  0.76643  0.17239  1.0000
  C   C5        1.0  0.81617  0.39630  0.62959  1.0000
  C   C6        1.0  0.18383  0.60370  0.37041  1.0000
  C   C7        1.0  0.39076  0.11372  0.91902  1.0000
  C   C8        1.0  0.60923  0.88628  0.08098  1.0000
  C   C9        1.0  0.35847  0.94568  0.98525  1.0000
  C   C10       1.0  0.64153  0.05432  0.01475  1.0000
  C   C11       1.0  0.78718  0.57187  0.78317  1.0000
  C   C12       1.0  0.21282  0.42813  0.21683  1.0000
  C   C13       1.0  0.79950  0.31560  0.24014  1.0000
  C   C14       1.0  0.20050  0.68440  0.75986  1.0000
  C   C15       1.0  0.65852  0.62333  0.71109  1.0000
  C   C16       1.0  0.34147  0.37667  0.28892  1.0000
  C   C17       1.0  0.67780  0.13242  0.47365  1.0000
  C   C18       1.0  0.32220  0.86758  0.52635  1.0000
  C   C19       1.0  0.81205  0.04612  0.35823  1.0000
  C   C20       1.0  0.18795  0.95388  0.64176  1.0000
  N   N1        1.0  0.67712  0.51184  0.61577  1.0000
  N   N2        1.0  0.32289  0.48816  0.38422  1.0000
  N   N3        1.0  0.67086  0.30177  0.39852  1.0000
  N   N4        1.0  0.32914  0.69823  0.60148  1.0000
  N   N5        1.0  0.88542  0.42866  0.73011  1.0000
  N   N6        1.0  0.11458  0.57134  0.26989  1.0000
  N   N7        1.0  0.88720  0.16381  0.21199  1.0000
  N   N8        1.0  0.11280  0.83619  0.78801  1.0000
  O   O1        1.0  0.11117  0.21559  0.87550  1.0000
  O   O2        1.0  0.88884  0.78440  0.12450  1.0000
  O   O3        1.0  0.35884  0.35018  0.70606  1.0000
  O   O4        1.0  0.64116  0.64982  0.29394  1.0000
