data_image0
_chemical_formula_structural       Zn2H56C60N8O8
_chemical_formula_sum              "Zn2 H56 C60 N8 O8"
_cell_length_a       7.88188
_cell_length_b       8.11056
_cell_length_c       22.4741
_cell_angle_alpha    88.319
_cell_angle_beta     82.6196
_cell_angle_gamma    83.1082

_space_group_name_H-M_alt    "P 1"
_space_group_IT_number       1

loop_
  _space_group_symop_operation_xyz
  'x, y, z'

loop_
  _atom_site_type_symbol
  _atom_site_label
  _atom_site_symmetry_multiplicity
  _atom_site_fract_x
  _atom_site_fract_y
  _atom_site_fract_z
  _atom_site_occupancy
  Zn  Zn1       1.0  0.61574  0.60034  0.55700  1.0000
  Zn  Zn2       1.0  0.38426  0.39966  0.44300  1.0000
  H   H1        1.0  0.34105  0.68152  0.66702  1.0000
  H   H2        1.0  0.65895  0.31848  0.33298  1.0000
  H   H3        1.0  0.25871  0.57621  0.77253  1.0000
  H   H4        1.0  0.74130  0.42380  0.22747  1.0000
  H   H5        1.0  0.64292  0.15473  0.73202  1.0000
  H   H6        1.0  0.35708  0.84527  0.26798  1.0000
  H   H7        1.0  0.70666  0.27765  0.62938  1.0000
  H   H8        1.0  0.29333  0.72235  0.37061  1.0000
  H   H9        1.0  0.48439  0.16907  0.83067  1.0000
  H   H10       1.0  0.51563  0.83094  0.16933  1.0000
  H   H11       1.0  0.26320  0.04531  0.88379  1.0000
  H   H12       1.0  0.73682  0.95468  0.11621  1.0000
  H   H13       1.0  0.19330  0.91400  0.98218  1.0000
  H   H14       1.0  0.80673  0.08600  0.01783  1.0000
  H   H15       1.0  0.18803  0.38484  0.06694  1.0000
  H   H16       1.0  0.81196  0.61517  0.93306  1.0000
  H   H17       1.0  0.39479  0.59419  0.96888  1.0000
  H   H18       1.0  0.60522  0.40582  0.03111  1.0000
  H   H19       1.0  0.17955  0.63494  0.00482  1.0000
  H   H20       1.0  0.82046  0.36507  0.99517  1.0000
  H   H21       1.0  0.22336  0.62311  0.92490  1.0000
  H   H22       1.0  0.77665  0.37688  0.07510  1.0000
  H   H23       1.0  0.99794  0.28528  0.13156  1.0000
  H   H24       1.0  0.00206  0.71472  0.86844  1.0000
  H   H25       1.0  0.90865  0.15097  0.22814  1.0000
  H   H26       1.0  0.09135  0.84903  0.77186  1.0000
  H   H27       1.0  0.26668  0.81714  0.06731  1.0000
  H   H28       1.0  0.73333  0.18287  0.93269  1.0000
  H   H29       1.0  0.05884  0.56306  0.15600  1.0000
  H   H30       1.0  0.94116  0.43695  0.84400  1.0000
  H   H31       1.0  0.19409  0.59484  0.21029  1.0000
  H   H32       1.0  0.80591  0.40516  0.78971  1.0000
  H   H33       1.0  0.28198  0.57618  0.13288  1.0000
  H   H34       1.0  0.71802  0.42381  0.86713  1.0000
  H   H35       1.0  0.91960  0.53124  0.45553  1.0000
  H   H36       1.0  0.08040  0.46876  0.54447  1.0000
  H   H37       1.0  0.01119  0.61901  0.35143  1.0000
  H   H38       1.0  0.98879  0.38098  0.64856  1.0000
  H   H39       1.0  0.56900  0.99749  0.36876  1.0000
  H   H40       1.0  0.43101  0.00251  0.63124  1.0000
  H   H41       1.0  0.49856  0.89476  0.47215  1.0000
  H   H42       1.0  0.50143  0.10525  0.52785  1.0000
  H   H43       1.0  0.74215  0.97279  0.27386  1.0000
  H   H44       1.0  0.25786  0.02722  0.72614  1.0000
  H   H45       1.0  0.93497  0.91291  0.68234  1.0000
  H   H46       1.0  0.06501  0.08710  0.31767  1.0000
  H   H47       1.0  0.06544  0.74286  0.64282  1.0000
  H   H48       1.0  0.93455  0.25715  0.35719  1.0000
  H   H49       1.0  0.92588  0.70609  0.70947  1.0000
  H   H50       1.0  0.07411  0.29391  0.29054  1.0000
  H   H51       1.0  0.98778  0.19044  0.47927  1.0000
  H   H52       1.0  0.01221  0.80955  0.52074  1.0000
  H   H53       1.0  0.87048  0.05474  0.44303  1.0000
  H   H54       1.0  0.12951  0.94525  0.55697  1.0000
  H   H55       1.0  0.84976  0.06415  0.52316  1.0000
  H   H56       1.0  0.15022  0.93584  0.47684  1.0000
  C   C1        1.0  0.40358  0.56569  0.68396  1.0000
  C   C2        1.0  0.59641  0.43430  0.31604  1.0000
  C   C3        1.0  0.35906  0.50762  0.74188  1.0000
  C   C4        1.0  0.64094  0.49237  0.25812  1.0000
  C   C5        1.0  0.44589  0.35781  0.76102  1.0000
  C   C6        1.0  0.55411  0.64218  0.23898  1.0000
  C   C7        1.0  0.57291  0.27261  0.71993  1.0000
  C   C8        1.0  0.42710  0.72739  0.28006  1.0000
  C   C9        1.0  0.60920  0.33996  0.66269  1.0000
  C   C10       1.0  0.39079  0.66004  0.33731  1.0000
  C   C11       1.0  0.41042  0.28975  0.82169  1.0000
  C   C12       1.0  0.58959  0.71025  0.17831  1.0000
  C   C13       1.0  0.27064  0.28928  0.91894  1.0000
  C   C14       1.0  0.72938  0.71072  0.08106  1.0000
  C   C15       1.0  0.25404  0.11830  0.92431  1.0000
  C   C16       1.0  0.74598  0.88169  0.07569  1.0000
  C   C17       1.0  0.21406  0.04445  0.97991  1.0000
  C   C18       1.0  0.78596  0.95556  0.02010  1.0000
  C   C19       1.0  0.18943  0.13823  0.03269  1.0000
  C   C20       1.0  0.81058  0.86178  0.96732  1.0000
  C   C21       1.0  0.20554  0.30906  0.02679  1.0000
  C   C22       1.0  0.79446  0.69096  0.97321  1.0000
  C   C23       1.0  0.24384  0.38710  0.97128  1.0000
  C   C24       1.0  0.75617  0.61291  0.02871  1.0000
  C   C25       1.0  0.26082  0.56973  0.96739  1.0000
  C   C26       1.0  0.73918  0.43028  0.03261  1.0000
  C   C27       1.0  0.13816  0.06062  0.09134  1.0000
  C   C28       1.0  0.86184  0.93938  0.90866  1.0000
  C   C29       1.0  0.03675  0.15292  0.13789  1.0000
  C   C30       1.0  0.96326  0.84708  0.86211  1.0000
  C   C31       1.0  0.98276  0.07681  0.19194  1.0000
  C   C32       1.0  0.01724  0.92319  0.80806  1.0000
  C   C33       1.0  0.02632  0.90538  0.20174  1.0000
  C   C34       1.0  0.97369  0.09462  0.79826  1.0000
  C   C35       1.0  0.12927  0.81006  0.15562  1.0000
  C   C36       1.0  0.87074  0.18993  0.84438  1.0000
  C   C37       1.0  0.18398  0.89021  0.10207  1.0000
  C   C38       1.0  0.81603  0.10979  0.89793  1.0000
  C   C39       1.0  0.17001  0.62598  0.16402  1.0000
  C   C40       1.0  0.83000  0.37402  0.83598  1.0000
  C   C41       1.0  0.84486  0.63414  0.43500  1.0000
  C   C42       1.0  0.15514  0.36586  0.56499  1.0000
  C   C43       1.0  0.89646  0.68372  0.37654  1.0000
  C   C44       1.0  0.10354  0.31628  0.62346  1.0000
  C   C45       1.0  0.79713  0.81556  0.35066  1.0000
  C   C46       1.0  0.20287  0.18445  0.64934  1.0000
  C   C47       1.0  0.65151  0.89363  0.38575  1.0000
  C   C48       1.0  0.34849  0.10638  0.61425  1.0000
  C   C49       1.0  0.61069  0.83593  0.44397  1.0000
  C   C50       1.0  0.38931  0.16407  0.55603  1.0000
  C   C51       1.0  0.83960  0.87771  0.28961  1.0000
  C   C52       1.0  0.16040  0.12229  0.71039  1.0000
  C   C53       1.0  0.79221  0.76464  0.63348  1.0000
  C   C54       1.0  0.20777  0.23535  0.36653  1.0000
  C   C55       1.0  0.94062  0.78379  0.66858  1.0000
  C   C56       1.0  0.05936  0.21621  0.33142  1.0000
  C   C57       1.0  0.72037  0.27396  0.48315  1.0000
  C   C58       1.0  0.27963  0.72604  0.51685  1.0000
  C   C59       1.0  0.86614  0.13630  0.48118  1.0000
  C   C60       1.0  0.13384  0.86368  0.51882  1.0000
  N   N1        1.0  0.52672  0.48382  0.64475  1.0000
  N   N2        1.0  0.47327  0.51617  0.35524  1.0000
  N   N3        1.0  0.30446  0.36679  0.86298  1.0000
  N   N4        1.0  0.69554  0.63320  0.13702  1.0000
  N   N5        1.0  0.70280  0.70753  0.46850  1.0000
  N   N6        1.0  0.29720  0.29248  0.53150  1.0000
  N   N7        1.0  0.98124  0.82780  0.25670  1.0000
  N   N8        1.0  0.01875  0.17220  0.74329  1.0000
  O   O1        1.0  0.70363  0.37001  0.52761  1.0000
  O   O2        1.0  0.29638  0.62999  0.47239  1.0000
  O   O3        1.0  0.82397  0.65285  0.59210  1.0000
  O   O4        1.0  0.17602  0.34715  0.40790  1.0000
  O   O5        1.0  0.62312  0.28151  0.44167  1.0000
  O   O6        1.0  0.37687  0.71848  0.55833  1.0000
  O   O7        1.0  0.65032  0.85092  0.64646  1.0000
  O   O8        1.0  0.34966  0.14906  0.35356  1.0000
