data_image0
_chemical_formula_structural       Cu2H16C12N24Cl4O8
_chemical_formula_sum              "Cu2 H16 C12 N24 Cl4 O8"
_cell_length_a       6.4847
_cell_length_b       9.89051
_cell_length_c       11.1903
_cell_angle_alpha    90.5857
_cell_angle_beta     89.9993
_cell_angle_gamma    90.0001

_space_group_name_H-M_alt    "P 1"
_space_group_IT_number       1

loop_
  _space_group_symop_operation_xyz
  'x, y, z'

loop_
  _atom_site_type_symbol
  _atom_site_label
  _atom_site_symmetry_multiplicity
  _atom_site_fract_x
  _atom_site_fract_y
  _atom_site_fract_z
  _atom_site_occupancy
  Cu  Cu1       1.0  0.50000  0.00000  1.00000  1.0000
  Cu  Cu2       1.0  0.00000  0.50000  1.00000  1.0000
  H   H1        1.0  0.99665  0.79653  0.38180  1.0000
  H   H2        1.0  0.49664  0.70348  0.61820  1.0000
  H   H3        1.0  0.00336  0.20347  0.61820  1.0000
  H   H4        1.0  0.50335  0.29653  0.38180  1.0000
  H   H5        1.0  0.85765  0.78971  0.24488  1.0000
  H   H6        1.0  0.35765  0.71029  0.75512  1.0000
  H   H7        1.0  0.14235  0.21029  0.75512  1.0000
  H   H8        1.0  0.64235  0.28970  0.24488  1.0000
  H   H9        1.0  0.67974  0.01082  0.30047  1.0000
  H   H10       1.0  0.17974  0.48917  0.69953  1.0000
  H   H11       1.0  0.32026  0.98918  0.69953  1.0000
  H   H12       1.0  0.82025  0.51083  0.30047  1.0000
  H   H13       1.0  0.80056  0.00508  0.44451  1.0000
  H   H14       1.0  0.30057  0.49492  0.55549  1.0000
  H   H15       1.0  0.19944  0.99492  0.55549  1.0000
  H   H16       1.0  0.69943  0.50508  0.44451  1.0000
  C   C1        1.0  0.92042  0.85780  0.31354  1.0000
  C   C2        1.0  0.42042  0.64220  0.68646  1.0000
  C   C3        1.0  0.07958  0.14221  0.68646  1.0000
  C   C4        1.0  0.57958  0.35780  0.31354  1.0000
  C   C5        1.0  0.15436  0.92285  0.14247  1.0000
  C   C6        1.0  0.65436  0.57715  0.85753  1.0000
  C   C7        1.0  0.84564  0.07715  0.85753  1.0000
  C   C8        1.0  0.34564  0.42285  0.14247  1.0000
  C   C9        1.0  0.74963  0.94493  0.36732  1.0000
  C   C10       1.0  0.24962  0.55506  0.63268  1.0000
  C   C11       1.0  0.25037  0.05507  0.63268  1.0000
  C   C12       1.0  0.75037  0.44494  0.36732  1.0000
  N   N1        1.0  0.07829  0.93837  0.25481  1.0000
  N   N2        1.0  0.57829  0.56163  0.74519  1.0000
  N   N3        1.0  0.92171  0.06163  0.74519  1.0000
  N   N4        1.0  0.42170  0.43837  0.25481  1.0000
  N   N5        1.0  0.07631  0.82826  0.06739  1.0000
  N   N6        1.0  0.57630  0.67174  0.93261  1.0000
  N   N7        1.0  0.92369  0.17174  0.93261  1.0000
  N   N8        1.0  0.42370  0.32826  0.06739  1.0000
  N   N9        1.0  0.18645  0.03666  0.31208  1.0000
  N   N10       1.0  0.68645  0.46335  0.68792  1.0000
  N   N11       1.0  0.81355  0.96334  0.68792  1.0000
  N   N12       1.0  0.31355  0.53665  0.31208  1.0000
  N   N13       1.0  0.14094  0.82449  0.95684  1.0000
  N   N14       1.0  0.64094  0.67551  0.04316  1.0000
  N   N15       1.0  0.85906  0.17551  0.04316  1.0000
  N   N16       1.0  0.35906  0.32449  0.95684  1.0000
  N   N17       1.0  0.30918  0.01288  0.13266  1.0000
  N   N18       1.0  0.80917  0.48712  0.86734  1.0000
  N   N19       1.0  0.69083  0.98712  0.86734  1.0000
  N   N20       1.0  0.19083  0.51288  0.13266  1.0000
  N   N21       1.0  0.32416  0.08098  0.23844  1.0000
  N   N22       1.0  0.82415  0.41902  0.76156  1.0000
  N   N23       1.0  0.67584  0.91902  0.76156  1.0000
  N   N24       1.0  0.17585  0.58098  0.23844  1.0000
  Cl  Cl1       1.0  0.55310  0.83308  0.41900  1.0000
  Cl  Cl2       1.0  0.05310  0.66692  0.58101  1.0000
  Cl  Cl3       1.0  0.44690  0.16692  0.58101  1.0000
  Cl  Cl4       1.0  0.94690  0.33308  0.41899  1.0000
  O   O1        1.0  0.07131  0.73389  0.88912  1.0000
  O   O2        1.0  0.57132  0.76610  0.11087  1.0000
  O   O3        1.0  0.92869  0.26611  0.11088  1.0000
  O   O4        1.0  0.42868  0.23390  0.88913  1.0000
  O   O5        1.0  0.26935  0.91116  0.91006  1.0000
  O   O6        1.0  0.76934  0.58882  0.08993  1.0000
  O   O7        1.0  0.73066  0.08883  0.08994  1.0000
  O   O8        1.0  0.23066  0.41118  0.91007  1.0000
