data_image0
_chemical_formula_structural       K4H56C52S4N4O28
_chemical_formula_sum              "K4 H56 C52 S4 N4 O28"
_cell_length_a       8.21112
_cell_length_b       10.2998
_cell_length_c       17.7181
_cell_angle_alpha    92.2069
_cell_angle_beta     94.7965
_cell_angle_gamma    93.5684

_space_group_name_H-M_alt    "P 1"
_space_group_IT_number       1

loop_
  _space_group_symop_operation_xyz
  'x, y, z'

loop_
  _atom_site_type_symbol
  _atom_site_label
  _atom_site_symmetry_multiplicity
  _atom_site_fract_x
  _atom_site_fract_y
  _atom_site_fract_z
  _atom_site_occupancy
  K   K1        1.0  0.57842  0.17539  0.96724  1.0000
  K   K2        1.0  0.42157  0.82460  0.03276  1.0000
  K   K3        1.0  0.10666  0.26716  0.95813  1.0000
  K   K4        1.0  0.89335  0.73283  0.04186  1.0000
  H   H1        1.0  0.27532  0.60877  0.60255  1.0000
  H   H2        1.0  0.72468  0.39124  0.39745  1.0000
  H   H3        1.0  0.18361  0.58070  0.73125  1.0000
  H   H4        1.0  0.81638  0.41930  0.26875  1.0000
  H   H5        1.0  0.92568  0.21460  0.65439  1.0000
  H   H6        1.0  0.07433  0.78540  0.34561  1.0000
  H   H7        1.0  0.28401  0.53574  0.47316  1.0000
  H   H8        1.0  0.71600  0.46426  0.52684  1.0000
  H   H9        1.0  0.03868  0.22741  0.30698  1.0000
  H   H10       1.0  0.96132  0.77259  0.69302  1.0000
  H   H11       1.0  0.12329  0.23575  0.17594  1.0000
  H   H12       1.0  0.87670  0.76425  0.82406  1.0000
  H   H13       1.0  0.51477  0.52106  0.25343  1.0000
  H   H14       1.0  0.48523  0.47893  0.74657  1.0000
  H   H15       1.0  0.43116  0.51227  0.38369  1.0000
  H   H16       1.0  0.56884  0.48774  0.61631  1.0000
  H   H17       1.0  0.79489  0.91591  0.59249  1.0000
  H   H18       1.0  0.20511  0.08409  0.40751  1.0000
  H   H19       1.0  0.71617  0.95344  0.72370  1.0000
  H   H20       1.0  0.28383  0.04656  0.27630  1.0000
  H   H21       1.0  0.44131  0.27713  0.64995  1.0000
  H   H22       1.0  0.55869  0.72288  0.35004  1.0000
  H   H23       1.0  0.79143  0.96944  0.46487  1.0000
  H   H24       1.0  0.20857  0.03056  0.53513  1.0000
  H   H25       1.0  0.56562  0.24965  0.30099  1.0000
  H   H26       1.0  0.43438  0.75035  0.69901  1.0000
  H   H27       1.0  0.64430  0.22620  0.16910  1.0000
  H   H28       1.0  0.35569  0.77380  0.83089  1.0000
  H   H29       1.0  0.96520  0.92809  0.23698  1.0000
  H   H30       1.0  0.03480  0.07191  0.76301  1.0000
  H   H31       1.0  0.89359  0.95529  0.36853  1.0000
  H   H32       1.0  0.10642  0.04471  0.63147  1.0000
  H   H33       1.0  0.40679  0.37337  0.86512  1.0000
  H   H34       1.0  0.59320  0.62663  0.13488  1.0000
  H   H35       1.0  0.82987  0.30946  0.83665  1.0000
  H   H36       1.0  0.17013  0.69054  0.16335  1.0000
  H   H37       1.0  0.79269  0.00204  0.87440  1.0000
  H   H38       1.0  0.20731  0.99796  0.12560  1.0000
  H   H39       1.0  0.24438  0.55046  0.88199  1.0000
  H   H40       1.0  0.75562  0.44955  0.11801  1.0000
  H   H41       1.0  0.39636  0.23792  0.82071  1.0000
  H   H42       1.0  0.60362  0.76207  0.17929  1.0000
  H   H43       1.0  0.78609  0.39948  0.90355  1.0000
  H   H44       1.0  0.21390  0.60052  0.09645  1.0000
  H   H45       1.0  0.63859  0.90316  0.87576  1.0000
  H   H46       1.0  0.36141  0.09684  0.12424  1.0000
  H   H47       1.0  0.09453  0.63397  0.88942  1.0000
  H   H48       1.0  0.90547  0.36603  0.11059  1.0000
  H   H49       1.0  0.04275  0.45162  0.80708  1.0000
  H   H50       1.0  0.95724  0.54838  0.19292  1.0000
  H   H51       1.0  0.07435  0.25267  0.46936  1.0000
  H   H52       1.0  0.92566  0.74733  0.53064  1.0000
  H   H53       1.0  0.58344  0.07522  0.80081  1.0000
  H   H54       1.0  0.41656  0.92478  0.19919  1.0000
  H   H55       1.0  0.56841  0.22586  0.46095  1.0000
  H   H56       1.0  0.43159  0.77414  0.53905  1.0000
  C   C1        1.0  0.20286  0.52095  0.61481  1.0000
  C   C2        1.0  0.79714  0.47905  0.38519  1.0000
  C   C3        1.0  0.15198  0.50610  0.68641  1.0000
  C   C4        1.0  0.84801  0.49390  0.31359  1.0000
  C   C5        1.0  0.05063  0.39517  0.70058  1.0000
  C   C6        1.0  0.94937  0.60483  0.29942  1.0000
  C   C7        1.0  0.00562  0.29902  0.64347  1.0000
  C   C8        1.0  0.99438  0.70098  0.35653  1.0000
  C   C9        1.0  0.06331  0.31181  0.57186  1.0000
  C   C10       1.0  0.93669  0.68819  0.42814  1.0000
  C   C11       1.0  0.16153  0.42568  0.55582  1.0000
  C   C12       1.0  0.83848  0.57432  0.44418  1.0000
  C   C13       1.0  0.21314  0.44415  0.48178  1.0000
  C   C14       1.0  0.78687  0.55585  0.51822  1.0000
  C   C15       1.0  0.22700  0.36988  0.35445  1.0000
  C   C16       1.0  0.77300  0.63012  0.64555  1.0000
  C   C17       1.0  0.14275  0.29169  0.29473  1.0000
  C   C18       1.0  0.85725  0.70832  0.70527  1.0000
  C   C19       1.0  0.19017  0.29630  0.22151  1.0000
  C   C20       1.0  0.80983  0.70370  0.77849  1.0000
  C   C21       1.0  0.32430  0.37943  0.20659  1.0000
  C   C22       1.0  0.67570  0.62057  0.79341  1.0000
  C   C23       1.0  0.40892  0.45825  0.26494  1.0000
  C   C24       1.0  0.59108  0.54175  0.73506  1.0000
  C   C25       1.0  0.36131  0.45304  0.33839  1.0000
  C   C26       1.0  0.63869  0.54696  0.66161  1.0000
  C   C27       1.0  0.72057  0.99642  0.60590  1.0000
  C   C28       1.0  0.27944  0.00358  0.39409  1.0000
  C   C29       1.0  0.67771  0.01679  0.67879  1.0000
  C   C30       1.0  0.32229  0.98321  0.32121  1.0000
  C   C31       1.0  0.57654  0.11883  0.69449  1.0000
  C   C32       1.0  0.42347  0.88118  0.30551  1.0000
  C   C33       1.0  0.52183  0.20027  0.63764  1.0000
  C   C34       1.0  0.47817  0.79974  0.36236  1.0000
  C   C35       1.0  0.57004  0.18170  0.56435  1.0000
  C   C36       1.0  0.42996  0.81829  0.43564  1.0000
  C   C37       1.0  0.66997  0.07737  0.54729  1.0000
  C   C38       1.0  0.33004  0.92263  0.45271  1.0000
  C   C39       1.0  0.71787  0.05363  0.47279  1.0000
  C   C40       1.0  0.28213  0.94638  0.52721  1.0000
  C   C41       1.0  0.72381  0.10549  0.34443  1.0000
  C   C42       1.0  0.27619  0.89451  0.65557  1.0000
  C   C43       1.0  0.65474  0.18056  0.28671  1.0000
  C   C44       1.0  0.34526  0.81944  0.71329  1.0000
  C   C45       1.0  0.69820  0.16696  0.21295  1.0000
  C   C46       1.0  0.30179  0.83304  0.78705  1.0000
  C   C47       1.0  0.81043  0.07607  0.19506  1.0000
  C   C48       1.0  0.18956  0.92393  0.80493  1.0000
  C   C49       1.0  0.87849  0.99907  0.25126  1.0000
  C   C50       1.0  0.12150  0.00093  0.74874  1.0000
  C   C51       1.0  0.83681  0.01454  0.32542  1.0000
  C   C52       1.0  0.16320  0.98547  0.67458  1.0000
  S   S1        1.0  0.38380  0.38406  0.11301  1.0000
  S   S2        1.0  0.61621  0.61593  0.88699  1.0000
  S   S3        1.0  0.86029  0.05725  0.10005  1.0000
  S   S4        1.0  0.13970  0.94276  0.89995  1.0000
  N   N1        1.0  0.17412  0.35667  0.42660  1.0000
  N   N2        1.0  0.82589  0.64333  0.57340  1.0000
  N   N3        1.0  0.67519  0.12788  0.41722  1.0000
  N   N4        1.0  0.32482  0.87212  0.58278  1.0000
  O   O1        1.0  0.99355  0.38044  0.76942  1.0000
  O   O2        1.0  0.00644  0.61955  0.23058  1.0000
  O   O3        1.0  0.02565  0.21714  0.51773  1.0000
  O   O4        1.0  0.97435  0.78286  0.48227  1.0000
  O   O5        1.0  0.39562  0.24844  0.08465  1.0000
  O   O6        1.0  0.60438  0.75156  0.91535  1.0000
  O   O7        1.0  0.25551  0.44649  0.06691  1.0000
  O   O8        1.0  0.74450  0.55351  0.93309  1.0000
  O   O9        1.0  0.54370  0.45883  0.11787  1.0000
  O   O10       1.0  0.45631  0.54116  0.88213  1.0000
  O   O11       1.0  0.52958  0.13824  0.76524  1.0000
  O   O12       1.0  0.47042  0.86176  0.23476  1.0000
  O   O13       1.0  0.52140  0.26169  0.50972  1.0000
  O   O14       1.0  0.47860  0.73831  0.49028  1.0000
  O   O15       1.0  0.00274  0.97672  0.10180  1.0000
  O   O16       1.0  0.99726  0.02329  0.89819  1.0000
  O   O17       1.0  0.71615  0.99144  0.05633  1.0000
  O   O18       1.0  0.28384  0.00856  0.94367  1.0000
  O   O19       1.0  0.89678  0.18997  0.07381  1.0000
  O   O20       1.0  0.10321  0.81003  0.92619  1.0000
  O   O21       1.0  0.35695  0.28382  0.86464  1.0000
  O   O22       1.0  0.64304  0.71617  0.13536  1.0000
  O   O23       1.0  0.80252  0.30745  0.88932  1.0000
  O   O24       1.0  0.19747  0.69255  0.11068  1.0000
  O   O25       1.0  0.67155  0.99355  0.86425  1.0000
  O   O26       1.0  0.32845  0.00645  0.13574  1.0000
  O   O27       1.0  0.12358  0.54399  0.87980  1.0000
  O   O28       1.0  0.87642  0.45601  0.12020  1.0000
