data_image0
_chemical_formula_structural       Zn4H24C32S8N16
_chemical_formula_sum              "Zn4 H24 C32 S8 N16"
_cell_length_a       7.7301
_cell_length_b       7.75777
_cell_length_c       16.5855
_cell_angle_alpha    89.9995
_cell_angle_beta     89.9998
_cell_angle_gamma    90.0002

_space_group_name_H-M_alt    "P 1"
_space_group_IT_number       1

loop_
  _space_group_symop_operation_xyz
  'x, y, z'

loop_
  _atom_site_type_symbol
  _atom_site_label
  _atom_site_symmetry_multiplicity
  _atom_site_fract_x
  _atom_site_fract_y
  _atom_site_fract_z
  _atom_site_occupancy
  Zn  Zn1       1.0  0.91916  0.43218  0.37582  1.0000
  Zn  Zn2       1.0  0.08084  0.93218  0.62418  1.0000
  Zn  Zn3       1.0  0.41916  0.43219  0.12419  1.0000
  Zn  Zn4       1.0  0.58083  0.93219  0.87582  1.0000
  H   H1        1.0  0.65494  0.97956  0.34211  1.0000
  H   H2        1.0  0.34506  0.47956  0.65789  1.0000
  H   H3        1.0  0.15493  0.97956  0.15789  1.0000
  H   H4        1.0  0.84507  0.47956  0.84210  1.0000
  H   H5        1.0  0.54106  0.05295  0.20245  1.0000
  H   H6        1.0  0.45894  0.55296  0.79755  1.0000
  H   H7        1.0  0.04106  0.05295  0.29755  1.0000
  H   H8        1.0  0.95894  0.55295  0.70244  1.0000
  H   H9        1.0  0.47028  0.80272  0.11139  1.0000
  H   H10       1.0  0.52973  0.30272  0.88860  1.0000
  H   H11       1.0  0.97028  0.80272  0.38861  1.0000
  H   H12       1.0  0.02973  0.30272  0.61139  1.0000
  H   H13       1.0  0.69667  0.86420  0.64670  1.0000
  H   H14       1.0  0.30334  0.36421  0.35330  1.0000
  H   H15       1.0  0.19664  0.86421  0.85330  1.0000
  H   H16       1.0  0.80333  0.36421  0.14670  1.0000
  H   H17       1.0  0.47490  0.69608  0.56735  1.0000
  H   H18       1.0  0.52511  0.19609  0.43266  1.0000
  H   H19       1.0  0.97488  0.69608  0.93266  1.0000
  H   H20       1.0  0.02510  0.19608  0.06735  1.0000
  H   H21       1.0  0.58919  0.51407  0.45146  1.0000
  H   H22       1.0  0.41082  0.01408  0.54854  1.0000
  H   H23       1.0  0.08917  0.51409  0.04855  1.0000
  H   H24       1.0  0.91081  0.01408  0.95146  1.0000
  C   C1        1.0  0.62314  0.58918  0.26775  1.0000
  C   C2        1.0  0.37686  0.08919  0.73225  1.0000
  C   C3        1.0  0.12314  0.58918  0.23225  1.0000
  C   C4        1.0  0.87687  0.08917  0.76775  1.0000
  C   C5        1.0  0.62560  0.87968  0.29753  1.0000
  C   C6        1.0  0.37441  0.37969  0.70247  1.0000
  C   C7        1.0  0.12559  0.87969  0.20247  1.0000
  C   C8        1.0  0.87441  0.37968  0.79753  1.0000
  C   C9        1.0  0.56280  0.92056  0.22127  1.0000
  C   C10       1.0  0.43720  0.42056  0.77873  1.0000
  C   C11       1.0  0.06280  0.92055  0.27874  1.0000
  C   C12       1.0  0.93720  0.42055  0.72126  1.0000
  C   C13       1.0  0.52496  0.78252  0.17111  1.0000
  C   C14       1.0  0.47505  0.28254  0.82889  1.0000
  C   C15       1.0  0.02496  0.78252  0.32890  1.0000
  C   C16       1.0  0.97505  0.28252  0.67110  1.0000
  C   C17       1.0  0.96282  0.64442  0.52788  1.0000
  C   C18       1.0  0.03719  0.14442  0.47212  1.0000
  C   C19       1.0  0.46280  0.64442  0.97211  1.0000
  C   C20       1.0  0.53718  0.14442  0.02788  1.0000
  C   C21       1.0  0.73445  0.77360  0.59963  1.0000
  C   C22       1.0  0.26556  0.27362  0.40037  1.0000
  C   C23       1.0  0.23443  0.77362  0.90037  1.0000
  C   C24       1.0  0.76555  0.27362  0.09963  1.0000
  C   C25       1.0  0.61261  0.68173  0.55583  1.0000
  C   C26       1.0  0.38740  0.18175  0.44417  1.0000
  C   C27       1.0  0.11259  0.68174  0.94417  1.0000
  C   C28       1.0  0.88739  0.18175  0.05583  1.0000
  C   C29       1.0  0.67530  0.58129  0.49305  1.0000
  C   C30       1.0  0.32471  0.08130  0.50695  1.0000
  C   C31       1.0  0.17528  0.58131  0.00695  1.0000
  C   C32       1.0  0.82470  0.08130  0.99305  1.0000
  S   S1        1.0  0.67531  0.37903  0.29544  1.0000
  S   S2        1.0  0.32469  0.87904  0.70456  1.0000
  S   S3        1.0  0.17531  0.37903  0.20457  1.0000
  S   S4        1.0  0.82468  0.87903  0.79544  1.0000
  S   S5        1.0  0.17753  0.61504  0.51673  1.0000
  S   S6        1.0  0.82249  0.11503  0.48327  1.0000
  S   S7        1.0  0.67750  0.61504  0.98327  1.0000
  S   S8        1.0  0.32248  0.11504  0.01673  1.0000
  N   N1        1.0  0.55030  0.61747  0.19374  1.0000
  N   N2        1.0  0.44971  0.11748  0.80626  1.0000
  N   N3        1.0  0.05030  0.61747  0.30627  1.0000
  N   N4        1.0  0.94970  0.11747  0.69373  1.0000
  N   N5        1.0  0.65689  0.71738  0.32025  1.0000
  N   N6        1.0  0.34311  0.21738  0.67975  1.0000
  N   N7        1.0  0.15689  0.71738  0.17975  1.0000
  N   N8        1.0  0.84312  0.21737  0.82025  1.0000
  N   N9        1.0  0.84502  0.56347  0.47856  1.0000
  N   N10       1.0  0.15499  0.06347  0.52144  1.0000
  N   N11       1.0  0.34500  0.56348  0.02144  1.0000
  N   N12       1.0  0.65498  0.06348  0.97856  1.0000
  N   N13       1.0  0.90436  0.75558  0.58671  1.0000
  N   N14       1.0  0.09564  0.25558  0.41329  1.0000
  N   N15       1.0  0.40434  0.75559  0.91328  1.0000
  N   N16       1.0  0.59564  0.25558  0.08671  1.0000
