data_image0
_chemical_formula_structural       Zn4H44C56N12O20
_chemical_formula_sum              "Zn4 H44 C56 N12 O20"
_cell_length_a       9.13919
_cell_length_b       10.7585
_cell_length_c       18.5096
_cell_angle_alpha    76.9877
_cell_angle_beta     75.7211
_cell_angle_gamma    64.877

_space_group_name_H-M_alt    "P 1"
_space_group_IT_number       1

loop_
  _space_group_symop_operation_xyz
  'x, y, z'

loop_
  _atom_site_type_symbol
  _atom_site_label
  _atom_site_symmetry_multiplicity
  _atom_site_fract_x
  _atom_site_fract_y
  _atom_site_fract_z
  _atom_site_occupancy
  Zn  Zn1       1.0  0.49107  0.97367  0.79999  1.0000
  Zn  Zn2       1.0  0.26475  0.52630  0.70006  1.0000
  Zn  Zn3       1.0  0.50893  0.02633  0.20001  1.0000
  Zn  Zn4       1.0  0.73525  0.47370  0.29994  1.0000
  H   H1        1.0  0.63817  0.12025  0.92518  1.0000
  H   H2        1.0  0.68345  0.37977  0.57486  1.0000
  H   H3        1.0  0.36183  0.87975  0.07482  1.0000
  H   H4        1.0  0.31654  0.62023  0.42514  1.0000
  H   H5        1.0  0.13115  0.20209  0.85261  1.0000
  H   H6        1.0  0.18565  0.29797  0.64728  1.0000
  H   H7        1.0  0.86885  0.79791  0.14739  1.0000
  H   H8        1.0  0.81434  0.70203  0.35272  1.0000
  H   H9        1.0  0.03887  0.83007  0.78211  1.0000
  H   H10       1.0  0.65119  0.66995  0.71799  1.0000
  H   H11       1.0  0.96113  0.16993  0.21788  1.0000
  H   H12       1.0  0.34881  0.33005  0.28201  1.0000
  H   H13       1.0  0.31799  0.81775  0.77932  1.0000
  H   H14       1.0  0.91528  0.68213  0.72080  1.0000
  H   H15       1.0  0.68201  0.18225  0.22068  1.0000
  H   H16       1.0  0.08472  0.31787  0.27920  1.0000
  H   H17       1.0  0.54010  0.79454  0.59863  1.0000
  H   H18       1.0  0.93311  0.70556  0.90142  1.0000
  H   H19       1.0  0.45990  0.20546  0.40137  1.0000
  H   H20       1.0  0.06689  0.29444  0.09858  1.0000
  H   H21       1.0  0.45277  0.22635  0.53382  1.0000
  H   H22       1.0  0.21301  0.27377  0.96611  1.0000
  H   H23       1.0  0.54724  0.77365  0.46618  1.0000
  H   H24       1.0  0.78699  0.72623  0.03389  1.0000
  H   H25       1.0  0.50893  0.58050  0.86268  1.0000
  H   H26       1.0  0.95228  0.91968  0.63734  1.0000
  H   H27       1.0  0.49107  0.41950  0.13732  1.0000
  H   H28       1.0  0.04771  0.08032  0.36266  1.0000
  H   H29       1.0  0.48827  0.65340  0.08539  1.0000
  H   H30       1.0  0.22698  0.84655  0.41467  1.0000
  H   H31       1.0  0.51174  0.34660  0.91461  1.0000
  H   H32       1.0  0.77302  0.15345  0.58533  1.0000
  H   H33       1.0  0.38828  0.20283  0.86399  1.0000
  H   H34       1.0  0.45503  0.29720  0.63600  1.0000
  H   H35       1.0  0.61172  0.79717  0.13601  1.0000
  H   H36       1.0  0.54497  0.70280  0.36400  1.0000
  H   H37       1.0  0.43651  0.04752  0.92509  1.0000
  H   H38       1.0  0.40906  0.45256  0.57492  1.0000
  H   H39       1.0  0.56349  0.95248  0.07491  1.0000
  H   H40       1.0  0.59094  0.54744  0.42508  1.0000
  H   H41       1.0  0.84231  0.22632  0.86458  1.0000
  H   H42       1.0  0.93290  0.27379  0.63543  1.0000
  H   H43       1.0  0.15769  0.77368  0.13542  1.0000
  H   H44       1.0  0.06710  0.72621  0.36457  1.0000
  C   C1        1.0  0.49211  0.77488  0.93744  1.0000
  C   C2        1.0  0.20460  0.72520  0.56260  1.0000
  C   C3        1.0  0.50789  0.22512  0.06256  1.0000
  C   C4        1.0  0.79540  0.27480  0.43740  1.0000
  C   C5        1.0  0.49683  0.63299  0.97051  1.0000
  C   C6        1.0  0.10038  0.86708  0.52952  1.0000
  C   C7        1.0  0.50317  0.36701  0.02949  1.0000
  C   C8        1.0  0.89962  0.13292  0.47048  1.0000
  C   C9        1.0  0.75266  0.03502  0.82255  1.0000
  C   C10       1.0  0.61015  0.46507  0.67748  1.0000
  C   C11       1.0  0.24734  0.96497  0.17745  1.0000
  C   C12       1.0  0.38984  0.53494  0.32252  1.0000
  C   C13       1.0  0.10489  0.12004  0.83992  1.0000
  C   C14       1.0  0.06473  0.37998  0.66006  1.0000
  C   C15       1.0  0.89511  0.87996  0.16008  1.0000
  C   C16       1.0  0.93527  0.62002  0.33994  1.0000
  C   C17       1.0  0.05352  0.91378  0.79930  1.0000
  C   C18       1.0  0.76664  0.58625  0.70077  1.0000
  C   C19       1.0  0.94648  0.08623  0.20070  1.0000
  C   C20       1.0  0.23336  0.41375  0.29923  1.0000
  C   C21       1.0  0.49144  0.02207  0.65379  1.0000
  C   C22       1.0  0.16729  0.47811  0.84623  1.0000
  C   C23       1.0  0.50857  0.97793  0.34621  1.0000
  C   C24       1.0  0.83271  0.52189  0.15377  1.0000
  C   C25       1.0  0.20948  0.90661  0.79752  1.0000
  C   C26       1.0  0.91369  0.59336  0.70255  1.0000
  C   C27       1.0  0.79052  0.09340  0.20248  1.0000
  C   C28       1.0  0.08631  0.40665  0.29745  1.0000
  C   C29       1.0  0.49649  0.01117  0.57427  1.0000
  C   C30       1.0  0.08192  0.48895  0.92574  1.0000
  C   C31       1.0  0.50351  0.98882  0.42574  1.0000
  C   C32       1.0  0.91808  0.51105  0.07426  1.0000
  C   C33       1.0  0.52367  0.88354  0.55488  1.0000
  C   C34       1.0  0.96202  0.61651  0.94515  1.0000
  C   C35       1.0  0.47634  0.11645  0.44512  1.0000
  C   C36       1.0  0.03798  0.38349  0.05485  1.0000
  C   C37       1.0  0.47259  0.12746  0.51892  1.0000
  C   C38       1.0  0.11906  0.37262  0.98105  1.0000
  C   C39       1.0  0.52742  0.87253  0.48108  1.0000
  C   C40       1.0  0.88094  0.62738  0.01895  1.0000
  C   C41       1.0  0.50561  0.54465  0.92277  1.0000
  C   C42       1.0  0.97313  0.95544  0.57725  1.0000
  C   C43       1.0  0.49439  0.45535  0.07723  1.0000
  C   C44       1.0  0.02686  0.04456  0.42275  1.0000
  C   C45       1.0  0.49149  0.58711  0.04786  1.0000
  C   C46       1.0  0.12639  0.91288  0.45215  1.0000
  C   C47       1.0  0.50851  0.41289  0.95214  1.0000
  C   C48       1.0  0.87360  0.08712  0.54785  1.0000
  C   C49       1.0  0.94392  0.13359  0.84575  1.0000
  C   C50       1.0  0.92307  0.36647  0.65427  1.0000
  C   C51       1.0  0.05608  0.86641  0.15425  1.0000
  C   C52       1.0  0.07692  0.63353  0.34573  1.0000
  C   C53       1.0  0.91781  0.02892  0.82422  1.0000
  C   C54       1.0  0.77087  0.47116  0.67583  1.0000
  C   C55       1.0  0.08219  0.97108  0.17578  1.0000
  C   C56       1.0  0.22913  0.52884  0.32417  1.0000
  N   N1        1.0  0.62687  0.09912  0.87494  1.0000
  N   N2        1.0  0.60081  0.40096  0.62509  1.0000
  N   N3        1.0  0.37313  0.90088  0.12506  1.0000
  N   N4        1.0  0.39919  0.59904  0.37491  1.0000
  N   N5        1.0  0.23521  0.00872  0.81639  1.0000
  N   N6        1.0  0.06031  0.49126  0.68363  1.0000
  N   N7        1.0  0.76478  0.99128  0.18361  1.0000
  N   N8        1.0  0.93969  0.50874  0.31637  1.0000
  N   N9        1.0  0.47192  0.10096  0.87468  1.0000
  N   N10       1.0  0.44748  0.39909  0.62533  1.0000
  N   N11       1.0  0.52808  0.89904  0.12532  1.0000
  N   N12       1.0  0.55252  0.60091  0.37467  1.0000
  O   O1        1.0  0.73608  0.98163  0.77299  1.0000
  O   O2        1.0  0.49065  0.51847  0.72703  1.0000
  O   O3        1.0  0.26392  0.01837  0.22701  1.0000
  O   O4        1.0  0.50935  0.48154  0.27297  1.0000
  O   O5        1.0  0.54980  0.78951  0.86700  1.0000
  O   O6        1.0  0.20615  0.71050  0.63309  1.0000
  O   O7        1.0  0.45020  0.21049  0.13300  1.0000
  O   O8        1.0  0.79385  0.28950  0.36691  1.0000
  O   O9        1.0  0.43182  0.87073  0.97890  1.0000
  O   O10       1.0  0.28206  0.62950  0.52108  1.0000
  O   O11       1.0  0.56818  0.12927  0.02110  1.0000
  O   O12       1.0  0.71793  0.37051  0.47892  1.0000
  O   O13       1.0  0.53270  0.90877  0.69967  1.0000
  O   O14       1.0  0.14126  0.59141  0.80036  1.0000
  O   O15       1.0  0.46730  0.09123  0.30033  1.0000
  O   O16       1.0  0.85874  0.40859  0.19964  1.0000
  O   O17       1.0  0.44459  0.13932  0.67508  1.0000
  O   O18       1.0  0.25888  0.36086  0.82493  1.0000
  O   O19       1.0  0.55541  0.86068  0.32492  1.0000
  O   O20       1.0  0.74112  0.63914  0.17507  1.0000
