data_image0
_chemical_formula_structural       Zn4H44C40N12O20
_chemical_formula_sum              "Zn4 H44 C40 N12 O20"
_cell_length_a       9.12359
_cell_length_b       9.74799
_cell_length_c       13.6906
_cell_angle_alpha    90.0004
_cell_angle_beta     108.332
_cell_angle_gamma    89.9997

_space_group_name_H-M_alt    "P 1"
_space_group_IT_number       1

loop_
  _space_group_symop_operation_xyz
  'x, y, z'

loop_
  _atom_site_type_symbol
  _atom_site_label
  _atom_site_symmetry_multiplicity
  _atom_site_fract_x
  _atom_site_fract_y
  _atom_site_fract_z
  _atom_site_occupancy
  Zn  Zn1       1.0  0.08132  0.38072  0.68881  1.0000
  Zn  Zn2       1.0  0.41868  0.88072  0.81119  1.0000
  Zn  Zn3       1.0  0.91868  0.61928  0.31119  1.0000
  Zn  Zn4       1.0  0.58132  0.11928  0.18881  1.0000
  H   H1        1.0  0.34747  0.66230  0.63363  1.0000
  H   H2        1.0  0.15253  0.16230  0.86637  1.0000
  H   H3        1.0  0.65253  0.33770  0.36637  1.0000
  H   H4        1.0  0.84747  0.83770  0.13363  1.0000
  H   H5        1.0  0.07662  0.62817  0.59768  1.0000
  H   H6        1.0  0.42338  0.12817  0.90232  1.0000
  H   H7        1.0  0.92338  0.37183  0.40232  1.0000
  H   H8        1.0  0.57663  0.87183  0.09768  1.0000
  H   H9        1.0  0.16480  0.63121  0.72688  1.0000
  H   H10       1.0  0.33520  0.13121  0.77312  1.0000
  H   H11       1.0  0.83520  0.36879  0.27312  1.0000
  H   H12       1.0  0.66480  0.86879  0.22688  1.0000
  H   H13       1.0  0.81159  0.60159  0.58159  1.0000
  H   H14       1.0  0.68841  0.10159  0.91842  1.0000
  H   H15       1.0  0.18841  0.39841  0.41841  1.0000
  H   H16       1.0  0.31159  0.89841  0.08158  1.0000
  H   H17       1.0  0.54641  0.64153  0.59033  1.0000
  H   H18       1.0  0.95359  0.14153  0.90967  1.0000
  H   H19       1.0  0.45359  0.35847  0.40967  1.0000
  H   H20       1.0  0.04641  0.85847  0.09033  1.0000
  H   H21       1.0  0.83747  0.22019  0.71918  1.0000
  H   H22       1.0  0.66253  0.72019  0.78082  1.0000
  H   H23       1.0  0.16253  0.77980  0.28082  1.0000
  H   H24       1.0  0.33747  0.27981  0.21918  1.0000
  H   H25       1.0  0.57098  0.24394  0.73370  1.0000
  H   H26       1.0  0.92902  0.74394  0.76630  1.0000
  H   H27       1.0  0.42902  0.75606  0.26630  1.0000
  H   H28       1.0  0.07098  0.25606  0.23370  1.0000
  H   H29       1.0  0.13760  0.40150  0.04382  1.0000
  H   H30       1.0  0.36239  0.90150  0.45618  1.0000
  H   H31       1.0  0.86238  0.59850  0.95617  1.0000
  H   H32       1.0  0.63761  0.09851  0.54382  1.0000
  H   H33       1.0  0.94950  0.34939  0.97811  1.0000
  H   H34       1.0  0.55050  0.84939  0.52188  1.0000
  H   H35       1.0  0.05049  0.65061  0.02188  1.0000
  H   H36       1.0  0.44950  0.15061  0.47812  1.0000
  H   H37       1.0  0.91652  0.09248  0.40749  1.0000
  H   H38       1.0  0.58348  0.59248  0.09251  1.0000
  H   H39       1.0  0.08348  0.90752  0.59251  1.0000
  H   H40       1.0  0.41652  0.40752  0.90749  1.0000
  H   H41       1.0  0.11427  0.05892  0.44821  1.0000
  H   H42       1.0  0.38573  0.55892  0.05179  1.0000
  H   H43       1.0  0.88572  0.94108  0.55179  1.0000
  H   H44       1.0  0.61427  0.44108  0.94821  1.0000
  C   C1        1.0  0.38194  0.45577  0.67793  1.0000
  C   C2        1.0  0.11807  0.95576  0.82207  1.0000
  C   C3        1.0  0.61806  0.54424  0.32207  1.0000
  C   C4        1.0  0.88194  0.04424  0.17793  1.0000
  C   C5        1.0  0.53926  0.44645  0.66680  1.0000
  C   C6        1.0  0.96074  0.94645  0.83321  1.0000
  C   C7        1.0  0.46074  0.55355  0.33321  1.0000
  C   C8        1.0  0.03927  0.05355  0.16679  1.0000
  C   C9        1.0  0.04201  0.18947  0.54783  1.0000
  C   C10       1.0  0.45799  0.68947  0.95217  1.0000
  C   C11       1.0  0.95799  0.81053  0.45217  1.0000
  C   C12       1.0  0.54201  0.31053  0.04784  1.0000
  C   C13       1.0  0.75529  0.52568  0.61650  1.0000
  C   C14       1.0  0.74471  0.02568  0.88350  1.0000
  C   C15       1.0  0.24471  0.47432  0.38350  1.0000
  C   C16       1.0  0.25529  0.97432  0.11650  1.0000
  C   C17       1.0  0.60654  0.54683  0.62127  1.0000
  C   C18       1.0  0.89347  0.04683  0.87874  1.0000
  C   C19       1.0  0.39346  0.45317  0.37874  1.0000
  C   C20       1.0  0.10654  0.95317  0.12126  1.0000
  C   C21       1.0  0.76918  0.31257  0.69336  1.0000
  C   C22       1.0  0.73083  0.81257  0.80664  1.0000
  C   C23       1.0  0.23082  0.68743  0.30664  1.0000
  C   C24       1.0  0.26917  0.18743  0.19336  1.0000
  C   C25       1.0  0.62282  0.32647  0.70256  1.0000
  C   C26       1.0  0.87719  0.82646  0.79744  1.0000
  C   C27       1.0  0.37719  0.67353  0.29744  1.0000
  C   C28       1.0  0.12282  0.17353  0.20256  1.0000
  C   C29       1.0  0.06619  0.44865  0.88319  1.0000
  C   C30       1.0  0.43382  0.94864  0.61681  1.0000
  C   C31       1.0  0.93380  0.55135  0.11680  1.0000
  C   C32       1.0  0.56618  0.05136  0.38319  1.0000
  C   C33       1.0  0.03131  0.43416  0.98398  1.0000
  C   C34       1.0  0.46869  0.93417  0.51602  1.0000
  C   C35       1.0  0.96868  0.56584  0.01602  1.0000
  C   C36       1.0  0.53131  0.06584  0.48398  1.0000
  C   C37       1.0  0.01391  0.06730  0.47622  1.0000
  C   C38       1.0  0.48609  0.56730  0.02378  1.0000
  C   C39       1.0  0.98609  0.93270  0.52378  1.0000
  C   C40       1.0  0.51391  0.43270  0.97622  1.0000
  N   N1        1.0  0.29802  0.56924  0.64308  1.0000
  N   N2        1.0  0.20198  0.06924  0.85692  1.0000
  N   N3        1.0  0.70198  0.43076  0.35692  1.0000
  N   N4        1.0  0.79803  0.93076  0.14308  1.0000
  N   N5        1.0  0.83630  0.41107  0.65318  1.0000
  N   N6        1.0  0.66370  0.91107  0.84683  1.0000
  N   N7        1.0  0.16370  0.58893  0.34682  1.0000
  N   N8        1.0  0.33630  0.08893  0.15317  1.0000
  N   N9        1.0  0.15385  0.57751  0.66008  1.0000
  N   N10       1.0  0.34615  0.07751  0.83992  1.0000
  N   N11       1.0  0.84615  0.42249  0.33992  1.0000
  N   N12       1.0  0.65385  0.92249  0.16008  1.0000
  O   O1        1.0  0.33038  0.35712  0.71627  1.0000
  O   O2        1.0  0.16962  0.85712  0.78374  1.0000
  O   O3        1.0  0.66961  0.64288  0.28373  1.0000
  O   O4        1.0  0.83039  0.14288  0.21627  1.0000
  O   O5        1.0  0.04972  0.17357  0.64212  1.0000
  O   O6        1.0  0.45028  0.67357  0.85788  1.0000
  O   O7        1.0  0.95027  0.82643  0.35788  1.0000
  O   O8        1.0  0.54973  0.32643  0.14212  1.0000
  O   O9        1.0  0.05645  0.30804  0.51241  1.0000
  O   O10       1.0  0.44355  0.80804  0.98759  1.0000
  O   O11       1.0  0.94355  0.69196  0.48759  1.0000
  O   O12       1.0  0.55645  0.19196  0.01241  1.0000
  O   O13       1.0  0.09677  0.33619  0.84142  1.0000
  O   O14       1.0  0.40323  0.83619  0.65858  1.0000
  O   O15       1.0  0.90323  0.66381  0.15857  1.0000
  O   O16       1.0  0.59677  0.16381  0.34142  1.0000
  O   O17       1.0  0.06248  0.56395  0.84303  1.0000
  O   O18       1.0  0.43753  0.06395  0.65698  1.0000
  O   O19       1.0  0.93750  0.43604  0.15696  1.0000
  O   O20       1.0  0.56247  0.93605  0.34302  1.0000
