data_image0
_chemical_formula_structural       Zn4H36C40N12O20
_chemical_formula_sum              "Zn4 H36 C40 N12 O20"
_cell_length_a       9.14657
_cell_length_b       9.73075
_cell_length_c       13.7421
_cell_angle_alpha    88.3217
_cell_angle_beta     72.2663
_cell_angle_gamma    87.4447

_space_group_name_H-M_alt    "P 1"
_space_group_IT_number       1

loop_
  _space_group_symop_operation_xyz
  'x, y, z'

loop_
  _atom_site_type_symbol
  _atom_site_label
  _atom_site_symmetry_multiplicity
  _atom_site_fract_x
  _atom_site_fract_y
  _atom_site_fract_z
  _atom_site_occupancy
  Zn  Zn1       1.0  0.55947  0.62625  0.31407  1.0000
  Zn  Zn2       1.0  0.44053  0.37375  0.68593  1.0000
  Zn  Zn3       1.0  0.88925  0.09403  0.19039  1.0000
  Zn  Zn4       1.0  0.11075  0.90597  0.80961  1.0000
  H   H1        1.0  0.57905  0.37994  0.40158  1.0000
  H   H2        1.0  0.42095  0.62006  0.59842  1.0000
  H   H3        1.0  0.67322  0.38160  0.27505  1.0000
  H   H4        1.0  0.32677  0.61840  0.72495  1.0000
  H   H5        1.0  0.83981  0.35826  0.38417  1.0000
  H   H6        1.0  0.16019  0.64174  0.61583  1.0000
  H   H7        1.0  0.48493  0.91691  0.59970  1.0000
  H   H8        1.0  0.51506  0.08308  0.40031  1.0000
  H   H9        1.0  0.56238  0.64519  0.97549  1.0000
  H   H10       1.0  0.43762  0.35481  0.02451  1.0000
  H   H11       1.0  0.05508  0.36328  0.39358  1.0000
  H   H12       1.0  0.94492  0.63672  0.60642  1.0000
  H   H13       1.0  0.31819  0.40077  0.40082  1.0000
  H   H14       1.0  0.68181  0.59923  0.59918  1.0000
  H   H15       1.0  0.29619  0.81118  0.31707  1.0000
  H   H16       1.0  0.70380  0.18882  0.68293  1.0000
  H   H17       1.0  0.03053  0.79086  0.30159  1.0000
  H   H18       1.0  0.96947  0.20914  0.69841  1.0000
  H   H19       1.0  0.63942  0.81700  0.12494  1.0000
  H   H20       1.0  0.36058  0.18300  0.87507  1.0000
  H   H21       1.0  0.90957  0.85191  0.08203  1.0000
  H   H22       1.0  0.09043  0.14809  0.91797  1.0000
  H   H23       1.0  0.82713  0.83499  0.20717  1.0000
  H   H24       1.0  0.17287  0.16501  0.79283  1.0000
  H   H25       1.0  0.90940  0.87872  0.48132  1.0000
  H   H26       1.0  0.09060  0.12128  0.51868  1.0000
  H   H27       1.0  0.43545  0.83706  0.08613  1.0000
  H   H28       1.0  0.56455  0.16294  0.91387  1.0000
  H   H29       1.0  0.16782  0.87614  0.08324  1.0000
  H   H30       1.0  0.83218  0.12386  0.91676  1.0000
  H   H31       1.0  0.40360  0.23573  0.22361  1.0000
  H   H32       1.0  0.59640  0.76427  0.77639  1.0000
  H   H33       1.0  0.93389  0.55108  0.11054  1.0000
  H   H34       1.0  0.06612  0.44891  0.88945  1.0000
  H   H35       1.0  0.13027  0.25639  0.21959  1.0000
  H   H36       1.0  0.86973  0.74361  0.78041  1.0000
  C   C1        1.0  0.86916  0.56325  0.32823  1.0000
  C   C2        1.0  0.13084  0.43675  0.67177  1.0000
  C   C3        1.0  0.02318  0.57453  0.34312  1.0000
  C   C4        1.0  0.97682  0.42547  0.65688  1.0000
  C   C5        1.0  0.52910  0.81379  0.45246  1.0000
  C   C6        1.0  0.47090  0.18621  0.54755  1.0000
  C   C7        1.0  0.50195  0.93567  0.51843  1.0000
  C   C8        1.0  0.49804  0.06433  0.48158  1.0000
  C   C9        1.0  0.54368  0.53958  0.12480  1.0000
  C   C10       1.0  0.45632  0.46043  0.87520  1.0000
  C   C11       1.0  0.52848  0.55067  0.01998  1.0000
  C   C12       1.0  0.47152  0.44934  0.98002  1.0000
  C   C13       1.0  0.10363  0.46443  0.37413  1.0000
  C   C14       1.0  0.89637  0.53557  0.62587  1.0000
  C   C15       1.0  0.25115  0.48435  0.37829  1.0000
  C   C16       1.0  0.74885  0.51565  0.62171  1.0000
  C   C17       1.0  0.23836  0.71377  0.33104  1.0000
  C   C18       1.0  0.76164  0.28624  0.66896  1.0000
  C   C19       1.0  0.09182  0.70213  0.32283  1.0000
  C   C20       1.0  0.90818  0.29787  0.67716  1.0000
  C   C21       1.0  0.60033  0.02418  0.16528  1.0000
  C   C22       1.0  0.39967  0.97582  0.83472  1.0000
  C   C23       1.0  0.44034  0.03314  0.15814  1.0000
  C   C24       1.0  0.55966  0.96685  0.84186  1.0000
  C   C25       1.0  0.90177  0.08068  0.40492  1.0000
  C   C26       1.0  0.09823  0.91932  0.59508  1.0000
  C   C27       1.0  0.93743  0.33051  0.07605  1.0000
  C   C28       1.0  0.06257  0.66949  0.92394  1.0000
  C   C29       1.0  0.95034  0.98310  0.47555  1.0000
  C   C30       1.0  0.04966  0.01690  0.52445  1.0000
  C   C31       1.0  0.37362  0.93223  0.11658  1.0000
  C   C32       1.0  0.62638  0.06777  0.88342  1.0000
  C   C33       1.0  0.22228  0.95295  0.11563  1.0000
  C   C34       1.0  0.77772  0.04705  0.88437  1.0000
  C   C35       1.0  0.35267  0.15273  0.19512  1.0000
  C   C36       1.0  0.64733  0.84727  0.80488  1.0000
  C   C37       1.0  0.96631  0.47815  0.04805  1.0000
  C   C38       1.0  0.03370  0.52184  0.95194  1.0000
  C   C39       1.0  0.20267  0.16523  0.19132  1.0000
  C   C40       1.0  0.79733  0.83477  0.80868  1.0000
  N   N1        1.0  0.65201  0.43574  0.34169  1.0000
  N   N2        1.0  0.34799  0.56426  0.65832  1.0000
  N   N3        1.0  0.79121  0.44979  0.36367  1.0000
  N   N4        1.0  0.20879  0.55021  0.63633  1.0000
  N   N5        1.0  0.31879  0.60605  0.35524  1.0000
  N   N6        1.0  0.68121  0.39395  0.64476  1.0000
  N   N7        1.0  0.68753  0.91046  0.13024  1.0000
  N   N8        1.0  0.31247  0.08954  0.86976  1.0000
  N   N9        1.0  0.83402  0.90019  0.14518  1.0000
  N   N10       1.0  0.16598  0.09981  0.85482  1.0000
  N   N11       1.0  0.13713  0.06687  0.15330  1.0000
  N   N12       1.0  0.86287  0.93313  0.84670  1.0000
  O   O1        1.0  0.53404  0.82920  0.35835  1.0000
  O   O2        1.0  0.46596  0.17080  0.64166  1.0000
  O   O3        1.0  0.81584  0.65915  0.28382  1.0000
  O   O4        1.0  0.18415  0.34085  0.71618  1.0000
  O   O5        1.0  0.57923  0.65258  0.16052  1.0000
  O   O6        1.0  0.42077  0.34742  0.83948  1.0000
  O   O7        1.0  0.54660  0.69573  0.49098  1.0000
  O   O8        1.0  0.45339  0.30427  0.50902  1.0000
  O   O9        1.0  0.52026  0.42931  0.17463  1.0000
  O   O10       1.0  0.47973  0.57069  0.82537  1.0000
  O   O11       1.0  0.90329  0.30198  0.17268  1.0000
  O   O12       1.0  0.09671  0.69803  0.82732  1.0000
  O   O13       1.0  0.65015  0.12330  0.20047  1.0000
  O   O14       1.0  0.34985  0.87670  0.79953  1.0000
  O   O15       1.0  0.86717  0.02221  0.33255  1.0000
  O   O16       1.0  0.13283  0.97780  0.66745  1.0000
  O   O17       1.0  0.94872  0.23997  0.00990  1.0000
  O   O18       1.0  0.05128  0.76003  0.99010  1.0000
  O   O19       1.0  0.90230  0.20833  0.41809  1.0000
  O   O20       1.0  0.09770  0.79167  0.58191  1.0000
