data_image0
_chemical_formula_structural       Ag2H20C20S2N4O6
_chemical_formula_sum              "Ag2 H20 C20 S2 N4 O6"
_cell_length_a       5.24077
_cell_length_b       10.3795
_cell_length_c       12.3857
_cell_angle_alpha    83.2525
_cell_angle_beta     80.568
_cell_angle_gamma    80.5406

_space_group_name_H-M_alt    "P 1"
_space_group_IT_number       1

loop_
  _space_group_symop_operation_xyz
  'x, y, z'

loop_
  _atom_site_type_symbol
  _atom_site_label
  _atom_site_symmetry_multiplicity
  _atom_site_fract_x
  _atom_site_fract_y
  _atom_site_fract_z
  _atom_site_occupancy
  Ag  Ag1       1.0  0.21584  0.40919  0.85176  1.0000
  Ag  Ag2       1.0  0.78417  0.59081  0.14824  1.0000
  H   H1        1.0  0.66450  0.51162  0.40107  1.0000
  H   H2        1.0  0.33550  0.48838  0.59893  1.0000
  H   H3        1.0  0.83469  0.34858  0.55022  1.0000
  H   H4        1.0  0.16533  0.65142  0.44978  1.0000
  H   H5        1.0  0.24103  0.19167  0.50003  1.0000
  H   H6        1.0  0.75898  0.80833  0.49996  1.0000
  H   H7        1.0  0.44678  0.19285  0.30078  1.0000
  H   H8        1.0  0.55322  0.80715  0.69921  1.0000
  H   H9        1.0  0.33549  0.45062  0.10055  1.0000
  H   H10       1.0  0.66452  0.54938  0.89945  1.0000
  H   H11       1.0  0.43905  0.27774  0.11227  1.0000
  H   H12       1.0  0.56095  0.72226  0.88773  1.0000
  H   H13       1.0  0.86036  0.15886  0.01090  1.0000
  H   H14       1.0  0.13963  0.84114  0.98911  1.0000
  H   H15       1.0  0.92703  0.14309  0.14907  1.0000
  H   H16       1.0  0.07295  0.85692  0.85093  1.0000
  H   H17       1.0  0.31727  0.01096  0.19739  1.0000
  H   H18       1.0  0.68271  0.98904  0.80262  1.0000
  H   H19       1.0  0.25817  0.12853  0.85565  1.0000
  H   H20       1.0  0.74181  0.87147  0.14435  1.0000
  C   C1        1.0  0.83587  0.43780  0.38335  1.0000
  C   C2        1.0  0.16415  0.56220  0.61665  1.0000
  C   C3        1.0  0.93342  0.34919  0.46564  1.0000
  C   C4        1.0  0.06659  0.65081  0.53436  1.0000
  C   C5        1.0  0.15771  0.26038  0.43686  1.0000
  C   C6        1.0  0.84230  0.73961  0.56313  1.0000
  C   C7        1.0  0.27185  0.26113  0.32675  1.0000
  C   C8        1.0  0.72815  0.73887  0.67325  1.0000
  C   C9        1.0  0.15939  0.35103  0.24841  1.0000
  C   C10       1.0  0.84061  0.64897  0.75159  1.0000
  C   C11       1.0  0.27139  0.35486  0.12860  1.0000
  C   C12       1.0  0.72861  0.64514  0.87140  1.0000
  C   C13       1.0  0.00763  0.16629  0.06263  1.0000
  C   C14       1.0  0.99236  0.83372  0.93737  1.0000
  C   C15       1.0  0.26054  0.08021  0.03026  1.0000
  C   C16       1.0  0.73945  0.91979  0.96975  1.0000
  C   C17       1.0  0.39859  0.00701  0.11062  1.0000
  C   C18       1.0  0.60140  0.99299  0.88938  1.0000
  C   C19       1.0  0.36451  0.07254  0.91906  1.0000
  C   C20       1.0  0.63547  0.92746  0.08095  1.0000
  S   S1        1.0  0.02926  0.34189  0.04241  1.0000
  S   S2        1.0  0.97075  0.65812  0.95759  1.0000
  N   N1        1.0  0.94560  0.43905  0.27736  1.0000
  N   N2        1.0  0.05439  0.56095  0.72265  1.0000
  N   N3        1.0  0.74875  0.28728  0.76863  1.0000
  N   N4        1.0  0.25125  0.71272  0.23137  1.0000
  O   O1        1.0  0.68916  0.32640  0.86546  1.0000
  O   O2        1.0  0.31084  0.67360  0.13455  1.0000
  O   O3        1.0  0.57207  0.30553  0.70669  1.0000
  O   O4        1.0  0.42794  0.69447  0.29330  1.0000
  O   O5        1.0  0.97628  0.23314  0.73622  1.0000
  O   O6        1.0  0.02373  0.76686  0.26378  1.0000
