data_image0
_chemical_formula_structural       Cu4H40C40S4I4N4
_chemical_formula_sum              "Cu4 H40 C40 S4 I4 N4"
_cell_length_a       9.56823
_cell_length_b       10.2401
_cell_length_c       12.0492
_cell_angle_alpha    106.176
_cell_angle_beta     90.0001
_cell_angle_gamma    89.9998

_space_group_name_H-M_alt    "P 1"
_space_group_IT_number       1

loop_
  _space_group_symop_operation_xyz
  'x, y, z'

loop_
  _atom_site_type_symbol
  _atom_site_label
  _atom_site_symmetry_multiplicity
  _atom_site_fract_x
  _atom_site_fract_y
  _atom_site_fract_z
  _atom_site_occupancy
  Cu  Cu1       1.0  0.60139  0.54217  0.45615  1.0000
  Cu  Cu2       1.0  0.89861  0.04217  0.95616  1.0000
  Cu  Cu3       1.0  0.39862  0.45784  0.54385  1.0000
  Cu  Cu4       1.0  0.10138  0.95783  0.04384  1.0000
  H   H1        1.0  0.75655  0.06190  0.56486  1.0000
  H   H2        1.0  0.74345  0.56189  0.06486  1.0000
  H   H3        1.0  0.24347  0.93810  0.43514  1.0000
  H   H4        1.0  0.25653  0.43810  0.93514  1.0000
  H   H5        1.0  0.77901  0.82884  0.63966  1.0000
  H   H6        1.0  0.72099  0.32884  0.13966  1.0000
  H   H7        1.0  0.22102  0.17116  0.36034  1.0000
  H   H8        1.0  0.27899  0.67115  0.86033  1.0000
  H   H9        1.0  0.87118  0.69958  0.53819  1.0000
  H   H10       1.0  0.62882  0.19958  0.03820  1.0000
  H   H11       1.0  0.12884  0.30042  0.46180  1.0000
  H   H12       1.0  0.37116  0.80042  0.96179  1.0000
  H   H13       1.0  0.64152  0.69179  0.26293  1.0000
  H   H14       1.0  0.85848  0.19179  0.76293  1.0000
  H   H15       1.0  0.35847  0.30821  0.73707  1.0000
  H   H16       1.0  0.14153  0.80820  0.23707  1.0000
  H   H17       1.0  0.79394  0.79362  0.30284  1.0000
  H   H18       1.0  0.70606  0.29362  0.80284  1.0000
  H   H19       1.0  0.20606  0.20638  0.69715  1.0000
  H   H20       1.0  0.29395  0.70638  0.19714  1.0000
  H   H21       1.0  0.08568  0.76394  0.47272  1.0000
  H   H22       1.0  0.41432  0.26394  0.97272  1.0000
  H   H23       1.0  0.91434  0.23606  0.52728  1.0000
  H   H24       1.0  0.58566  0.73606  0.02728  1.0000
  H   H25       1.0  0.80057  0.29533  0.37098  1.0000
  H   H26       1.0  0.69944  0.79533  0.87098  1.0000
  H   H27       1.0  0.19943  0.70466  0.62901  1.0000
  H   H28       1.0  0.30056  0.20467  0.12902  1.0000
  H   H29       1.0  0.97230  0.64286  0.19443  1.0000
  H   H30       1.0  0.52770  0.14286  0.69443  1.0000
  H   H31       1.0  0.02771  0.35714  0.80557  1.0000
  H   H32       1.0  0.47228  0.85714  0.30557  1.0000
  H   H33       1.0  0.01555  0.24505  0.24887  1.0000
  H   H34       1.0  0.48445  0.74505  0.74887  1.0000
  H   H35       1.0  0.98445  0.75495  0.75113  1.0000
  H   H36       1.0  0.51554  0.25495  0.25114  1.0000
  H   H37       1.0  0.10686  0.42536  0.16080  1.0000
  H   H38       1.0  0.39315  0.92536  0.66079  1.0000
  H   H39       1.0  0.89316  0.57465  0.83922  1.0000
  H   H40       1.0  0.60683  0.07465  0.33923  1.0000
  C   C1        1.0  0.86381  0.03482  0.53709  1.0000
  C   C2        1.0  0.63619  0.53481  0.03709  1.0000
  C   C3        1.0  0.13621  0.96519  0.46292  1.0000
  C   C4        1.0  0.36380  0.46519  0.96291  1.0000
  C   C5        1.0  0.91068  0.90178  0.52381  1.0000
  C   C6        1.0  0.58932  0.40178  0.02380  1.0000
  C   C7        1.0  0.08934  0.09823  0.47621  1.0000
  C   C8        1.0  0.41067  0.59822  0.97620  1.0000
  C   C9        1.0  0.81731  0.79721  0.55034  1.0000
  C   C10       1.0  0.68269  0.29721  0.05034  1.0000
  C   C11       1.0  0.18271  0.20279  0.44966  1.0000
  C   C12       1.0  0.31729  0.70279  0.94966  1.0000
  C   C13       1.0  0.73283  0.71113  0.32105  1.0000
  C   C14       1.0  0.76717  0.21112  0.82105  1.0000
  C   C15       1.0  0.26718  0.28887  0.67894  1.0000
  C   C16       1.0  0.23282  0.78887  0.17894  1.0000
  C   C17       1.0  0.04769  0.86772  0.48546  1.0000
  C   C18       1.0  0.45231  0.36772  0.98546  1.0000
  C   C19       1.0  0.95233  0.13228  0.51454  1.0000
  C   C20       1.0  0.54767  0.63227  0.01454  1.0000
  C   C21       1.0  0.81785  0.58318  0.30070  1.0000
  C   C22       1.0  0.68215  0.08318  0.80070  1.0000
  C   C23       1.0  0.18215  0.41682  0.69929  1.0000
  C   C24       1.0  0.31785  0.91682  0.19929  1.0000
  C   C25       1.0  0.84260  0.36962  0.33017  1.0000
  C   C26       1.0  0.65740  0.86961  0.83017  1.0000
  C   C27       1.0  0.15739  0.63038  0.66982  1.0000
  C   C28       1.0  0.34260  0.13039  0.16983  1.0000
  C   C29       1.0  0.93825  0.56352  0.23267  1.0000
  C   C30       1.0  0.56176  0.06352  0.73267  1.0000
  C   C31       1.0  0.06176  0.43648  0.76733  1.0000
  C   C32       1.0  0.43823  0.93648  0.26734  1.0000
  C   C33       1.0  0.96330  0.34282  0.26299  1.0000
  C   C34       1.0  0.53670  0.84282  0.76299  1.0000
  C   C35       1.0  0.03670  0.65717  0.73701  1.0000
  C   C36       1.0  0.46329  0.15718  0.23702  1.0000
  C   C37       1.0  0.01234  0.44195  0.21333  1.0000
  C   C38       1.0  0.48767  0.94194  0.71332  1.0000
  C   C39       1.0  0.98767  0.55805  0.78668  1.0000
  C   C40       1.0  0.51232  0.05805  0.28668  1.0000
  S   S1        1.0  0.65742  0.76628  0.46468  1.0000
  S   S2        1.0  0.84258  0.26628  0.96468  1.0000
  S   S3        1.0  0.34259  0.23372  0.53531  1.0000
  S   S4        1.0  0.15740  0.73372  0.03531  1.0000
  I   I1        1.0  0.64642  0.46600  0.64182  1.0000
  I   I2        1.0  0.85357  0.96601  0.14183  1.0000
  I   I3        1.0  0.35358  0.53399  0.35817  1.0000
  I   I4        1.0  0.14642  0.03400  0.85817  1.0000
  N   N1        1.0  0.77066  0.48705  0.34911  1.0000
  N   N2        1.0  0.72935  0.98705  0.84911  1.0000
  N   N3        1.0  0.22934  0.51295  0.65088  1.0000
  N   N4        1.0  0.27065  0.01295  0.15089  1.0000
