data_image0
_chemical_formula_structural       Cu2H40C40S4N4Cl4
_chemical_formula_sum              "Cu2 H40 C40 S4 N4 Cl4"
_cell_length_a       7.93041
_cell_length_b       9.95528
_cell_length_c       12.8639
_cell_angle_alpha    90.0001
_cell_angle_beta     91.1533
_cell_angle_gamma    90.0001

_space_group_name_H-M_alt    "P 1"
_space_group_IT_number       1

loop_
  _space_group_symop_operation_xyz
  'x, y, z'

loop_
  _atom_site_type_symbol
  _atom_site_label
  _atom_site_symmetry_multiplicity
  _atom_site_fract_x
  _atom_site_fract_y
  _atom_site_fract_z
  _atom_site_occupancy
  Cu  Cu1       1.0  0.50000  0.50000  0.50000  1.0000
  Cu  Cu2       1.0  0.00000  0.00000  1.00000  1.0000
  H   H1        1.0  0.17866  0.37817  0.55853  1.0000
  H   H2        1.0  0.67866  0.12184  0.05854  1.0000
  H   H3        1.0  0.82134  0.62184  0.44147  1.0000
  H   H4        1.0  0.32135  0.87816  0.94146  1.0000
  H   H5        1.0  0.07931  0.18284  0.66347  1.0000
  H   H6        1.0  0.57931  0.31717  0.16347  1.0000
  H   H7        1.0  0.92070  0.81716  0.33653  1.0000
  H   H8        1.0  0.42070  0.68283  0.83653  1.0000
  H   H9        1.0  0.29354  0.03959  0.75601  1.0000
  H   H10       1.0  0.79354  0.46042  0.25601  1.0000
  H   H11       1.0  0.70646  0.96041  0.24399  1.0000
  H   H12       1.0  0.20646  0.53958  0.74399  1.0000
  H   H13       1.0  0.60161  0.10475  0.74553  1.0000
  H   H14       1.0  0.10162  0.39526  0.24554  1.0000
  H   H15       1.0  0.39839  0.89525  0.25446  1.0000
  H   H16       1.0  0.89839  0.60475  0.75446  1.0000
  H   H17       1.0  0.81123  0.23494  0.67408  1.0000
  H   H18       1.0  0.31123  0.26507  0.17408  1.0000
  H   H19       1.0  0.18877  0.76506  0.32593  1.0000
  H   H20       1.0  0.68877  0.73494  0.82592  1.0000
  H   H21       1.0  0.75172  0.40688  0.68809  1.0000
  H   H22       1.0  0.25172  0.09312  0.18809  1.0000
  H   H23       1.0  0.24828  0.59312  0.31191  1.0000
  H   H24       1.0  0.74828  0.90688  0.81191  1.0000
  H   H25       1.0  0.62186  0.17339  0.46096  1.0000
  H   H26       1.0  0.12186  0.32661  0.96097  1.0000
  H   H27       1.0  0.37814  0.82661  0.53904  1.0000
  H   H28       1.0  0.87814  0.67340  0.03904  1.0000
  H   H29       1.0  0.75465  0.23039  0.36210  1.0000
  H   H30       1.0  0.25465  0.26961  0.86210  1.0000
  H   H31       1.0  0.24535  0.76960  0.63790  1.0000
  H   H32       1.0  0.74535  0.73040  0.13790  1.0000
  H   H33       1.0  0.07265  0.18116  0.37596  1.0000
  H   H34       1.0  0.57265  0.31884  0.87596  1.0000
  H   H35       1.0  0.92735  0.81883  0.62404  1.0000
  H   H36       1.0  0.42735  0.68117  0.12404  1.0000
  H   H37       1.0  0.71503  0.99059  0.57634  1.0000
  H   H38       1.0  0.21503  0.50941  0.07634  1.0000
  H   H39       1.0  0.28497  0.00940  0.42366  1.0000
  H   H40       1.0  0.78497  0.49060  0.92367  1.0000
  C   C1        1.0  0.26754  0.31594  0.60269  1.0000
  C   C2        1.0  0.76754  0.18406  0.10270  1.0000
  C   C3        1.0  0.73246  0.68406  0.39731  1.0000
  C   C4        1.0  0.23247  0.81594  0.89730  1.0000
  C   C5        1.0  0.21297  0.20640  0.65993  1.0000
  C   C6        1.0  0.71297  0.29360  0.15994  1.0000
  C   C7        1.0  0.78703  0.79360  0.34007  1.0000
  C   C8        1.0  0.28703  0.70640  0.84006  1.0000
  C   C9        1.0  0.33292  0.12692  0.71140  1.0000
  C   C10       1.0  0.83292  0.37308  0.21141  1.0000
  C   C11       1.0  0.66708  0.87308  0.28859  1.0000
  C   C12       1.0  0.16708  0.62692  0.78859  1.0000
  C   C13       1.0  0.50257  0.16152  0.70498  1.0000
  C   C14       1.0  0.00258  0.33848  0.20498  1.0000
  C   C15       1.0  0.49743  0.83848  0.29502  1.0000
  C   C16       1.0  0.99743  0.66152  0.79502  1.0000
  C   C17       1.0  0.54885  0.27462  0.64744  1.0000
  C   C18       1.0  0.04885  0.22538  0.14745  1.0000
  C   C19       1.0  0.45115  0.72538  0.35256  1.0000
  C   C20       1.0  0.95115  0.77462  0.85256  1.0000
  C   C21       1.0  0.73093  0.31511  0.64188  1.0000
  C   C22       1.0  0.23093  0.18489  0.14189  1.0000
  C   C23       1.0  0.26907  0.68489  0.35812  1.0000
  C   C24       1.0  0.76907  0.81511  0.85811  1.0000
  C   C25       1.0  0.75184  0.20347  0.44459  1.0000
  C   C26       1.0  0.25184  0.29653  0.94460  1.0000
  C   C27       1.0  0.24816  0.79653  0.55540  1.0000
  C   C28       1.0  0.74816  0.70347  0.05541  1.0000
  C   C29       1.0  0.87854  0.09756  0.47231  1.0000
  C   C30       1.0  0.37854  0.40244  0.97231  1.0000
  C   C31       1.0  0.12147  0.90243  0.52769  1.0000
  C   C32       1.0  0.62146  0.59757  0.02769  1.0000
  C   C33       1.0  0.03943  0.10063  0.42925  1.0000
  C   C34       1.0  0.53943  0.39937  0.92926  1.0000
  C   C35       1.0  0.96057  0.89937  0.57075  1.0000
  C   C36       1.0  0.46057  0.60063  0.07075  1.0000
  C   C37       1.0  0.84073  0.99594  0.54356  1.0000
  C   C38       1.0  0.34073  0.50407  0.04357  1.0000
  C   C39       1.0  0.15927  0.00406  0.45644  1.0000
  C   C40       1.0  0.65927  0.49594  0.95644  1.0000
  S   S1        1.0  0.79509  0.36115  0.51260  1.0000
  S   S2        1.0  0.29508  0.13885  0.01261  1.0000
  S   S3        1.0  0.20492  0.63884  0.48739  1.0000
  S   S4        1.0  0.70492  0.86116  0.98739  1.0000
  N   N1        1.0  0.43159  0.34932  0.59655  1.0000
  N   N2        1.0  0.93159  0.15068  0.09656  1.0000
  N   N3        1.0  0.56841  0.65068  0.40344  1.0000
  N   N4        1.0  0.06842  0.84932  0.90344  1.0000
  Cl  Cl1       1.0  0.39941  0.36941  0.35810  1.0000
  Cl  Cl2       1.0  0.89941  0.13059  0.85810  1.0000
  Cl  Cl3       1.0  0.60059  0.63059  0.64190  1.0000
  Cl  Cl4       1.0  0.10059  0.86941  0.14190  1.0000
