data_image0
_chemical_formula_structural       Cd2H20C28N4O10
_chemical_formula_sum              "Cd2 H20 C28 N4 O10"
_cell_length_a       6.09908
_cell_length_b       7.47661
_cell_length_c       15.016
_cell_angle_alpha    92.3112
_cell_angle_beta     92.8687
_cell_angle_gamma    84.8716

_space_group_name_H-M_alt    "P 1"
_space_group_IT_number       1

loop_
  _space_group_symop_operation_xyz
  'x, y, z'

loop_
  _atom_site_type_symbol
  _atom_site_label
  _atom_site_symmetry_multiplicity
  _atom_site_fract_x
  _atom_site_fract_y
  _atom_site_fract_z
  _atom_site_occupancy
  Cd  Cd1       1.0  0.18260  0.75103  0.00456  1.0000
  Cd  Cd2       1.0  0.81739  0.24897  0.99544  1.0000
  H   H1        1.0  0.12431  0.60001  0.70466  1.0000
  H   H2        1.0  0.12849  0.90999  0.29961  1.0000
  H   H3        1.0  0.87568  0.40001  0.29533  1.0000
  H   H4        1.0  0.87153  0.08998  0.70038  1.0000
  H   H5        1.0  0.54335  0.41445  0.81017  1.0000
  H   H6        1.0  0.49844  0.09433  0.17746  1.0000
  H   H7        1.0  0.45665  0.58558  0.18981  1.0000
  H   H8        1.0  0.50157  0.90565  0.82255  1.0000
  H   H9        1.0  0.63600  0.37896  0.52625  1.0000
  H   H10       1.0  0.59916  0.11445  0.46435  1.0000
  H   H11       1.0  0.36398  0.62107  0.47374  1.0000
  H   H12       1.0  0.40090  0.88556  0.53565  1.0000
  H   H13       1.0  0.40784  0.33135  0.65558  1.0000
  H   H14       1.0  0.35456  0.16863  0.32820  1.0000
  H   H15       1.0  0.59217  0.66868  0.34441  1.0000
  H   H16       1.0  0.64547  0.83136  0.67181  1.0000
  H   H17       1.0  0.63940  0.64571  0.98787  1.0000
  H   H18       1.0  0.62080  0.82588  0.04679  1.0000
  H   H19       1.0  0.36056  0.35427  0.01213  1.0000
  H   H20       1.0  0.37919  0.17408  0.95323  1.0000
  C   C1        1.0  0.96810  0.54012  0.69435  1.0000
  C   C2        1.0  0.95906  0.96710  0.30539  1.0000
  C   C3        1.0  0.03188  0.45991  0.30564  1.0000
  C   C4        1.0  0.04097  0.03287  0.69461  1.0000
  C   C5        1.0  0.84142  0.51283  0.76710  1.0000
  C   C6        1.0  0.82204  0.99643  0.22892  1.0000
  C   C7        1.0  0.15857  0.48720  0.23289  1.0000
  C   C8        1.0  0.17796  0.00355  0.77108  1.0000
  C   C9        1.0  0.63969  0.43665  0.75304  1.0000
  C   C10       1.0  0.60396  0.06986  0.23722  1.0000
  C   C11       1.0  0.36029  0.56338  0.24695  1.0000
  C   C12       1.0  0.39604  0.93012  0.76279  1.0000
  C   C13       1.0  0.89409  0.49067  0.60776  1.0000
  C   C14       1.0  0.87992  0.01154  0.38994  1.0000
  C   C15       1.0  0.10588  0.50934  0.39224  1.0000
  C   C16       1.0  0.12012  0.98843  0.61007  1.0000
  C   C17       1.0  0.91956  0.56689  0.85920  1.0000
  C   C18       1.0  0.91232  0.95026  0.13992  1.0000
  C   C19       1.0  0.08041  0.43312  0.14080  1.0000
  C   C20       1.0  0.08766  0.04974  0.86008  1.0000
  C   C21       1.0  0.69058  0.41588  0.59405  1.0000
  C   C22       1.0  0.65963  0.08235  0.39812  1.0000
  C   C23       1.0  0.30940  0.58414  0.40594  1.0000
  C   C24       1.0  0.34042  0.91764  0.60188  1.0000
  C   C25       1.0  0.56497  0.38967  0.66645  1.0000
  C   C26       1.0  0.52395  0.11151  0.32190  1.0000
  C   C27       1.0  0.43502  0.61037  0.33354  1.0000
  C   C28       1.0  0.47608  0.88849  0.67811  1.0000
  N   N1        1.0  0.03714  0.51869  0.53912  1.0000
  N   N2        1.0  0.03747  0.98453  0.46165  1.0000
  N   N3        1.0  0.96282  0.48132  0.46088  1.0000
  N   N4        1.0  0.96258  0.01544  0.53835  1.0000
  O   O1        1.0  0.54624  0.71374  0.03271  1.0000
  O   O2        1.0  0.45375  0.28622  0.96731  1.0000
  O   O3        1.0  0.81251  0.52709  0.92583  1.0000
  O   O4        1.0  0.78863  0.97856  0.06874  1.0000
  O   O5        1.0  0.18745  0.47291  0.07416  1.0000
  O   O6        1.0  0.21137  0.02141  0.93126  1.0000
  O   O7        1.0  0.09011  0.65426  0.86779  1.0000
  O   O8        1.0  0.10971  0.88020  0.13718  1.0000
  O   O9        1.0  0.90989  0.34573  0.13221  1.0000
  O   O10       1.0  0.89029  0.11982  0.86282  1.0000
