data_image0
_chemical_formula_structural       Cu4H28C40I4N8Cl2
_chemical_formula_sum              "Cu4 H28 C40 I4 N8 Cl2"
_cell_length_a       8.96252
_cell_length_b       9.24582
_cell_length_c       13.4364
_cell_angle_alpha    72.7422
_cell_angle_beta     77.9064
_cell_angle_gamma    85.3966

_space_group_name_H-M_alt    "P 1"
_space_group_IT_number       1

loop_
  _space_group_symop_operation_xyz
  'x, y, z'

loop_
  _atom_site_type_symbol
  _atom_site_label
  _atom_site_symmetry_multiplicity
  _atom_site_fract_x
  _atom_site_fract_y
  _atom_site_fract_z
  _atom_site_occupancy
  Cu  Cu1       1.0  0.33322  0.37775  0.11366  1.0000
  Cu  Cu2       1.0  0.66675  0.62223  0.88635  1.0000
  Cu  Cu3       1.0  0.04600  0.14090  0.44089  1.0000
  Cu  Cu4       1.0  0.95400  0.85907  0.55911  1.0000
  H   H1        1.0  0.42808  0.07652  0.05857  1.0000
  H   H2        1.0  0.57192  0.92343  0.94146  1.0000
  H   H3        1.0  0.61974  0.86463  0.11137  1.0000
  H   H4        1.0  0.38030  0.13535  0.88866  1.0000
  H   H5        1.0  0.77465  0.88055  0.24291  1.0000
  H   H6        1.0  0.22538  0.11947  0.75711  1.0000
  H   H7        1.0  0.73995  0.10520  0.31338  1.0000
  H   H8        1.0  0.26005  0.89483  0.68663  1.0000
  H   H9        1.0  0.73941  0.33843  0.32677  1.0000
  H   H10       1.0  0.26060  0.66159  0.67320  1.0000
  H   H11       1.0  0.43862  0.73185  0.30939  1.0000
  H   H12       1.0  0.56138  0.26814  0.69060  1.0000
  H   H13       1.0  0.23936  0.84449  0.24251  1.0000
  H   H14       1.0  0.76066  0.15552  0.75748  1.0000
  H   H15       1.0  0.04190  0.96655  0.13942  1.0000
  H   H16       1.0  0.95814  0.03349  0.86058  1.0000
  H   H17       1.0  0.96752  0.83817  0.01310  1.0000
  H   H18       1.0  0.03247  0.16186  0.98692  1.0000
  H   H19       1.0  0.10439  0.59919  0.99438  1.0000
  H   H20       1.0  0.89554  0.40082  0.00565  1.0000
  H   H21       1.0  0.91144  0.52011  0.32338  1.0000
  H   H22       1.0  0.08858  0.47990  0.67660  1.0000
  H   H23       1.0  0.04575  0.64750  0.41882  1.0000
  H   H24       1.0  0.95426  0.35249  0.58117  1.0000
  H   H25       1.0  0.63937  0.81014  0.56190  1.0000
  H   H26       1.0  0.36063  0.18984  0.43809  1.0000
  H   H27       1.0  0.48812  0.69628  0.47136  1.0000
  H   H28       1.0  0.51189  0.30372  0.52862  1.0000
  C   C1        1.0  0.50301  0.07851  0.11241  1.0000
  C   C2        1.0  0.49699  0.92147  0.88761  1.0000
  C   C3        1.0  0.60709  0.96159  0.14334  1.0000
  C   C4        1.0  0.39293  0.03839  0.85668  1.0000
  C   C5        1.0  0.69393  0.97099  0.21602  1.0000
  C   C6        1.0  0.30609  0.02901  0.78399  1.0000
  C   C7        1.0  0.67615  0.09664  0.25471  1.0000
  C   C8        1.0  0.32385  0.90337  0.74530  1.0000
  C   C9        1.0  0.57471  0.21243  0.21634  1.0000
  C   C10       1.0  0.42528  0.78757  0.78366  1.0000
  C   C11       1.0  0.55113  0.35428  0.24602  1.0000
  C   C12       1.0  0.44886  0.64572  0.75397  1.0000
  C   C13       1.0  0.64047  0.40473  0.30202  1.0000
  C   C14       1.0  0.35954  0.59528  0.69795  1.0000
  C   C15       1.0  0.59900  0.54118  0.32707  1.0000
  C   C16       1.0  0.40101  0.45883  0.67291  1.0000
  C   C17       1.0  0.47260  0.62491  0.29180  1.0000
  C   C18       1.0  0.52739  0.37509  0.70819  1.0000
  C   C19       1.0  0.39599  0.57372  0.22894  1.0000
  C   C20       1.0  0.60399  0.42628  0.77106  1.0000
  C   C21       1.0  0.27738  0.65774  0.17260  1.0000
  C   C22       1.0  0.72260  0.34226  0.82740  1.0000
  C   C23       1.0  0.20891  0.79351  0.18603  1.0000
  C   C24       1.0  0.79110  0.20650  0.81397  1.0000
  C   C25       1.0  0.09682  0.86129  0.12813  1.0000
  C   C26       1.0  0.90319  0.13874  0.87187  1.0000
  C   C27       1.0  0.05687  0.79258  0.05824  1.0000
  C   C28       1.0  0.94312  0.20744  0.94177  1.0000
  C   C29       1.0  0.13098  0.65765  0.04796  1.0000
  C   C30       1.0  0.86898  0.34235  0.95206  1.0000
  C   C31       1.0  0.68670  0.59958  0.38763  1.0000
  C   C32       1.0  0.31331  0.40043  0.61234  1.0000
  C   C33       1.0  0.84603  0.58297  0.37581  1.0000
  C   C34       1.0  0.15398  0.41704  0.62416  1.0000
  C   C35       1.0  0.92162  0.65312  0.42901  1.0000
  C   C36       1.0  0.07838  0.34688  0.57098  1.0000
  C   C37       1.0  0.69528  0.74436  0.50885  1.0000
  C   C38       1.0  0.30473  0.25563  0.49114  1.0000
  C   C39       1.0  0.61175  0.68073  0.45734  1.0000
  C   C40       1.0  0.38825  0.31927  0.54264  1.0000
  I   I1        1.0  0.05613  0.23632  0.23854  1.0000
  I   I2        1.0  0.94387  0.76366  0.76146  1.0000
  I   I3        1.0  0.23516  0.89401  0.45583  1.0000
  I   I4        1.0  0.76484  0.10598  0.54417  1.0000
  N   N1        1.0  0.48861  0.20160  0.14682  1.0000
  N   N2        1.0  0.51139  0.79838  0.85319  1.0000
  N   N3        1.0  0.43351  0.43901  0.21074  1.0000
  N   N4        1.0  0.56647  0.56098  0.78926  1.0000
  N   N5        1.0  0.23830  0.59222  0.10362  1.0000
  N   N6        1.0  0.76166  0.40778  0.89639  1.0000
  N   N7        1.0  0.84900  0.73454  0.49399  1.0000
  N   N8        1.0  0.15101  0.26544  0.50601  1.0000
  Cl  Cl1       1.0  0.28363  0.34843  0.96468  1.0000
  Cl  Cl2       1.0  0.71636  0.65156  0.03532  1.0000
