data_image0
_chemical_formula_structural       Cd2H46C58N10O14
_chemical_formula_sum              "Cd2 H46 C58 N10 O14"
_cell_length_a       9.03876
_cell_length_b       11.0346
_cell_length_c       15.6382
_cell_angle_alpha    89.9992
_cell_angle_beta     89.9999
_cell_angle_gamma    102.747

_space_group_name_H-M_alt    "P 1"
_space_group_IT_number       1

loop_
  _space_group_symop_operation_xyz
  'x, y, z'

loop_
  _atom_site_type_symbol
  _atom_site_label
  _atom_site_symmetry_multiplicity
  _atom_site_fract_x
  _atom_site_fract_y
  _atom_site_fract_z
  _atom_site_occupancy
  Cd  Cd1       1.0  0.96176  0.96249  0.19931  1.0000
  Cd  Cd2       1.0  0.03825  0.03751  0.69930  1.0000
  H   H1        1.0  0.58512  0.13813  0.26371  1.0000
  H   H2        1.0  0.41489  0.86187  0.76372  1.0000
  H   H3        1.0  0.97653  0.30772  0.82613  1.0000
  H   H4        1.0  0.02347  0.69227  0.32612  1.0000
  H   H5        1.0  0.80228  0.22569  0.57944  1.0000
  H   H6        1.0  0.19771  0.77430  0.07944  1.0000
  H   H7        1.0  0.77044  0.53203  0.31995  1.0000
  H   H8        1.0  0.22954  0.46796  0.81996  1.0000
  H   H9        1.0  0.67048  0.60854  0.05875  1.0000
  H   H10       1.0  0.32953  0.39148  0.55876  1.0000
  H   H11       1.0  0.65079  0.31280  0.30022  1.0000
  H   H12       1.0  0.34918  0.68720  0.80023  1.0000
  H   H13       1.0  0.55363  0.38334  0.03663  1.0000
  H   H14       1.0  0.44638  0.61667  0.53664  1.0000
  H   H15       1.0  0.46789  0.95118  0.13566  1.0000
  H   H16       1.0  0.53210  0.04882  0.63566  1.0000
  H   H17       1.0  0.41461  0.80794  0.26020  1.0000
  H   H18       1.0  0.58540  0.19206  0.76020  1.0000
  H   H19       1.0  0.45992  0.93559  0.33235  1.0000
  H   H20       1.0  0.54008  0.06441  0.83236  1.0000
  H   H21       1.0  0.60206  0.89813  0.26346  1.0000
  H   H22       1.0  0.39795  0.10187  0.76347  1.0000
  H   H23       1.0  0.17483  0.13644  0.05767  1.0000
  H   H24       1.0  0.82519  0.86357  0.55767  1.0000
  H   H25       1.0  0.71041  0.05452  0.10141  1.0000
  H   H26       1.0  0.28960  0.94547  0.60140  1.0000
  H   H27       1.0  0.14463  0.25947  0.92770  1.0000
  H   H28       1.0  0.85538  0.74054  0.42769  1.0000
  H   H29       1.0  0.66254  0.18209  0.97860  1.0000
  H   H30       1.0  0.33747  0.81790  0.47860  1.0000
  H   H31       1.0  0.85771  0.30007  0.69500  1.0000
  H   H32       1.0  0.14231  0.69993  0.19499  1.0000
  H   H33       1.0  0.77112  0.62090  0.56436  1.0000
  H   H34       1.0  0.22889  0.37908  0.06437  1.0000
  H   H35       1.0  0.72035  0.71296  0.70462  1.0000
  H   H36       1.0  0.27964  0.28703  0.20463  1.0000
  H   H37       1.0  0.71558  0.58722  0.83786  1.0000
  H   H38       1.0  0.28441  0.41277  0.33787  1.0000
  H   H39       1.0  0.96413  0.37174  0.37417  1.0000
  H   H40       1.0  0.03587  0.62826  0.87417  1.0000
  H   H41       1.0  0.73287  0.03888  0.50663  1.0000
  H   H42       1.0  0.26711  0.96111  0.00663  1.0000
  H   H43       1.0  0.99239  0.23819  0.25062  1.0000
  H   H44       1.0  0.00762  0.76181  0.75062  1.0000
  H   H45       1.0  0.77242  0.91919  0.37759  1.0000
  H   H46       1.0  0.22757  0.08081  0.87758  1.0000
  C   C1        1.0  0.80072  0.71909  0.20148  1.0000
  C   C2        1.0  0.19928  0.28091  0.70148  1.0000
  C   C3        1.0  0.72817  0.58459  0.19020  1.0000
  C   C4        1.0  0.27183  0.41541  0.69021  1.0000
  C   C5        1.0  0.72320  0.50002  0.25770  1.0000
  C   C6        1.0  0.27678  0.49997  0.75771  1.0000
  C   C7        1.0  0.66580  0.54200  0.11073  1.0000
  C   C8        1.0  0.33420  0.45801  0.61073  1.0000
  C   C9        1.0  0.65576  0.37507  0.24565  1.0000
  C   C10       1.0  0.34422  0.62493  0.74565  1.0000
  C   C11       1.0  0.59996  0.41698  0.09857  1.0000
  C   C12       1.0  0.40003  0.58303  0.59858  1.0000
  C   C13       1.0  0.59407  0.33214  0.16595  1.0000
  C   C14       1.0  0.40592  0.66786  0.66595  1.0000
  C   C15       1.0  0.51491  0.20041  0.14908  1.0000
  C   C16       1.0  0.48508  0.79959  0.64909  1.0000
  C   C17       1.0  0.44254  0.98664  0.19856  1.0000
  C   C18       1.0  0.55746  0.01336  0.69856  1.0000
  C   C19       1.0  0.48236  0.90257  0.26833  1.0000
  C   C20       1.0  0.51764  0.09744  0.76834  1.0000
  C   C21       1.0  0.27174  0.98249  0.19931  1.0000
  C   C22       1.0  0.72825  0.01751  0.69931  1.0000
  C   C23       1.0  0.06249  0.14572  0.03690  1.0000
  C   C24       1.0  0.93752  0.85428  0.53690  1.0000
  C   C25       1.0  0.80423  0.10245  0.06181  1.0000
  C   C26       1.0  0.19579  0.89754  0.56180  1.0000
  C   C27       1.0  0.04593  0.21454  0.96489  1.0000
  C   C28       1.0  0.95407  0.78546  0.46489  1.0000
  C   C29       1.0  0.77708  0.17225  0.99224  1.0000
  C   C30       1.0  0.22293  0.82774  0.49224  1.0000
  C   C31       1.0  0.90096  0.22956  0.94131  1.0000
  C   C32       1.0  0.09904  0.77044  0.44131  1.0000
  C   C33       1.0  0.77818  0.36655  0.85606  1.0000
  C   C34       1.0  0.22183  0.63346  0.35605  1.0000
  C   C35       1.0  0.78842  0.43765  0.77406  1.0000
  C   C36       1.0  0.21158  0.56235  0.27406  1.0000
  C   C37       1.0  0.82556  0.38969  0.69605  1.0000
  C   C38       1.0  0.17445  0.61031  0.19604  1.0000
  C   C39       1.0  0.81581  0.45514  0.62002  1.0000
  C   C40       1.0  0.18420  0.54485  0.12001  1.0000
  C   C41       1.0  0.77793  0.57154  0.62390  1.0000
  C   C42       1.0  0.22208  0.42845  0.12391  1.0000
  C   C43       1.0  0.74663  0.62131  0.70196  1.0000
  C   C44       1.0  0.25336  0.37868  0.20197  1.0000
  C   C45       1.0  0.74700  0.55280  0.77665  1.0000
  C   C46       1.0  0.25300  0.44719  0.27665  1.0000
  C   C47       1.0  0.84113  0.40811  0.53266  1.0000
  C   C48       1.0  0.15889  0.59189  0.03265  1.0000
  C   C49       1.0  0.84755  0.21669  0.45207  1.0000
  C   C50       1.0  0.15245  0.78330  0.95207  1.0000
  C   C51       1.0  0.92014  0.27219  0.37760  1.0000
  C   C52       1.0  0.07987  0.72781  0.87760  1.0000
  C   C53       1.0  0.79134  0.08686  0.45121  1.0000
  C   C54       1.0  0.20864  0.91314  0.95120  1.0000
  C   C55       1.0  0.93501  0.19715  0.30849  1.0000
  C   C56       1.0  0.06499  0.80284  0.80849  1.0000
  C   C57       1.0  0.81262  0.01974  0.37927  1.0000
  C   C58       1.0  0.18737  0.98026  0.87926  1.0000
  N   N1        1.0  0.52985  0.11301  0.20791  1.0000
  N   N2        1.0  0.47014  0.88700  0.70792  1.0000
  N   N3        1.0  0.94343  0.08929  0.08515  1.0000
  N   N4        1.0  0.05659  0.91072  0.58515  1.0000
  N   N5        1.0  0.88728  0.29882  0.86872  1.0000
  N   N6        1.0  0.11273  0.70119  0.36871  1.0000
  N   N7        1.0  0.83004  0.28131  0.52602  1.0000
  N   N8        1.0  0.16996  0.71868  0.02602  1.0000
  N   N9        1.0  0.88326  0.07278  0.30821  1.0000
  N   N10       1.0  0.11674  0.92722  0.80821  1.0000
  O   O1        1.0  0.88212  0.75384  0.26801  1.0000
  O   O2        1.0  0.11787  0.24616  0.76801  1.0000
  O   O3        1.0  0.78213  0.79613  0.14375  1.0000
  O   O4        1.0  0.21788  0.20388  0.64375  1.0000
  O   O5        1.0  0.43772  0.16967  0.08318  1.0000
  O   O6        1.0  0.56225  0.83034  0.58318  1.0000
  O   O7        1.0  0.22017  0.06034  0.24258  1.0000
  O   O8        1.0  0.77983  0.93965  0.74257  1.0000
  O   O9        1.0  0.18614  0.89499  0.15644  1.0000
  O   O10       1.0  0.81385  0.10501  0.65644  1.0000
  O   O11       1.0  0.67691  0.37141  0.90823  1.0000
  O   O12       1.0  0.32311  0.62859  0.40822  1.0000
  O   O13       1.0  0.86455  0.47851  0.47010  1.0000
  O   O14       1.0  0.13549  0.52149  0.97010  1.0000
