data_image0
_chemical_formula_structural       Cu4H28C40Br6N8
_chemical_formula_sum              "Cu4 H28 C40 Br6 N8"
_cell_length_a       8.76708
_cell_length_b       9.08665
_cell_length_c       13.7537
_cell_angle_alpha    72.2119
_cell_angle_beta     74.2531
_cell_angle_gamma    84.8916

_space_group_name_H-M_alt    "P 1"
_space_group_IT_number       1

loop_
  _space_group_symop_operation_xyz
  'x, y, z'

loop_
  _atom_site_type_symbol
  _atom_site_label
  _atom_site_symmetry_multiplicity
  _atom_site_fract_x
  _atom_site_fract_y
  _atom_site_fract_z
  _atom_site_occupancy
  Cu  Cu1       1.0  0.17637  0.61889  0.36873  1.0000
  Cu  Cu2       1.0  0.82387  0.38144  0.63131  1.0000
  Cu  Cu3       1.0  0.44927  0.85585  0.05812  1.0000
  Cu  Cu4       1.0  0.55065  0.14421  0.94209  1.0000
  H   H1        1.0  0.06912  0.25935  0.18181  1.0000
  H   H2        1.0  0.93077  0.74045  0.81849  1.0000
  H   H3        1.0  0.76044  0.66047  0.17179  1.0000
  H   H4        1.0  0.23957  0.33937  0.82846  1.0000
  H   H5        1.0  0.41006  0.39066  0.47847  1.0000
  H   H6        1.0  0.58940  0.60837  0.52213  1.0000
  H   H7        1.0  0.53003  0.13509  0.46915  1.0000
  H   H8        1.0  0.47003  0.86431  0.53084  1.0000
  H   H9        1.0  0.75128  0.89292  0.19273  1.0000
  H   H10       1.0  0.24941  0.10736  0.80669  1.0000
  H   H11       1.0  0.25993  0.13692  0.24846  1.0000
  H   H12       1.0  0.74036  0.86327  0.75123  1.0000
  H   H13       1.0  0.06154  0.91169  0.43862  1.0000
  H   H14       1.0  0.93732  0.08812  0.56195  1.0000
  H   H15       1.0  0.44526  0.00062  0.35387  1.0000
  H   H16       1.0  0.55497  0.99928  0.64577  1.0000
  H   H17       1.0  0.86754  0.12896  0.39230  1.0000
  H   H18       1.0  0.13180  0.87110  0.60772  1.0000
  H   H19       1.0  0.71466  0.11879  0.26438  1.0000
  H   H20       1.0  0.28547  0.88134  0.73520  1.0000
  H   H21       1.0  0.58489  0.49098  0.16711  1.0000
  H   H22       1.0  0.41512  0.50908  0.83302  1.0000
  H   H23       1.0  0.86986  0.15648  0.95383  1.0000
  H   H24       1.0  0.13008  0.84395  0.04597  1.0000
  H   H25       1.0  0.02229  0.27532  0.03672  1.0000
  H   H26       1.0  0.97768  0.72461  0.96336  1.0000
  H   H27       1.0  0.45111  0.35927  0.07813  1.0000
  H   H28       1.0  0.54892  0.64111  0.92183  1.0000
  C   C1        1.0  0.11270  0.42081  0.25748  1.0000
  C   C2        1.0  0.88767  0.57937  0.74240  1.0000
  C   C3        1.0  0.92365  0.78403  0.27967  1.0000
  C   C4        1.0  0.07644  0.21607  0.72025  1.0000
  C   C5        1.0  0.23109  0.33284  0.31112  1.0000
  C   C6        1.0  0.76903  0.66705  0.68894  1.0000
  C   C7        1.0  0.03421  0.36857  0.19898  1.0000
  C   C8        1.0  0.96584  0.63137  0.80113  1.0000
  C   C9        1.0  0.86197  0.59278  0.19302  1.0000
  C   C10       1.0  0.13821  0.40717  0.80704  1.0000
  C   C11       1.0  0.37860  0.32986  0.42951  1.0000
  C   C12       1.0  0.62112  0.66951  0.57080  1.0000
  C   C13       1.0  0.44383  0.18594  0.42412  1.0000
  C   C14       1.0  0.55618  0.81362  0.57588  1.0000
  C   C15       1.0  0.90524  0.45423  0.16724  1.0000
  C   C16       1.0  0.09481  0.54571  0.83284  1.0000
  C   C17       1.0  0.81758  0.90093  0.24745  1.0000
  C   C18       1.0  0.18271  0.09924  0.75222  1.0000
  C   C19       1.0  0.95218  0.64293  0.24617  1.0000
  C   C20       1.0  0.04822  0.35725  0.75366  1.0000
  C   C21       1.0  0.29228  0.18905  0.30175  1.0000
  C   C22       1.0  0.70788  0.81093  0.69809  1.0000
  C   C23       1.0  0.98923  0.91352  0.38500  1.0000
  C   C24       1.0  0.01008  0.08638  0.61529  1.0000
  C   C25       1.0  0.81712  0.39330  0.11085  1.0000
  C   C26       1.0  0.18290  0.60669  0.88926  1.0000
  C   C27       1.0  0.39881  0.11380  0.36018  1.0000
  C   C28       1.0  0.60128  0.88598  0.63964  1.0000
  C   C29       1.0  0.88273  0.03279  0.35839  1.0000
  C   C30       1.0  0.11679  0.96722  0.64163  1.0000
  C   C31       1.0  0.79703  0.02640  0.28789  1.0000
  C   C32       1.0  0.20293  0.97367  0.71185  1.0000
  C   C33       1.0  0.65395  0.41872  0.12000  1.0000
  C   C34       1.0  0.34605  0.58134  0.88007  1.0000
  C   C35       1.0  0.81190  0.23264  0.00086  1.0000
  C   C36       1.0  0.18803  0.76765  0.99904  1.0000
  C   C37       1.0  0.89556  0.29894  0.04849  1.0000
  C   C38       1.0  0.10440  0.70110  0.95154  1.0000
  C   C39       1.0  0.57828  0.34623  0.07041  1.0000
  C   C40       1.0  0.42170  0.65405  0.92953  1.0000
  Br  Br1       1.0  0.27299  0.10236  0.04733  1.0000
  Br  Br2       1.0  0.72681  0.89741  0.95300  1.0000
  Br  Br3       1.0  0.44312  0.76325  0.24169  1.0000
  Br  Br4       1.0  0.55706  0.23680  0.75832  1.0000
  Br  Br5       1.0  0.23165  0.64728  0.52309  1.0000
  Br  Br6       1.0  0.76923  0.35338  0.47649  1.0000
  N   N1        1.0  0.07418  0.55791  0.27593  1.0000
  N   N2        1.0  0.92667  0.44259  0.72358  1.0000
  N   N3        1.0  0.27341  0.40058  0.37545  1.0000
  N   N4        1.0  0.72622  0.59894  0.62496  1.0000
  N   N5        1.0  0.00924  0.79219  0.34687  1.0000
  N   N6        1.0  0.99024  0.20759  0.65348  1.0000
  N   N7        1.0  0.65444  0.25366  0.01166  1.0000
  N   N8        1.0  0.34550  0.74672  0.98816  1.0000
