data_image0
_chemical_formula_structural       Ag4H32C40N12O12
_chemical_formula_sum              "Ag4 H32 C40 N12 O12"
_cell_length_a       6.90112
_cell_length_b       8.66511
_cell_length_c       17.6833
_cell_angle_alpha    100.359
_cell_angle_beta     90.0002
_cell_angle_gamma    90.0001

_space_group_name_H-M_alt    "P 1"
_space_group_IT_number       1

loop_
  _space_group_symop_operation_xyz
  'x, y, z'

loop_
  _atom_site_type_symbol
  _atom_site_label
  _atom_site_symmetry_multiplicity
  _atom_site_fract_x
  _atom_site_fract_y
  _atom_site_fract_z
  _atom_site_occupancy
  Ag  Ag1       1.0  0.03216  0.87304  0.69177  1.0000
  Ag  Ag2       1.0  0.53217  0.62696  0.80823  1.0000
  Ag  Ag3       1.0  0.96784  0.12696  0.30823  1.0000
  Ag  Ag4       1.0  0.46783  0.37305  0.19177  1.0000
  H   H1        1.0  0.25173  0.33938  0.55333  1.0000
  H   H2        1.0  0.75173  0.16062  0.94667  1.0000
  H   H3        1.0  0.74826  0.66062  0.44667  1.0000
  H   H4        1.0  0.24827  0.83938  0.05333  1.0000
  H   H5        1.0  0.13962  0.56262  0.65286  1.0000
  H   H6        1.0  0.63962  0.93737  0.84714  1.0000
  H   H7        1.0  0.86038  0.43737  0.34714  1.0000
  H   H8        1.0  0.36038  0.06263  0.15286  1.0000
  H   H9        1.0  0.97198  0.50668  0.77047  1.0000
  H   H10       1.0  0.47198  0.99332  0.72953  1.0000
  H   H11       1.0  0.02802  0.49331  0.22953  1.0000
  H   H12       1.0  0.52802  0.00669  0.27047  1.0000
  H   H13       1.0  0.93199  0.22399  0.78492  1.0000
  H   H14       1.0  0.43198  0.27601  0.71508  1.0000
  H   H15       1.0  0.06802  0.77600  0.21508  1.0000
  H   H16       1.0  0.56801  0.72400  0.28492  1.0000
  H   H17       1.0  0.23715  0.14853  0.46388  1.0000
  H   H18       1.0  0.73715  0.35147  0.03612  1.0000
  H   H19       1.0  0.76285  0.85147  0.53612  1.0000
  H   H20       1.0  0.26285  0.64853  0.96388  1.0000
  H   H21       1.0  0.34242  0.91190  0.37286  1.0000
  H   H22       1.0  0.84241  0.58809  0.12714  1.0000
  H   H23       1.0  0.65758  0.08810  0.62714  1.0000
  H   H24       1.0  0.15758  0.41190  0.87286  1.0000
  H   H25       1.0  0.37235  0.65393  0.42016  1.0000
  H   H26       1.0  0.87235  0.84607  0.07984  1.0000
  H   H27       1.0  0.62765  0.34607  0.57983  1.0000
  H   H28       1.0  0.12765  0.15393  0.92016  1.0000
  H   H29       1.0  0.29006  0.64884  0.55659  1.0000
  H   H30       1.0  0.79005  0.85116  0.94342  1.0000
  H   H31       1.0  0.70995  0.35116  0.44341  1.0000
  H   H32       1.0  0.20995  0.14885  0.05659  1.0000
  C   C1        1.0  0.14728  0.16303  0.61647  1.0000
  C   C2        1.0  0.64728  0.33697  0.88353  1.0000
  C   C3        1.0  0.85272  0.83697  0.38353  1.0000
  C   C4        1.0  0.35272  0.66303  0.11647  1.0000
  C   C5        1.0  0.17828  0.31702  0.60474  1.0000
  C   C6        1.0  0.67828  0.18298  0.89526  1.0000
  C   C7        1.0  0.82172  0.68298  0.39525  1.0000
  C   C8        1.0  0.32172  0.81702  0.10474  1.0000
  C   C9        1.0  0.11587  0.44190  0.66031  1.0000
  C   C10       1.0  0.61588  0.05810  0.83969  1.0000
  C   C11       1.0  0.88413  0.55810  0.33969  1.0000
  C   C12       1.0  0.38413  0.94190  0.16030  1.0000
  C   C13       1.0  0.02434  0.41144  0.72637  1.0000
  C   C14       1.0  0.52434  0.08856  0.77363  1.0000
  C   C15       1.0  0.97566  0.58856  0.27363  1.0000
  C   C16       1.0  0.47566  0.91144  0.22637  1.0000
  C   C17       1.0  0.00063  0.25540  0.73424  1.0000
  C   C18       1.0  0.50063  0.24459  0.76576  1.0000
  C   C19       1.0  0.99937  0.74459  0.26576  1.0000
  C   C20       1.0  0.49937  0.75541  0.23424  1.0000
  C   C21       1.0  0.20984  0.02438  0.55954  1.0000
  C   C22       1.0  0.70983  0.47562  0.94047  1.0000
  C   C23       1.0  0.79016  0.97562  0.44046  1.0000
  C   C24       1.0  0.29016  0.52438  0.05954  1.0000
  C   C25       1.0  0.25283  0.03701  0.48349  1.0000
  C   C26       1.0  0.75283  0.46299  0.01651  1.0000
  C   C27       1.0  0.74717  0.96299  0.51651  1.0000
  C   C28       1.0  0.24717  0.53701  0.98349  1.0000
  C   C29       1.0  0.31119  0.90393  0.43239  1.0000
  C   C30       1.0  0.81119  0.59606  0.06762  1.0000
  C   C31       1.0  0.68881  0.09607  0.56761  1.0000
  C   C32       1.0  0.18881  0.40394  0.93239  1.0000
  C   C33       1.0  0.32639  0.76130  0.45789  1.0000
  C   C34       1.0  0.82639  0.73870  0.04211  1.0000
  C   C35       1.0  0.67361  0.23870  0.54211  1.0000
  C   C36       1.0  0.17361  0.26130  0.95789  1.0000
  C   C37       1.0  0.27952  0.75787  0.53419  1.0000
  C   C38       1.0  0.77952  0.74213  0.96581  1.0000
  C   C39       1.0  0.72048  0.24213  0.46580  1.0000
  C   C40       1.0  0.22048  0.25787  0.03419  1.0000
  N   N1        1.0  0.69187  0.64306  0.64917  1.0000
  N   N2        1.0  0.19187  0.85695  0.85083  1.0000
  N   N3        1.0  0.30813  0.35695  0.35083  1.0000
  N   N4        1.0  0.80813  0.14305  0.14917  1.0000
  N   N5        1.0  0.05963  0.13467  0.68089  1.0000
  N   N6        1.0  0.55963  0.36533  0.81911  1.0000
  N   N7        1.0  0.94037  0.86532  0.31910  1.0000
  N   N8        1.0  0.44037  0.63468  0.18089  1.0000
  N   N9        1.0  0.22168  0.88536  0.58400  1.0000
  N   N10       1.0  0.72168  0.61464  0.91600  1.0000
  N   N11       1.0  0.77832  0.11464  0.41600  1.0000
  N   N12       1.0  0.27832  0.38536  0.08400  1.0000
  O   O1        1.0  0.76162  0.73017  0.71061  1.0000
  O   O2        1.0  0.26162  0.76983  0.78939  1.0000
  O   O3        1.0  0.23838  0.26983  0.28939  1.0000
  O   O4        1.0  0.73838  0.23017  0.21061  1.0000
  O   O5        1.0  0.54149  0.56376  0.65635  1.0000
  O   O6        1.0  0.04149  0.93624  0.84364  1.0000
  O   O7        1.0  0.45851  0.43624  0.34365  1.0000
  O   O8        1.0  0.95851  0.06376  0.15635  1.0000
  O   O9        1.0  0.77419  0.63855  0.58566  1.0000
  O   O10       1.0  0.27420  0.86147  0.91434  1.0000
  O   O11       1.0  0.22581  0.36146  0.41434  1.0000
  O   O12       1.0  0.72580  0.13853  0.08566  1.0000
