data_image0
_chemical_formula_structural       Ag4H48C72N12O12
_chemical_formula_sum              "Ag4 H48 C72 N12 O12"
_cell_length_a       8.14827
_cell_length_b       10.857
_cell_length_c       17.9859
_cell_angle_alpha    103.58
_cell_angle_beta     89.9994
_cell_angle_gamma    90.0008

_space_group_name_H-M_alt    "P 1"
_space_group_IT_number       1

loop_
  _space_group_symop_operation_xyz
  'x, y, z'

loop_
  _atom_site_type_symbol
  _atom_site_label
  _atom_site_symmetry_multiplicity
  _atom_site_fract_x
  _atom_site_fract_y
  _atom_site_fract_z
  _atom_site_occupancy
  Ag  Ag1       1.0  0.89742  0.49157  0.34549  1.0000
  Ag  Ag2       1.0  0.39742  0.50844  0.15451  1.0000
  Ag  Ag3       1.0  0.10259  0.50843  0.65451  1.0000
  Ag  Ag4       1.0  0.60258  0.49156  0.84549  1.0000
  H   H1        1.0  0.70502  0.33724  0.59068  1.0000
  H   H2        1.0  0.20501  0.66275  0.90932  1.0000
  H   H3        1.0  0.29498  0.66276  0.40932  1.0000
  H   H4        1.0  0.79499  0.33725  0.09068  1.0000
  H   H5        1.0  0.56426  0.53081  0.65952  1.0000
  H   H6        1.0  0.06426  0.46917  0.84048  1.0000
  H   H7        1.0  0.43574  0.46919  0.34048  1.0000
  H   H8        1.0  0.93574  0.53082  0.15952  1.0000
  H   H9        1.0  0.48743  0.76057  0.66580  1.0000
  H   H10       1.0  0.98743  0.23942  0.83420  1.0000
  H   H11       1.0  0.51257  0.23943  0.33420  1.0000
  H   H12       1.0  0.01257  0.76059  0.16580  1.0000
  H   H13       1.0  0.49207  0.94321  0.60563  1.0000
  H   H14       1.0  0.99207  0.05678  0.89438  1.0000
  H   H15       1.0  0.50793  0.05679  0.39437  1.0000
  H   H16       1.0  0.00792  0.94322  0.10562  1.0000
  H   H17       1.0  0.62411  0.92349  0.47788  1.0000
  H   H18       1.0  0.12412  0.07650  0.02212  1.0000
  H   H19       1.0  0.37589  0.07651  0.52212  1.0000
  H   H20       1.0  0.87588  0.92350  0.97788  1.0000
  H   H21       1.0  0.75891  0.72084  0.41185  1.0000
  H   H22       1.0  0.25891  0.27916  0.08815  1.0000
  H   H23       1.0  0.24110  0.27916  0.58815  1.0000
  H   H24       1.0  0.74109  0.72084  0.91185  1.0000
  H   H25       1.0  0.78797  0.17908  0.52501  1.0000
  H   H26       1.0  0.28797  0.82091  0.97498  1.0000
  H   H27       1.0  0.21203  0.82092  0.47499  1.0000
  H   H28       1.0  0.71203  0.17908  0.02502  1.0000
  H   H29       1.0  0.92742  0.98905  0.44716  1.0000
  H   H30       1.0  0.42741  0.01095  0.05284  1.0000
  H   H31       1.0  0.07258  0.01095  0.55284  1.0000
  H   H32       1.0  0.57258  0.98905  0.94716  1.0000
  H   H33       1.0  0.10721  0.89234  0.33454  1.0000
  H   H34       1.0  0.60721  0.10767  0.16546  1.0000
  H   H35       1.0  0.89279  0.10766  0.66546  1.0000
  H   H36       1.0  0.39278  0.89233  0.83454  1.0000
  H   H37       1.0  0.25546  0.91651  0.21972  1.0000
  H   H38       1.0  0.75546  0.08349  0.28028  1.0000
  H   H39       1.0  0.74454  0.08349  0.78028  1.0000
  H   H40       1.0  0.24453  0.91651  0.71973  1.0000
  H   H41       1.0  0.26108  0.12578  0.18395  1.0000
  H   H42       1.0  0.76109  0.87423  0.31604  1.0000
  H   H43       1.0  0.73891  0.87422  0.81605  1.0000
  H   H44       1.0  0.23891  0.12578  0.68396  1.0000
  H   H45       1.0  0.11745  0.31209  0.26480  1.0000
  H   H46       1.0  0.61745  0.68791  0.23519  1.0000
  H   H47       1.0  0.88255  0.68791  0.73520  1.0000
  H   H48       1.0  0.38256  0.31209  0.76481  1.0000
  C   C1        1.0  0.78152  0.41742  0.49556  1.0000
  C   C2        1.0  0.28151  0.58258  0.00444  1.0000
  C   C3        1.0  0.21848  0.58258  0.50444  1.0000
  C   C4        1.0  0.71849  0.41742  0.99556  1.0000
  C   C5        1.0  0.70400  0.42012  0.56662  1.0000
  C   C6        1.0  0.20400  0.57987  0.93339  1.0000
  C   C7        1.0  0.29600  0.57988  0.43338  1.0000
  C   C8        1.0  0.79600  0.42013  0.06662  1.0000
  C   C9        1.0  0.62540  0.52846  0.60526  1.0000
  C   C10       1.0  0.12539  0.47153  0.89474  1.0000
  C   C11       1.0  0.37460  0.47154  0.39474  1.0000
  C   C12       1.0  0.87461  0.52847  0.10526  1.0000
  C   C13       1.0  0.62257  0.63656  0.57406  1.0000
  C   C14       1.0  0.12258  0.36343  0.92594  1.0000
  C   C15       1.0  0.37743  0.36344  0.42594  1.0000
  C   C16       1.0  0.87742  0.63657  0.07406  1.0000
  C   C17       1.0  0.54634  0.75241  0.61040  1.0000
  C   C18       1.0  0.04634  0.24758  0.88961  1.0000
  C   C19       1.0  0.45366  0.24759  0.38960  1.0000
  C   C20       1.0  0.95365  0.75242  0.11040  1.0000
  C   C21       1.0  0.54856  0.85389  0.57646  1.0000
  C   C22       1.0  0.04856  0.14609  0.92354  1.0000
  C   C23       1.0  0.45144  0.14611  0.42354  1.0000
  C   C24       1.0  0.95143  0.85390  0.07646  1.0000
  C   C25       1.0  0.62450  0.84281  0.50435  1.0000
  C   C26       1.0  0.12450  0.15718  0.99566  1.0000
  C   C27       1.0  0.37550  0.15719  0.49565  1.0000
  C   C28       1.0  0.87549  0.84281  0.00434  1.0000
  C   C29       1.0  0.69956  0.73138  0.46745  1.0000
  C   C30       1.0  0.19957  0.26861  0.03255  1.0000
  C   C31       1.0  0.30044  0.26862  0.53255  1.0000
  C   C32       1.0  0.80043  0.73139  0.96745  1.0000
  C   C33       1.0  0.70174  0.62632  0.50178  1.0000
  C   C34       1.0  0.20174  0.37368  0.99822  1.0000
  C   C35       1.0  0.29826  0.37369  0.49822  1.0000
  C   C36       1.0  0.79826  0.62632  0.00178  1.0000
  C   C37       1.0  0.86748  0.30194  0.45163  1.0000
  C   C38       1.0  0.36747  0.69806  0.04836  1.0000
  C   C39       1.0  0.13253  0.69806  0.54837  1.0000
  C   C40       1.0  0.63253  0.30194  0.95164  1.0000
  C   C41       1.0  0.85816  0.18553  0.47467  1.0000
  C   C42       1.0  0.35816  0.81446  0.02533  1.0000
  C   C43       1.0  0.14184  0.81447  0.52533  1.0000
  C   C44       1.0  0.64184  0.18553  0.97467  1.0000
  C   C45       1.0  0.93575  0.08021  0.43170  1.0000
  C   C46       1.0  0.43574  0.91979  0.06829  1.0000
  C   C47       1.0  0.06426  0.91979  0.56830  1.0000
  C   C48       1.0  0.56426  0.08020  0.93170  1.0000
  C   C49       1.0  0.02649  0.08849  0.36604  1.0000
  C   C50       1.0  0.52649  0.91152  0.13396  1.0000
  C   C51       1.0  0.97351  0.91152  0.63396  1.0000
  C   C52       1.0  0.47351  0.08848  0.86604  1.0000
  C   C53       1.0  0.10945  0.98391  0.31944  1.0000
  C   C54       1.0  0.60945  0.01610  0.18055  1.0000
  C   C55       1.0  0.89055  0.01609  0.68056  1.0000
  C   C56       1.0  0.39054  0.98391  0.81945  1.0000
  C   C57       1.0  0.19141  0.99760  0.25481  1.0000
  C   C58       1.0  0.69141  0.00240  0.24519  1.0000
  C   C59       1.0  0.80859  0.00240  0.74519  1.0000
  C   C60       1.0  0.30858  0.99760  0.75481  1.0000
  C   C61       1.0  0.19392  0.11603  0.23473  1.0000
  C   C62       1.0  0.69393  0.88397  0.26527  1.0000
  C   C63       1.0  0.80608  0.88397  0.76527  1.0000
  C   C64       1.0  0.30607  0.11603  0.73473  1.0000
  C   C65       1.0  0.11545  0.22005  0.27938  1.0000
  C   C66       1.0  0.61545  0.77995  0.22061  1.0000
  C   C67       1.0  0.88456  0.77995  0.72062  1.0000
  C   C68       1.0  0.38455  0.22005  0.77939  1.0000
  C   C69       1.0  0.02967  0.20864  0.34602  1.0000
  C   C70       1.0  0.52967  0.79136  0.15398  1.0000
  C   C71       1.0  0.97033  0.79136  0.65398  1.0000
  C   C72       1.0  0.47033  0.20864  0.84602  1.0000
  N   N1        1.0  0.14958  0.63302  0.27825  1.0000
  N   N2        1.0  0.64959  0.36698  0.22174  1.0000
  N   N3        1.0  0.85041  0.36698  0.72175  1.0000
  N   N4        1.0  0.35042  0.63302  0.77826  1.0000
  N   N5        1.0  0.77789  0.51759  0.46477  1.0000
  N   N6        1.0  0.27789  0.48240  0.03523  1.0000
  N   N7        1.0  0.22211  0.48241  0.53523  1.0000
  N   N8        1.0  0.72211  0.51759  0.96477  1.0000
  N   N9        1.0  0.95017  0.31145  0.38924  1.0000
  N   N10       1.0  0.45016  0.68855  0.11076  1.0000
  N   N11       1.0  0.04984  0.68855  0.61076  1.0000
  N   N12       1.0  0.54984  0.31145  0.88924  1.0000
  O   O1        1.0  0.02618  0.67109  0.32191  1.0000
  O   O2        1.0  0.52619  0.32891  0.17808  1.0000
  O   O3        1.0  0.97381  0.32891  0.67809  1.0000
  O   O4        1.0  0.47381  0.67109  0.82192  1.0000
  O   O5        1.0  0.15452  0.51740  0.24097  1.0000
  O   O6        1.0  0.65452  0.48260  0.25903  1.0000
  O   O7        1.0  0.84548  0.48260  0.75903  1.0000
  O   O8        1.0  0.34548  0.51740  0.74097  1.0000
  O   O9        1.0  0.26336  0.70816  0.27300  1.0000
  O   O10       1.0  0.76336  0.29184  0.22699  1.0000
  O   O11       1.0  0.73664  0.29184  0.72699  1.0000
  O   O12       1.0  0.23664  0.70816  0.77301  1.0000
