data_image0
_chemical_formula_structural       Fe4P4H12C4O28
_chemical_formula_sum              "Fe4 P4 H12 C4 O28"
_cell_length_a       6.49725
_cell_length_b       8.42653
_cell_length_c       11.1163
_cell_angle_alpha    104.931
_cell_angle_beta     89.9993
_cell_angle_gamma    89.9999

_space_group_name_H-M_alt    "P 1"
_space_group_IT_number       1

loop_
  _space_group_symop_operation_xyz
  'x, y, z'

loop_
  _atom_site_type_symbol
  _atom_site_label
  _atom_site_symmetry_multiplicity
  _atom_site_fract_x
  _atom_site_fract_y
  _atom_site_fract_z
  _atom_site_occupancy
  Fe  Fe1       1.0  0.80600  0.24832  0.42180  1.0000
  Fe  Fe2       1.0  0.30599  0.25168  0.07820  1.0000
  Fe  Fe3       1.0  0.19399  0.75168  0.57819  1.0000
  Fe  Fe4       1.0  0.69397  0.74833  0.92182  1.0000
  P   P1        1.0  0.55390  0.99164  0.19673  1.0000
  P   P2        1.0  0.05387  0.50837  0.30327  1.0000
  P   P3        1.0  0.44613  0.00836  0.80326  1.0000
  P   P4        1.0  0.94610  0.49166  0.69675  1.0000
  H   H1        1.0  0.36601  0.87109  0.31173  1.0000
  H   H2        1.0  0.86600  0.62890  0.18825  1.0000
  H   H3        1.0  0.63400  0.12891  0.68825  1.0000
  H   H4        1.0  0.13398  0.37110  0.81174  1.0000
  H   H5        1.0  0.41052  0.36902  0.49116  1.0000
  H   H6        1.0  0.91061  0.13069  0.00884  1.0000
  H   H7        1.0  0.58941  0.63077  0.50885  1.0000
  H   H8        1.0  0.08950  0.86894  0.99116  1.0000
  H   H9        1.0  0.42469  0.26854  0.34713  1.0000
  H   H10       1.0  0.92461  0.23150  0.15281  1.0000
  H   H11       1.0  0.57538  0.73149  0.65284  1.0000
  H   H12       1.0  0.07528  0.76855  0.84712  1.0000
  C   C1        1.0  0.90419  0.98510  0.53673  1.0000
  C   C2        1.0  0.40420  0.51494  0.96328  1.0000
  C   C3        1.0  0.09582  0.01492  0.46327  1.0000
  C   C4        1.0  0.59582  0.48512  0.03674  1.0000
  O   O1        1.0  0.43091  0.84485  0.22706  1.0000
  O   O2        1.0  0.93092  0.65517  0.27293  1.0000
  O   O3        1.0  0.56910  0.15515  0.77293  1.0000
  O   O4        1.0  0.06909  0.34486  0.72707  1.0000
  O   O5        1.0  0.64760  0.92554  0.06753  1.0000
  O   O6        1.0  0.14756  0.57448  0.43248  1.0000
  O   O7        1.0  0.35245  0.07448  0.93248  1.0000
  O   O8        1.0  0.85241  0.42554  0.56753  1.0000
  O   O9        1.0  0.40116  0.13467  0.19890  1.0000
  O   O10       1.0  0.90113  0.36535  0.30111  1.0000
  O   O11       1.0  0.59888  0.86535  0.80112  1.0000
  O   O12       1.0  0.09884  0.63469  0.69890  1.0000
  O   O13       1.0  0.72178  0.05319  0.29438  1.0000
  O   O14       1.0  0.22178  0.44680  0.20564  1.0000
  O   O15       1.0  0.27822  0.94681  0.70563  1.0000
  O   O16       1.0  0.77821  0.55319  0.79438  1.0000
  O   O17       1.0  0.76005  0.08963  0.54920  1.0000
  O   O18       1.0  0.26004  0.41039  0.95081  1.0000
  O   O19       1.0  0.23996  0.91039  0.45081  1.0000
  O   O20       1.0  0.73994  0.58963  0.04918  1.0000
  O   O21       1.0  0.90543  0.85969  0.57901  1.0000
  O   O22       1.0  0.40542  0.64035  0.92102  1.0000
  O   O23       1.0  0.09459  0.14036  0.42100  1.0000
  O   O24       1.0  0.59458  0.35967  0.07901  1.0000
  O   O25       1.0  0.50374  0.33066  0.42118  1.0000
  O   O26       1.0  0.00373  0.16943  0.07881  1.0000
  O   O27       1.0  0.49624  0.66940  0.57881  1.0000
  O   O28       1.0  0.99627  0.83066  0.92117  1.0000
