data_image0
_chemical_formula_structural       Bi2H18C18S4Br6
_chemical_formula_sum              "Bi2 H18 C18 S4 Br6"
_cell_length_a       5.78651
_cell_length_b       9.2597
_cell_length_c       14.1893
_cell_angle_alpha    78.9682
_cell_angle_beta     83.7105
_cell_angle_gamma    106.276

_space_group_name_H-M_alt    "P 1"
_space_group_IT_number       1

loop_
  _space_group_symop_operation_xyz
  'x, y, z'

loop_
  _atom_site_type_symbol
  _atom_site_label
  _atom_site_symmetry_multiplicity
  _atom_site_fract_x
  _atom_site_fract_y
  _atom_site_fract_z
  _atom_site_occupancy
  Bi  Bi1       1.0  0.96754  0.54426  0.14735  1.0000
  Bi  Bi2       1.0  0.03251  0.45575  0.85266  1.0000
  H   H1        1.0  0.82443  0.80680  0.56383  1.0000
  H   H2        1.0  0.17552  0.19321  0.43617  1.0000
  H   H3        1.0  0.12047  0.70410  0.48426  1.0000
  H   H4        1.0  0.87948  0.29589  0.51574  1.0000
  H   H5        1.0  0.69134  0.00931  0.28239  1.0000
  H   H6        1.0  0.30868  0.99070  0.71760  1.0000
  H   H7        1.0  0.16124  0.50111  0.41415  1.0000
  H   H8        1.0  0.83876  0.49888  0.58586  1.0000
  H   H9        1.0  0.44707  0.64316  0.41693  1.0000
  H   H10       1.0  0.55290  0.35683  0.58309  1.0000
  H   H11       1.0  0.43376  0.51905  0.33386  1.0000
  H   H12       1.0  0.56625  0.48095  0.66616  1.0000
  H   H13       1.0  0.41193  0.97541  0.12698  1.0000
  H   H14       1.0  0.58810  0.02457  0.87302  1.0000
  H   H15       1.0  0.28343  0.13220  0.12571  1.0000
  H   H16       1.0  0.71663  0.86779  0.87430  1.0000
  H   H17       1.0  0.28281  0.04340  0.02468  1.0000
  H   H18       1.0  0.71725  0.95660  0.97533  1.0000
  C   C1        1.0  0.85772  0.82652  0.48464  1.0000
  C   C2        1.0  0.14224  0.17347  0.51535  1.0000
  C   C3        1.0  0.02243  0.76671  0.43953  1.0000
  C   C4        1.0  0.97753  0.23330  0.56048  1.0000
  C   C5        1.0  0.06503  0.78876  0.33793  1.0000
  C   C6        1.0  0.93495  0.21124  0.66207  1.0000
  C   C7        1.0  0.94115  0.87530  0.28119  1.0000
  C   C8        1.0  0.05886  0.12470  0.71881  1.0000
  C   C9        1.0  0.78155  0.93975  0.32649  1.0000
  C   C10       1.0  0.21845  0.06025  0.67350  1.0000
  C   C11       1.0  0.73517  0.91495  0.42911  1.0000
  C   C12       1.0  0.26481  0.08507  0.57088  1.0000
  C   C13       1.0  0.57008  0.97567  0.47696  1.0000
  C   C14       1.0  0.42989  0.02433  0.52302  1.0000
  C   C15       1.0  0.33300  0.58214  0.37120  1.0000
  C   C16       1.0  0.66698  0.41786  0.62882  1.0000
  C   C17       1.0  0.26822  0.02291  0.10417  1.0000
  C   C18       1.0  0.73182  0.97709  0.89583  1.0000
  S   S1        1.0  0.27146  0.71725  0.27611  1.0000
  S   S2        1.0  0.72853  0.28275  0.72390  1.0000
  S   S3        1.0  0.96380  0.88926  0.15361  1.0000
  S   S4        1.0  0.03624  0.11075  0.84638  1.0000
  Br  Br1       1.0  0.76571  0.34605  0.32428  1.0000
  Br  Br2       1.0  0.23425  0.65393  0.67572  1.0000
  Br  Br3       1.0  0.48821  0.54452  0.12005  1.0000
  Br  Br4       1.0  0.51183  0.45552  0.87995  1.0000
  Br  Br5       1.0  0.88477  0.27845  0.06676  1.0000
  Br  Br6       1.0  0.11527  0.72155  0.93325  1.0000
