data_image0
_chemical_formula_structural       Cu2H16C12N20O24
_chemical_formula_sum              "Cu2 H16 C12 N20 O24"
_cell_length_a       5.14644
_cell_length_b       10.6804
_cell_length_c       14.5672
_cell_angle_alpha    90.0009
_cell_angle_beta     89.9981
_cell_angle_gamma    91.005

_space_group_name_H-M_alt    "P 1"
_space_group_IT_number       1

loop_
  _space_group_symop_operation_xyz
  'x, y, z'

loop_
  _atom_site_type_symbol
  _atom_site_label
  _atom_site_symmetry_multiplicity
  _atom_site_fract_x
  _atom_site_fract_y
  _atom_site_fract_z
  _atom_site_occupancy
  Cu  Cu1       1.0  0.49999  1.00000  0.50001  1.0000
  Cu  Cu2       1.0  0.50006  0.50001  0.99999  1.0000
  H   H1        1.0  0.52372  0.77100  0.48361  1.0000
  H   H2        1.0  0.47626  0.72901  0.98358  1.0000
  H   H3        1.0  0.47616  0.22901  0.51643  1.0000
  H   H4        1.0  0.52381  0.27100  0.01642  1.0000
  H   H5        1.0  0.22441  0.91493  0.63198  1.0000
  H   H6        1.0  0.77558  0.58509  0.13195  1.0000
  H   H7        1.0  0.77546  0.08506  0.36804  1.0000
  H   H8        1.0  0.22455  0.41492  0.86804  1.0000
  H   H9        1.0  0.10820  0.05098  0.60392  1.0000
  H   H10       1.0  0.89183  0.44904  0.10391  1.0000
  H   H11       1.0  0.89171  0.94902  0.39609  1.0000
  H   H12       1.0  0.10830  0.55096  0.89608  1.0000
  H   H13       1.0  0.78830  0.81452  0.52845  1.0000
  H   H14       1.0  0.21179  0.68548  0.02853  1.0000
  H   H15       1.0  0.21179  0.18548  0.47139  1.0000
  H   H16       1.0  0.78828  0.31451  0.97147  1.0000
  C   C1        1.0  0.61320  0.50426  0.36909  1.0000
  C   C2        1.0  0.38699  0.99581  0.86912  1.0000
  C   C3        1.0  0.38707  0.49590  0.63081  1.0000
  C   C4        1.0  0.61310  0.00418  0.13086  1.0000
  C   C5        1.0  0.40945  0.59158  0.34746  1.0000
  C   C6        1.0  0.59055  0.90841  0.84743  1.0000
  C   C7        1.0  0.59042  0.40842  0.65257  1.0000
  C   C8        1.0  0.40953  0.09157  0.15255  1.0000
  C   C9        1.0  0.81499  0.50675  0.43894  1.0000
  C   C10       1.0  0.18494  0.99323  0.93888  1.0000
  C   C11       1.0  0.18483  0.49324  0.56112  1.0000
  C   C12       1.0  0.81510  0.00675  0.06108  1.0000
  N   N1        1.0  0.16035  0.76579  0.37470  1.0000
  N   N2        1.0  0.83964  0.73420  0.87466  1.0000
  N   N3        1.0  0.83954  0.23422  0.62534  1.0000
  N   N4        1.0  0.16044  0.26579  0.12532  1.0000
  N   N5        1.0  0.83034  0.60072  0.49410  1.0000
  N   N6        1.0  0.17002  0.89942  0.99420  1.0000
  N   N7        1.0  0.17027  0.39956  0.50568  1.0000
  N   N8        1.0  0.83011  0.10059  0.00580  1.0000
  N   N9        1.0  0.36877  0.69974  0.39607  1.0000
  N   N10       1.0  0.63114  0.80022  0.89600  1.0000
  N   N11       1.0  0.63098  0.30020  0.60403  1.0000
  N   N12       1.0  0.36892  0.19976  0.10398  1.0000
  N   N13       1.0  0.59205  0.40590  0.31487  1.0000
  N   N14       1.0  0.40822  0.09419  0.81493  1.0000
  N   N15       1.0  0.40834  0.59429  0.68498  1.0000
  N   N16       1.0  0.59188  0.90581  0.18505  1.0000
  N   N17       1.0  0.27079  0.54314  0.27834  1.0000
  N   N18       1.0  0.72918  0.95684  0.77829  1.0000
  N   N19       1.0  0.72897  0.45682  0.72174  1.0000
  N   N20       1.0  0.27089  0.04315  0.22169  1.0000
  O   O1        1.0  0.60181  0.82982  0.53233  1.0000
  O   O2        1.0  0.39830  0.67020  0.03233  1.0000
  O   O3        1.0  0.39830  0.17019  0.46766  1.0000
  O   O4        1.0  0.60179  0.32981  0.96767  1.0000
  O   O5        1.0  0.26958  0.99783  0.60840  1.0000
  O   O6        1.0  0.73044  0.50218  0.10838  1.0000
  O   O7        1.0  0.73030  0.00215  0.39161  1.0000
  O   O8        1.0  0.26971  0.49783  0.89160  1.0000
  O   O9        1.0  0.12658  0.86222  0.42801  1.0000
  O   O10       1.0  0.87338  0.63776  0.92797  1.0000
  O   O11       1.0  0.87328  0.13777  0.57204  1.0000
  O   O12       1.0  0.12670  0.36223  0.07202  1.0000
  O   O13       1.0  0.00581  0.74067  0.31217  1.0000
  O   O14       1.0  0.99430  0.75936  0.81217  1.0000
  O   O15       1.0  0.99429  0.25942  0.68779  1.0000
  O   O16       1.0  0.00581  0.24064  0.18782  1.0000
  O   O17       1.0  0.38531  0.42839  0.25982  1.0000
  O   O18       1.0  0.61483  0.07164  0.75983  1.0000
  O   O19       1.0  0.61477  0.57167  0.74015  1.0000
  O   O20       1.0  0.38526  0.92835  0.24016  1.0000
  O   O21       1.0  0.96672  0.40358  0.43752  1.0000
  O   O22       1.0  0.03239  0.09611  0.93719  1.0000
  O   O23       1.0  0.03161  0.59588  0.56306  1.0000
  O   O24       1.0  0.96753  0.90382  0.06273  1.0000
