data_image0
_chemical_formula_structural       Cd2H48C74N4O18
_chemical_formula_sum              "Cd2 H48 C74 N4 O18"
_cell_length_a       8.98413
_cell_length_b       10.1286
_cell_length_c       19.9337
_cell_angle_alpha    93.0537
_cell_angle_beta     89.5432
_cell_angle_gamma    104.478

_space_group_name_H-M_alt    "P 1"
_space_group_IT_number       1

loop_
  _space_group_symop_operation_xyz
  'x, y, z'

loop_
  _atom_site_type_symbol
  _atom_site_label
  _atom_site_symmetry_multiplicity
  _atom_site_fract_x
  _atom_site_fract_y
  _atom_site_fract_z
  _atom_site_occupancy
  Cd  Cd1       1.0  0.93195  0.12154  0.44263  1.0000
  Cd  Cd2       1.0  0.06805  0.87846  0.55737  1.0000
  H   H1        1.0  0.91878  0.05773  0.26705  1.0000
  H   H2        1.0  0.08121  0.94226  0.73295  1.0000
  H   H3        1.0  0.29544  0.59904  0.53470  1.0000
  H   H4        1.0  0.70457  0.40096  0.46530  1.0000
  H   H5        1.0  0.08588  0.38648  0.53375  1.0000
  H   H6        1.0  0.91413  0.61352  0.46626  1.0000
  H   H7        1.0  0.87795  0.36860  0.64626  1.0000
  H   H8        1.0  0.12205  0.63139  0.35373  1.0000
  H   H9        1.0  0.41240  0.46952  0.33431  1.0000
  H   H10       1.0  0.58762  0.53047  0.66569  1.0000
  H   H11       1.0  0.05743  0.72646  0.78339  1.0000
  H   H12       1.0  0.94257  0.27354  0.21661  1.0000
  H   H13       1.0  0.48799  0.74237  0.68418  1.0000
  H   H14       1.0  0.51202  0.25764  0.31582  1.0000
  H   H15       1.0  0.41829  0.78342  0.51831  1.0000
  H   H16       1.0  0.58170  0.21658  0.48169  1.0000
  H   H17       1.0  0.89765  0.39516  0.90232  1.0000
  H   H18       1.0  0.10235  0.60484  0.09768  1.0000
  H   H19       1.0  0.63375  0.98792  0.51525  1.0000
  H   H20       1.0  0.36624  0.01208  0.48474  1.0000
  H   H21       1.0  0.82464  0.83410  0.34812  1.0000
  H   H22       1.0  0.17536  0.16590  0.65188  1.0000
  H   H23       1.0  0.16155  0.86615  0.97325  1.0000
  H   H24       1.0  0.83846  0.13386  0.02676  1.0000
  H   H25       1.0  0.78518  0.42911  0.75914  1.0000
  H   H26       1.0  0.21483  0.57090  0.24085  1.0000
  H   H27       1.0  0.15892  0.65011  0.88666  1.0000
  H   H28       1.0  0.84108  0.34989  0.11335  1.0000
  H   H29       1.0  0.69919  0.73374  0.95701  1.0000
  H   H30       1.0  0.30082  0.26627  0.04299  1.0000
  H   H31       1.0  0.42989  0.37751  0.84624  1.0000
  H   H32       1.0  0.57010  0.62249  0.15376  1.0000
  H   H33       1.0  0.72913  0.94264  0.68432  1.0000
  H   H34       1.0  0.27087  0.05736  0.31568  1.0000
  H   H35       1.0  0.77507  0.60382  0.06826  1.0000
  H   H36       1.0  0.22493  0.39617  0.93173  1.0000
  H   H37       1.0  0.19636  0.26241  0.34310  1.0000
  H   H38       1.0  0.80364  0.73758  0.65690  1.0000
  H   H39       1.0  0.62627  0.00079  0.79585  1.0000
  H   H40       1.0  0.37373  0.99922  0.20415  1.0000
  H   H41       1.0  0.62089  0.61736  0.34538  1.0000
  H   H42       1.0  0.37912  0.38263  0.65462  1.0000
  H   H43       1.0  0.80649  0.77158  0.16747  1.0000
  H   H44       1.0  0.19350  0.22841  0.83253  1.0000
  H   H45       1.0  0.19306  0.03249  0.07382  1.0000
  H   H46       1.0  0.80694  0.96751  0.92619  1.0000
  H   H47       1.0  0.59481  0.67505  0.78932  1.0000
  H   H48       1.0  0.40519  0.32496  0.21068  1.0000
  C   C1        1.0  0.86488  0.11444  0.59107  1.0000
  C   C2        1.0  0.13512  0.88555  0.40893  1.0000
  C   C3        1.0  0.26676  0.73790  0.72696  1.0000
  C   C4        1.0  0.73324  0.26211  0.27304  1.0000
  C   C5        1.0  0.37540  0.55337  0.43421  1.0000
  C   C6        1.0  0.62461  0.44662  0.56580  1.0000
  C   C7        1.0  0.28066  0.52802  0.49079  1.0000
  C   C8        1.0  0.71934  0.47197  0.50921  1.0000
  C   C9        1.0  0.16274  0.40958  0.49100  1.0000
  C   C10       1.0  0.83726  0.59042  0.50900  1.0000
  C   C11       1.0  0.82411  0.28854  0.67952  1.0000
  C   C12       1.0  0.17589  0.71146  0.32047  1.0000
  C   C13       1.0  0.49990  0.67964  0.43202  1.0000
  C   C14       1.0  0.50010  0.32035  0.56798  1.0000
  C   C15       1.0  0.34526  0.45536  0.38023  1.0000
  C   C16       1.0  0.65474  0.54464  0.61977  1.0000
  C   C17       1.0  0.55410  0.56174  0.90203  1.0000
  C   C18       1.0  0.44590  0.43826  0.09798  1.0000
  C   C19       1.0  0.17409  0.71288  0.78427  1.0000
  C   C20       1.0  0.82591  0.28713  0.21573  1.0000
  C   C21       1.0  0.41672  0.72082  0.72877  1.0000
  C   C22       1.0  0.58328  0.27919  0.27124  1.0000
  C   C23       1.0  0.80958  0.15182  0.65823  1.0000
  C   C24       1.0  0.19042  0.84818  0.34176  1.0000
  C   C25       1.0  0.50564  0.78781  0.47974  1.0000
  C   C26       1.0  0.49436  0.21219  0.52025  1.0000
  C   C27       1.0  0.80113  0.44198  0.90220  1.0000
  C   C28       1.0  0.19887  0.55802  0.09780  1.0000
  C   C29       1.0  0.62608  0.90374  0.47814  1.0000
  C   C30       1.0  0.37391  0.09626  0.52186  1.0000
  C   C31       1.0  0.73287  0.81778  0.38529  1.0000
  C   C32       1.0  0.26714  0.18222  0.61471  1.0000
  C   C33       1.0  0.08466  0.84695  0.01612  1.0000
  C   C34       1.0  0.91534  0.15305  0.98388  1.0000
  C   C35       1.0  0.77125  0.32260  0.74235  1.0000
  C   C36       1.0  0.22876  0.67741  0.25765  1.0000
  C   C37       1.0  0.23001  0.67092  0.84209  1.0000
  C   C38       1.0  0.76999  0.32909  0.15792  1.0000
  C   C39       1.0  0.68995  0.63249  0.93369  1.0000
  C   C40       1.0  0.31004  0.36750  0.06631  1.0000
  C   C41       1.0  0.53704  0.43221  0.87070  1.0000
  C   C42       1.0  0.46296  0.56778  0.12930  1.0000
  C   C43       1.0  0.38062  0.65639  0.84326  1.0000
  C   C44       1.0  0.61939  0.34361  0.15674  1.0000
  C   C45       1.0  0.20738  0.78458  0.66544  1.0000
  C   C46       1.0  0.79262  0.21542  0.33456  1.0000
  C   C47       1.0  0.96464  0.72856  0.01497  1.0000
  C   C48       1.0  0.03536  0.27143  0.98503  1.0000
  C   C49       1.0  0.73898  0.04867  0.70084  1.0000
  C   C50       1.0  0.26103  0.95133  0.29916  1.0000
  C   C51       1.0  0.81315  0.57101  0.93324  1.0000
  C   C52       1.0  0.18685  0.42898  0.06677  1.0000
  C   C53       1.0  0.86488  0.69885  0.06948  1.0000
  C   C54       1.0  0.13512  0.30115  0.93052  1.0000
  C   C55       1.0  0.22513  0.33930  0.38453  1.0000
  C   C56       1.0  0.77487  0.66069  0.61548  1.0000
  C   C57       1.0  0.68214  0.08045  0.76280  1.0000
  C   C58       1.0  0.31785  0.91956  0.23720  1.0000
  C   C59       1.0  0.61694  0.69723  0.38370  1.0000
  C   C60       1.0  0.38307  0.30276  0.61630  1.0000
  C   C61       1.0  0.66174  0.37408  0.87185  1.0000
  C   C62       1.0  0.33825  0.62592  0.12815  1.0000
  C   C63       1.0  0.88315  0.79177  0.12459  1.0000
  C   C64       1.0  0.11685  0.20823  0.87541  1.0000
  C   C65       1.0  0.10175  0.93852  0.07173  1.0000
  C   C66       1.0  0.89825  0.06149  0.92827  1.0000
  C   C67       1.0  0.47572  0.68177  0.78686  1.0000
  C   C68       1.0  0.52428  0.31824  0.21315  1.0000
  C   C69       1.0  0.69968  0.21771  0.78365  1.0000
  C   C70       1.0  0.30031  0.78230  0.21635  1.0000
  C   C71       1.0  0.00023  0.91321  0.12597  1.0000
  C   C72       1.0  0.99977  0.08678  0.87403  1.0000
  C   C73       1.0  0.01587  0.01782  0.18273  1.0000
  C   C74       1.0  0.98412  0.98218  0.81727  1.0000
  N   N1        1.0  0.13508  0.31651  0.43906  1.0000
  N   N2        1.0  0.86493  0.68349  0.56094  1.0000
  N   N3        1.0  0.73863  0.91933  0.43226  1.0000
  N   N4        1.0  0.26136  0.08067  0.56774  1.0000
  O   O1        1.0  0.26384  0.76616  0.60838  1.0000
  O   O2        1.0  0.73616  0.23384  0.39163  1.0000
  O   O3        1.0  0.88680  0.20441  0.54674  1.0000
  O   O4        1.0  0.11320  0.79559  0.45326  1.0000
  O   O5        1.0  0.95544  0.63774  0.95982  1.0000
  O   O6        1.0  0.04456  0.36226  0.04017  1.0000
  O   O7        1.0  0.88214  0.99419  0.58017  1.0000
  O   O8        1.0  0.11785  0.00580  0.41983  1.0000
  O   O9        1.0  0.43033  0.62127  0.90373  1.0000
  O   O10       1.0  0.56967  0.37873  0.09628  1.0000
  O   O11       1.0  0.09551  0.84395  0.67244  1.0000
  O   O12       1.0  0.90450  0.15605  0.32756  1.0000
  O   O13       1.0  0.64081  0.24050  0.84590  1.0000
  O   O14       1.0  0.35919  0.75951  0.15410  1.0000
  O   O15       1.0  0.11242  0.12875  0.18388  1.0000
  O   O16       1.0  0.88756  0.87125  0.81612  1.0000
  O   O17       1.0  0.91243  0.97979  0.23111  1.0000
  O   O18       1.0  0.08756  0.02020  0.76889  1.0000
