data_image0
_chemical_formula_structural       CdH70C48O14
_chemical_formula_sum              "Cd1 H70 C48 O14"
_cell_length_a       6.96595
_cell_length_b       11.0803
_cell_length_c       17.5775
_cell_angle_alpha    72.4894
_cell_angle_beta     78.572
_cell_angle_gamma    71.7009

_space_group_name_H-M_alt    "P 1"
_space_group_IT_number       1

loop_
  _space_group_symop_operation_xyz
  'x, y, z'

loop_
  _atom_site_type_symbol
  _atom_site_label
  _atom_site_symmetry_multiplicity
  _atom_site_fract_x
  _atom_site_fract_y
  _atom_site_fract_z
  _atom_site_occupancy
  Cd  Cd1       1.0  0.66008  0.99972  0.00004  1.0000
  H   H1        1.0  0.35077  0.54074  0.79751  1.0000
  H   H2        1.0  0.68992  0.45921  0.20251  1.0000
  H   H3        1.0  0.72077  0.66307  0.63390  1.0000
  H   H4        1.0  0.01814  0.33727  0.36616  1.0000
  H   H5        1.0  0.69685  0.55849  0.73135  1.0000
  H   H6        1.0  0.98746  0.44145  0.26857  1.0000
  H   H7        1.0  0.80691  0.42659  0.63378  1.0000
  H   H8        1.0  0.86813  0.57382  0.36597  1.0000
  H   H9        1.0  0.60266  0.52095  0.57778  1.0000
  H   H10       1.0  0.70210  0.47960  0.42204  1.0000
  H   H11       1.0  0.58094  0.35039  0.75130  1.0000
  H   H12       1.0  0.68333  0.64990  0.24844  1.0000
  H   H13       1.0  0.53221  0.31301  0.66755  1.0000
  H   H14       1.0  0.51372  0.68733  0.33221  1.0000
  H   H15       1.0  0.98539  0.72052  0.71040  1.0000
  H   H16       1.0  0.41684  0.27959  0.28972  1.0000
  H   H17       1.0  0.97160  0.59654  0.79982  1.0000
  H   H18       1.0  0.36829  0.40373  0.20036  1.0000
  H   H19       1.0  0.12263  0.69684  0.87127  1.0000
  H   H20       1.0  0.69072  0.30335  0.12877  1.0000
  H   H21       1.0  0.90620  0.81152  0.83046  1.0000
  H   H22       1.0  0.54794  0.18881  0.16959  1.0000
  H   H23       1.0  0.48021  0.70980  0.79407  1.0000
  H   H24       1.0  0.98421  0.29022  0.20596  1.0000
  H   H25       1.0  0.66888  0.85410  0.72815  1.0000
  H   H26       1.0  0.25119  0.14580  0.27164  1.0000
  H   H27       1.0  0.59659  0.86599  0.63533  1.0000
  H   H28       1.0  0.09834  0.13407  0.36454  1.0000
  H   H29       1.0  0.49022  0.08752  0.66004  1.0000
  H   H30       1.0  0.23719  0.91240  0.33996  1.0000
  H   H31       1.0  0.95051  0.96312  0.68711  1.0000
  H   H32       1.0  0.60010  0.03716  0.31305  1.0000
  H   H33       1.0  0.22992  0.12395  0.77791  1.0000
  H   H34       1.0  0.13072  0.87589  0.22222  1.0000
  H   H35       1.0  0.32319  0.84855  0.87470  1.0000
  H   H36       1.0  0.04598  0.15113  0.12527  1.0000
  H   H37       1.0  0.15856  0.24446  0.60373  1.0000
  H   H38       1.0  0.00616  0.75582  0.39618  1.0000
  H   H39       1.0  0.81946  0.19248  0.63033  1.0000
  H   H40       1.0  0.64184  0.80782  0.36963  1.0000
  H   H41       1.0  0.90466  0.10237  0.55623  1.0000
  H   H42       1.0  0.56281  0.89744  0.44396  1.0000
  H   H43       1.0  0.87881  0.27385  0.52810  1.0000
  H   H44       1.0  0.68044  0.72592  0.47178  1.0000
  H   H45       1.0  0.44863  0.11748  0.52258  1.0000
  H   H46       1.0  0.08863  0.88234  0.47742  1.0000
  H   H47       1.0  0.25465  0.22829  0.46400  1.0000
  H   H48       1.0  0.94696  0.77135  0.53601  1.0000
  H   H49       1.0  0.27199  0.05724  0.49437  1.0000
  H   H50       1.0  0.82364  0.94246  0.50593  1.0000
  H   H51       1.0  0.03314  0.56509  0.63723  1.0000
  H   H52       1.0  0.23604  0.43524  0.36263  1.0000
  H   H53       1.0  0.18523  0.41343  0.61866  1.0000
  H   H54       1.0  0.21852  0.58678  0.38133  1.0000
  H   H55       1.0  0.27448  0.55490  0.57970  1.0000
  H   H56       1.0  0.40978  0.44509  0.42027  1.0000
  H   H57       1.0  0.16573  0.79754  0.61182  1.0000
  H   H58       1.0  0.57519  0.20288  0.38847  1.0000
  H   H59       1.0  0.37825  0.69975  0.56390  1.0000
  H   H60       1.0  0.64316  0.30052  0.43625  1.0000
  H   H61       1.0  0.39327  0.84427  0.58121  1.0000
  H   H62       1.0  0.81905  0.15584  0.41890  1.0000
  H   H63       1.0  0.00438  0.26714  0.80153  1.0000
  H   H64       1.0  0.07364  0.73215  0.19845  1.0000
  H   H65       1.0  0.74617  0.09559  0.81073  1.0000
  H   H66       1.0  0.65168  0.90429  0.18922  1.0000
  H   H67       1.0  0.60058  0.27150  0.96091  1.0000
  H   H68       1.0  0.83339  0.72824  0.03875  1.0000
  H   H69       1.0  0.41909  0.27212  0.91868  1.0000
  H   H70       1.0  0.61038  0.72734  0.08111  1.0000
  C   C1        1.0  0.19664  0.37269  0.77677  1.0000
  C   C2        1.0  0.34678  0.62703  0.22315  1.0000
  C   C3        1.0  0.29158  0.46836  0.70814  1.0000
  C   C4        1.0  0.46897  0.53177  0.29181  1.0000
  C   C5        1.0  0.27943  0.58737  0.74105  1.0000
  C   C6        1.0  0.60863  0.41267  0.25897  1.0000
  C   C7        1.0  0.40884  0.68141  0.68885  1.0000
  C   C8        1.0  0.77959  0.31865  0.31124  1.0000
  C   C9        1.0  0.62987  0.59865  0.67403  1.0000
  C   C10       1.0  0.90319  0.40151  0.32592  1.0000
  C   C11       1.0  0.64702  0.48456  0.63918  1.0000
  C   C12       1.0  0.77154  0.51585  0.36061  1.0000
  C   C13       1.0  0.51966  0.39467  0.69309  1.0000
  C   C14       1.0  0.60829  0.60564  0.30671  1.0000
  C   C15       1.0  0.06243  0.66440  0.76437  1.0000
  C   C16       1.0  0.49162  0.33577  0.23571  1.0000
  C   C17       1.0  0.06287  0.75642  0.81405  1.0000
  C   C18       1.0  0.63335  0.24378  0.18599  1.0000
  C   C19       1.0  0.19228  0.85186  0.77097  1.0000
  C   C20       1.0  0.81485  0.14829  0.22907  1.0000
  C   C21       1.0  0.40972  0.77506  0.73986  1.0000
  C   C22       1.0  0.92476  0.22494  0.26019  1.0000
  C   C23       1.0  0.53615  0.87427  0.69673  1.0000
  C   C24       1.0  0.10725  0.12568  0.30319  1.0000
  C   C25       1.0  0.40481  0.01611  0.69388  1.0000
  C   C26       1.0  0.11431  0.98391  0.30614  1.0000
  C   C27       1.0  0.20762  0.04209  0.66013  1.0000
  C   C28       1.0  0.90915  0.95815  0.33996  1.0000
  C   C29       1.0  0.09927  0.95716  0.70113  1.0000
  C   C30       1.0  0.75694  0.04311  0.29897  1.0000
  C   C31       1.0  0.34166  0.02772  0.78128  1.0000
  C   C32       1.0  0.14993  0.97212  0.21878  1.0000
  C   C33       1.0  0.23033  0.92381  0.82974  1.0000
  C   C34       1.0  0.98321  0.07607  0.17034  1.0000
  C   C35       1.0  0.50253  0.03323  0.82533  1.0000
  C   C36       1.0  0.36034  0.96649  0.17464  1.0000
  C   C37       1.0  0.14429  0.15693  0.58974  1.0000
  C   C38       1.0  0.89039  0.84323  0.41031  1.0000
  C   C39       1.0  0.92395  0.18313  0.57555  1.0000
  C   C40       1.0  0.68219  0.81688  0.42449  1.0000
  C   C41       1.0  0.28877  0.13898  0.51337  1.0000
  C   C42       1.0  0.94098  0.86084  0.48675  1.0000
  C   C43       1.0  0.18972  0.50325  0.63167  1.0000
  C   C44       1.0  0.32550  0.49689  0.36829  1.0000
  C   C45       1.0  0.33131  0.75940  0.60738  1.0000
  C   C46       1.0  0.69857  0.24084  0.39278  1.0000
  C   C47       1.0  0.03126  0.98408  0.87590  1.0000
  C   C48       1.0  0.89036  0.01568  0.12431  1.0000
  O   O1        1.0  0.04313  0.34089  0.75821  1.0000
  O   O2        1.0  0.14294  0.65869  0.24183  1.0000
  O   O3        1.0  0.25651  0.32497  0.84353  1.0000
  O   O4        1.0  0.42543  0.67443  0.15626  1.0000
  O   O5        1.0  0.64435  0.08657  0.77879  1.0000
  O   O6        1.0  0.50889  0.91349  0.22118  1.0000
  O   O7        1.0  0.49110  0.99581  0.89964  1.0000
  O   O8        1.0  0.38590  0.00348  0.10033  1.0000
  O   O9        1.0  0.97105  0.90892  0.93974  1.0000
  O   O10       1.0  0.81869  0.09077  0.06049  1.0000
  O   O11       1.0  0.92800  0.10362  0.84707  1.0000
  O   O12       1.0  0.87792  0.89612  0.15317  1.0000
  O   O13       1.0  0.49133  0.23104  0.96700  1.0000
  O   O14       1.0  0.68972  0.76864  0.03281  1.0000
