data_image0
_chemical_formula_structural       Er2H16C12O20
_chemical_formula_sum              "Er2 H16 C12 O20"
_cell_length_a       5.97953
_cell_length_b       7.34522
_cell_length_c       13.021
_cell_angle_alpha    104.62
_cell_angle_beta     101.375
_cell_angle_gamma    90.5846

_space_group_name_H-M_alt    "P 1"
_space_group_IT_number       1

loop_
  _space_group_symop_operation_xyz
  'x, y, z'

loop_
  _atom_site_type_symbol
  _atom_site_label
  _atom_site_symmetry_multiplicity
  _atom_site_fract_x
  _atom_site_fract_y
  _atom_site_fract_z
  _atom_site_occupancy
  Er  Er1       1.0  0.01780  0.81997  0.68229  1.0000
  Er  Er2       1.0  0.98470  0.16024  0.31477  1.0000
  H   H1        1.0  0.35279  0.95685  0.06195  1.0000
  H   H2        1.0  0.62343  0.89360  0.94475  1.0000
  H   H3        1.0  0.50706  0.31907  0.56468  1.0000
  H   H4        1.0  0.47558  0.29873  0.73790  1.0000
  H   H5        1.0  0.50894  0.75860  0.43595  1.0000
  H   H6        1.0  0.53562  0.59414  0.25907  1.0000
  H   H7        1.0  0.77207  0.65530  0.81892  1.0000
  H   H8        1.0  0.59607  0.71274  0.72377  1.0000
  H   H9        1.0  0.24588  0.82283  0.23862  1.0000
  H   H10       1.0  0.40490  0.01637  0.27254  1.0000
  H   H11       1.0  0.17449  0.23947  0.07882  1.0000
  H   H12       1.0  0.79443  0.14717  0.90640  1.0000
  H   H13       1.0  0.19823  0.99256  0.48670  1.0000
  H   H14       1.0  0.15639  0.20292  0.77100  1.0000
  H   H15       1.0  0.81761  0.49910  0.50808  1.0000
  H   H16       1.0  0.83821  0.44198  0.21970  1.0000
  C   C1        1.0  0.19893  0.96034  0.90158  1.0000
  C   C2        1.0  0.36377  0.05089  0.00866  1.0000
  C   C3        1.0  0.60903  0.04226  0.98765  1.0000
  C   C4        1.0  0.77505  0.07558  0.09691  1.0000
  C   C5        1.0  0.15778  0.38479  0.56745  1.0000
  C   C6        1.0  0.34709  0.24536  0.56616  1.0000
  C   C7        1.0  0.37870  0.18353  0.67259  1.0000
  C   C8        1.0  0.51269  0.00580  0.67016  1.0000
  C   C9        1.0  0.85826  0.82353  0.43244  1.0000
  C   C10       1.0  0.66646  0.68344  0.43170  1.0000
  C   C11       1.0  0.63046  0.53250  0.32211  1.0000
  C   C12       1.0  0.49205  0.35630  0.32279  1.0000
  O   O1        1.0  0.74809  0.65909  0.74353  1.0000
  O   O2        1.0  0.24647  0.95587  0.24094  1.0000
  O   O3        1.0  0.22267  0.79044  0.85383  1.0000
  O   O4        1.0  0.04340  0.05428  0.85843  1.0000
  O   O5        1.0  0.32456  0.23893  0.05804  1.0000
  O   O6        1.0  0.64260  0.16738  0.92500  1.0000
  O   O7        1.0  0.76360  0.95816  0.15221  1.0000
  O   O8        1.0  0.91901  0.22070  0.13355  1.0000
  O   O9        1.0  0.17797  0.53083  0.64402  1.0000
  O   O10       1.0  0.98446  0.34065  0.48790  1.0000
  O   O11       1.0  0.29103  0.09401  0.47013  1.0000
  O   O12       1.0  0.15791  0.14942  0.69403  1.0000
  O   O13       1.0  0.40935  0.86507  0.68525  1.0000
  O   O14       1.0  0.71419  0.00921  0.65498  1.0000
  O   O15       1.0  0.03602  0.84265  0.50852  1.0000
  O   O16       1.0  0.83416  0.90825  0.35890  1.0000
  O   O17       1.0  0.72001  0.61169  0.52481  1.0000
  O   O18       1.0  0.84919  0.48253  0.29890  1.0000
  O   O19       1.0  0.59691  0.20505  0.31549  1.0000
  O   O20       1.0  0.28577  0.37129  0.33019  1.0000
