data_image0
_chemical_formula_structural       Mn2H22C32N4O12
_chemical_formula_sum              "Mn2 H22 C32 N4 O12"
_cell_length_a       8.64807
_cell_length_b       8.71368
_cell_length_c       10.2177
_cell_angle_alpha    105.438
_cell_angle_beta     94.8675
_cell_angle_gamma    103.02

_space_group_name_H-M_alt    "P 1"
_space_group_IT_number       1

loop_
  _space_group_symop_operation_xyz
  'x, y, z'

loop_
  _atom_site_type_symbol
  _atom_site_label
  _atom_site_symmetry_multiplicity
  _atom_site_fract_x
  _atom_site_fract_y
  _atom_site_fract_z
  _atom_site_occupancy
  Mn  Mn1       1.0  0.52236  0.23994  0.41128  1.0000
  Mn  Mn2       1.0  0.47765  0.76006  0.58872  1.0000
  H   H1        1.0  0.12621  0.10142  0.32153  1.0000
  H   H2        1.0  0.87379  0.89859  0.67847  1.0000
  H   H3        1.0  0.02660  0.62676  0.39086  1.0000
  H   H4        1.0  0.97340  0.37324  0.60914  1.0000
  H   H5        1.0  0.63828  0.84592  0.32288  1.0000
  H   H6        1.0  0.36172  0.15408  0.67712  1.0000
  H   H7        1.0  0.85415  0.35419  0.33222  1.0000
  H   H8        1.0  0.14585  0.64581  0.66778  1.0000
  H   H9        1.0  0.69118  0.49962  0.69462  1.0000
  H   H10       1.0  0.30882  0.50038  0.30539  1.0000
  H   H11       1.0  0.63622  0.97037  0.89603  1.0000
  H   H12       1.0  0.36377  0.02963  0.10396  1.0000
  H   H13       1.0  0.85294  0.88558  0.06690  1.0000
  H   H14       1.0  0.14706  0.11442  0.93310  1.0000
  H   H15       1.0  0.11244  0.76546  0.95640  1.0000
  H   H16       1.0  0.88756  0.23454  0.04360  1.0000
  H   H17       1.0  0.61889  0.26846  0.00578  1.0000
  H   H18       1.0  0.38111  0.73154  0.99422  1.0000
  H   H19       1.0  0.60895  0.27988  0.83437  1.0000
  H   H20       1.0  0.39105  0.72012  0.16563  1.0000
  H   H21       1.0  0.58601  0.44669  0.96743  1.0000
  H   H22       1.0  0.41399  0.55330  0.03258  1.0000
  C   C1        1.0  0.26992  0.87824  0.38616  1.0000
  C   C2        1.0  0.73008  0.12176  0.61384  1.0000
  C   C3        1.0  0.09292  0.86238  0.35343  1.0000
  C   C4        1.0  0.90708  0.13762  0.64657  1.0000
  C   C5        1.0  0.03919  0.99227  0.32649  1.0000
  C   C6        1.0  0.96081  0.00773  0.67351  1.0000
  C   C7        1.0  0.98190  0.72413  0.36534  1.0000
  C   C8        1.0  0.01811  0.27587  0.63466  1.0000
  C   C9        1.0  0.87451  0.98360  0.31138  1.0000
  C   C10       1.0  0.12549  0.01640  0.68862  1.0000
  C   C11       1.0  0.81851  0.71857  0.35613  1.0000
  C   C12       1.0  0.18149  0.28143  0.64387  1.0000
  C   C13       1.0  0.76482  0.84729  0.32705  1.0000
  C   C14       1.0  0.23518  0.15271  0.67295  1.0000
  C   C15       1.0  0.80975  0.12145  0.29325  1.0000
  C   C16       1.0  0.19025  0.87855  0.70675  1.0000
  C   C17       1.0  0.70031  0.58847  0.39262  1.0000
  C   C18       1.0  0.29968  0.41153  0.60737  1.0000
  C   C19       1.0  0.70274  0.61680  0.77096  1.0000
  C   C20       1.0  0.29726  0.38319  0.22905  1.0000
  C   C21       1.0  0.68074  0.86114  0.87985  1.0000
  C   C22       1.0  0.31926  0.13886  0.12015  1.0000
  C   C23       1.0  0.78787  0.82264  0.96450  1.0000
  C   C24       1.0  0.21213  0.17736  0.03550  1.0000
  C   C25       1.0  0.89920  0.57839  0.94692  1.0000
  C   C26       1.0  0.10080  0.42161  0.05308  1.0000
  C   C27       1.0  0.06456  0.64913  0.97739  1.0000
  C   C28       1.0  0.93544  0.35087  0.02261  1.0000
  C   C29       1.0  0.82982  0.42715  0.96937  1.0000
  C   C30       1.0  0.17018  0.57285  0.03063  1.0000
  C   C31       1.0  0.65179  0.35134  0.94272  1.0000
  C   C32       1.0  0.34821  0.64866  0.05728  1.0000
  N   N1        1.0  0.62916  0.73253  0.75937  1.0000
  N   N2        1.0  0.37084  0.26747  0.24063  1.0000
  N   N3        1.0  0.80011  0.66680  0.89489  1.0000
  N   N4        1.0  0.19989  0.33320  0.10511  1.0000
  O   O1        1.0  0.36892  0.00048  0.37026  1.0000
  O   O2        1.0  0.63108  0.99952  0.62974  1.0000
  O   O3        1.0  0.30743  0.76541  0.43042  1.0000
  O   O4        1.0  0.69257  0.23459  0.56958  1.0000
  O   O5        1.0  0.91750  0.26546  0.31898  1.0000
  O   O6        1.0  0.08250  0.73454  0.68102  1.0000
  O   O7        1.0  0.66292  0.10325  0.26130  1.0000
  O   O8        1.0  0.33708  0.89676  0.73870  1.0000
  O   O9        1.0  0.72860  0.44863  0.38480  1.0000
  O   O10       1.0  0.27140  0.55137  0.61519  1.0000
  O   O11       1.0  0.57436  0.62401  0.43159  1.0000
  O   O12       1.0  0.42565  0.37599  0.56840  1.0000
