data_image0
_chemical_formula_structural       Er4H32C24O40
_chemical_formula_sum              "Er4 H32 C24 O40"
_cell_length_a       10.3764
_cell_length_b       10.7119
_cell_length_c       10.7119
_cell_angle_alpha    70.5807
_cell_angle_beta     61.0309
_cell_angle_gamma    61.0309

_space_group_name_H-M_alt    "P 1"
_space_group_IT_number       1

loop_
  _space_group_symop_operation_xyz
  'x, y, z'

loop_
  _atom_site_type_symbol
  _atom_site_label
  _atom_site_symmetry_multiplicity
  _atom_site_fract_x
  _atom_site_fract_y
  _atom_site_fract_z
  _atom_site_occupancy
  Er  Er1       1.0  0.25290  0.61886  0.87882  1.0000
  Er  Er2       1.0  0.75059  0.38114  0.12118  1.0000
  Er  Er3       1.0  0.25059  0.12118  0.38114  1.0000
  Er  Er4       1.0  0.75291  0.87882  0.61887  1.0000
  H   H1        1.0  0.55991  0.55375  0.88397  1.0000
  H   H2        1.0  0.99764  0.44625  0.11603  1.0000
  H   H3        1.0  0.49764  0.11602  0.44625  1.0000
  H   H4        1.0  0.05991  0.88397  0.55375  1.0000
  H   H5        1.0  0.60799  0.44803  0.78296  1.0000
  H   H6        1.0  0.83898  0.55197  0.21704  1.0000
  H   H7        1.0  0.33898  0.21704  0.55197  1.0000
  H   H8        1.0  0.10799  0.78296  0.44803  1.0000
  H   H9        1.0  0.19289  0.76584  0.11232  1.0000
  H   H10       1.0  0.07106  0.23416  0.88767  1.0000
  H   H11       1.0  0.57106  0.88767  0.23416  1.0000
  H   H12       1.0  0.69290  0.11232  0.76584  1.0000
  H   H13       1.0  0.48151  0.31382  0.17055  1.0000
  H   H14       1.0  0.96587  0.68618  0.82945  1.0000
  H   H15       1.0  0.46587  0.82945  0.68618  1.0000
  H   H16       1.0  0.98151  0.17055  0.31382  1.0000
  H   H17       1.0  0.89835  0.82512  0.00097  1.0000
  H   H18       1.0  0.72445  0.17487  0.99903  1.0000
  H   H19       1.0  0.22445  0.99903  0.17487  1.0000
  H   H20       1.0  0.39835  0.00098  0.82512  1.0000
  H   H21       1.0  0.11053  0.63134  0.30723  1.0000
  H   H22       1.0  0.04911  0.36866  0.69276  1.0000
  H   H23       1.0  0.54911  0.69276  0.36866  1.0000
  H   H24       1.0  0.61053  0.30723  0.63134  1.0000
  H   H25       1.0  0.32555  0.43390  0.37141  1.0000
  H   H26       1.0  0.13086  0.56609  0.62859  1.0000
  H   H27       1.0  0.63086  0.62859  0.56610  1.0000
  H   H28       1.0  0.82555  0.37141  0.43390  1.0000
  H   H29       1.0  0.95344  0.03284  0.84934  1.0000
  H   H30       1.0  0.83562  0.96716  0.15067  1.0000
  H   H31       1.0  0.33562  0.15067  0.96716  1.0000
  H   H32       1.0  0.45344  0.84934  0.03284  1.0000
  C   C1        1.0  0.17547  0.45887  0.20416  1.0000
  C   C2        1.0  0.83850  0.54113  0.79584  1.0000
  C   C3        1.0  0.33849  0.79585  0.54113  1.0000
  C   C4        1.0  0.67547  0.20415  0.45887  1.0000
  C   C5        1.0  0.21571  0.57004  0.22062  1.0000
  C   C6        1.0  0.00637  0.42996  0.77938  1.0000
  C   C7        1.0  0.50637  0.77938  0.42996  1.0000
  C   C8        1.0  0.71571  0.22062  0.57004  1.0000
  C   C9        1.0  0.35914  0.49618  0.26401  1.0000
  C   C10       1.0  0.11933  0.50382  0.73598  1.0000
  C   C11       1.0  0.61933  0.73599  0.50382  1.0000
  C   C12       1.0  0.85914  0.26401  0.49618  1.0000
  C   C13       1.0  0.40419  0.60878  0.27322  1.0000
  C   C14       1.0  0.28619  0.39122  0.72678  1.0000
  C   C15       1.0  0.78619  0.72678  0.39121  1.0000
  C   C16       1.0  0.90419  0.27322  0.60878  1.0000
  C   C17       1.0  0.17779  0.95457  0.86292  1.0000
  C   C18       1.0  0.99528  0.04543  0.13708  1.0000
  C   C19       1.0  0.49528  0.13708  0.04543  1.0000
  C   C20       1.0  0.67779  0.86292  0.95457  1.0000
  C   C21       1.0  0.00552  0.96394  0.92976  1.0000
  C   C22       1.0  0.89921  0.03606  0.07025  1.0000
  C   C23       1.0  0.39921  0.07025  0.03606  1.0000
  C   C24       1.0  0.50551  0.92976  0.96394  1.0000
  O   O1        1.0  0.51401  0.52832  0.83830  1.0000
  O   O2        1.0  0.88063  0.47167  0.16170  1.0000
  O   O3        1.0  0.38063  0.16170  0.47168  1.0000
  O   O4        1.0  0.01401  0.83830  0.52832  1.0000
  O   O5        1.0  0.17436  0.46541  0.08321  1.0000
  O   O6        1.0  0.72297  0.53459  0.91679  1.0000
  O   O7        1.0  0.22297  0.91679  0.53459  1.0000
  O   O8        1.0  0.67436  0.08321  0.46541  1.0000
  O   O9        1.0  0.14947  0.36470  0.31012  1.0000
  O   O10       1.0  0.82429  0.63530  0.68987  1.0000
  O   O11       1.0  0.32429  0.68987  0.63530  1.0000
  O   O12       1.0  0.64947  0.31012  0.36470  1.0000
  O   O13       1.0  0.24628  0.66502  0.08903  1.0000
  O   O14       1.0  0.00033  0.33498  0.91097  1.0000
  O   O15       1.0  0.50033  0.91097  0.33498  1.0000
  O   O16       1.0  0.74628  0.08903  0.66502  1.0000
  O   O17       1.0  0.49688  0.40187  0.16302  1.0000
  O   O18       1.0  0.06177  0.59813  0.83698  1.0000
  O   O19       1.0  0.56177  0.83698  0.59813  1.0000
  O   O20       1.0  0.99688  0.16302  0.40187  1.0000
  O   O21       1.0  0.55232  0.58848  0.21157  1.0000
  O   O22       1.0  0.35237  0.41152  0.78843  1.0000
  O   O23       1.0  0.85237  0.78843  0.41152  1.0000
  O   O24       1.0  0.05232  0.21157  0.58848  1.0000
  O   O25       1.0  0.29470  0.71358  0.33962  1.0000
  O   O26       1.0  0.34791  0.28642  0.66038  1.0000
  O   O27       1.0  0.84791  0.66038  0.28642  1.0000
  O   O28       1.0  0.79470  0.33963  0.71358  1.0000
  O   O29       1.0  0.28969  0.83363  0.82467  1.0000
  O   O30       1.0  0.94800  0.16637  0.17533  1.0000
  O   O31       1.0  0.44800  0.17533  0.16637  1.0000
  O   O32       1.0  0.78969  0.82467  0.83363  1.0000
  O   O33       1.0  0.20241  0.06403  0.84858  1.0000
  O   O34       1.0  0.11502  0.93597  0.15142  1.0000
  O   O35       1.0  0.61502  0.15142  0.93597  1.0000
  O   O36       1.0  0.70241  0.84858  0.06403  1.0000
  O   O37       1.0  0.01051  0.82264  0.95357  1.0000
  O   O38       1.0  0.78671  0.17736  0.04644  1.0000
  O   O39       1.0  0.28671  0.04644  0.17736  1.0000
  O   O40       1.0  0.51051  0.95357  0.82264  1.0000
