data_image0
_chemical_formula_structural       Zn4H36C44N12O16
_chemical_formula_sum              "Zn4 H36 C44 N12 O16"
_cell_length_a       7.54086
_cell_length_b       12.2227
_cell_length_c       12.4393
_cell_angle_alpha    92.8904
_cell_angle_beta     90
_cell_angle_gamma    90

_space_group_name_H-M_alt    "P 1"
_space_group_IT_number       1

loop_
  _space_group_symop_operation_xyz
  'x, y, z'

loop_
  _atom_site_type_symbol
  _atom_site_label
  _atom_site_symmetry_multiplicity
  _atom_site_fract_x
  _atom_site_fract_y
  _atom_site_fract_z
  _atom_site_occupancy
  Zn  Zn1       1.0  0.83026  0.71649  0.92712  1.0000
  Zn  Zn2       1.0  0.33026  0.78351  0.57288  1.0000
  Zn  Zn3       1.0  0.16974  0.28351  0.07288  1.0000
  Zn  Zn4       1.0  0.66974  0.21649  0.42712  1.0000
  H   H1        1.0  0.83084  0.97031  0.91686  1.0000
  H   H2        1.0  0.33084  0.52969  0.58314  1.0000
  H   H3        1.0  0.16916  0.02969  0.08314  1.0000
  H   H4        1.0  0.66916  0.47031  0.41686  1.0000
  H   H5        1.0  0.72953  0.13125  0.03383  1.0000
  H   H6        1.0  0.22953  0.36875  0.46617  1.0000
  H   H7        1.0  0.27047  0.86875  0.96617  1.0000
  H   H8        1.0  0.77047  0.63125  0.53383  1.0000
  H   H9        1.0  0.58813  0.09259  0.21374  1.0000
  H   H10       1.0  0.08813  0.40741  0.28626  1.0000
  H   H11       1.0  0.41187  0.90741  0.78626  1.0000
  H   H12       1.0  0.91187  0.59259  0.71374  1.0000
  H   H13       1.0  0.56362  0.90196  0.26814  1.0000
  H   H14       1.0  0.06362  0.59804  0.23186  1.0000
  H   H15       1.0  0.43638  0.09804  0.73186  1.0000
  H   H16       1.0  0.93638  0.40196  0.76814  1.0000
  H   H17       1.0  0.59974  0.47961  0.24653  1.0000
  H   H18       1.0  0.09974  0.02039  0.25347  1.0000
  H   H19       1.0  0.40026  0.52039  0.75347  1.0000
  H   H20       1.0  0.90026  0.97961  0.74653  1.0000
  H   H21       1.0  0.58328  0.70018  0.31468  1.0000
  H   H22       1.0  0.08328  0.79982  0.18532  1.0000
  H   H23       1.0  0.41672  0.29982  0.68532  1.0000
  H   H24       1.0  0.91672  0.20018  0.81468  1.0000
  H   H25       1.0  0.69105  0.47319  0.94717  1.0000
  H   H26       1.0  0.19105  0.02681  0.55283  1.0000
  H   H27       1.0  0.30895  0.52681  0.05283  1.0000
  H   H28       1.0  0.80895  0.97319  0.44717  1.0000
  H   H29       1.0  0.59080  0.39385  0.04758  1.0000
  H   H30       1.0  0.09080  0.10615  0.45242  1.0000
  H   H31       1.0  0.40920  0.60615  0.95242  1.0000
  H   H32       1.0  0.90920  0.89385  0.54758  1.0000
  H   H33       1.0  0.15085  0.71607  0.77669  1.0000
  H   H34       1.0  0.65085  0.78393  0.72331  1.0000
  H   H35       1.0  0.84915  0.28393  0.22331  1.0000
  H   H36       1.0  0.34915  0.21607  0.27669  1.0000
  C   C1        1.0  0.68336  0.83461  0.12077  1.0000
  C   C2        1.0  0.18336  0.66539  0.37923  1.0000
  C   C3        1.0  0.31664  0.16539  0.87923  1.0000
  C   C4        1.0  0.81664  0.33461  0.62077  1.0000
  C   C5        1.0  0.77038  0.95946  0.99506  1.0000
  C   C6        1.0  0.27038  0.54054  0.50494  1.0000
  C   C7        1.0  0.22962  0.04054  0.00494  1.0000
  C   C8        1.0  0.72962  0.45946  0.49506  1.0000
  C   C9        1.0  0.71267  0.04819  0.06043  1.0000
  C   C10       1.0  0.21267  0.45181  0.43957  1.0000
  C   C11       1.0  0.28732  0.95181  0.93957  1.0000
  C   C12       1.0  0.78732  0.54819  0.56043  1.0000
  C   C13       1.0  0.63627  0.02678  0.15941  1.0000
  C   C14       1.0  0.13626  0.47321  0.34059  1.0000
  C   C15       1.0  0.36373  0.97322  0.84059  1.0000
  C   C16       1.0  0.86373  0.52678  0.65941  1.0000
  C   C17       1.0  0.62206  0.91940  0.19076  1.0000
  C   C18       1.0  0.12206  0.58060  0.30925  1.0000
  C   C19       1.0  0.37794  0.08060  0.80925  1.0000
  C   C20       1.0  0.87794  0.41940  0.69076  1.0000
  C   C21       1.0  0.67138  0.71893  0.14394  1.0000
  C   C22       1.0  0.17139  0.78107  0.35606  1.0000
  C   C23       1.0  0.32862  0.28107  0.85606  1.0000
  C   C24       1.0  0.82862  0.21893  0.64394  1.0000
  C   C25       1.0  0.63003  0.55358  0.20527  1.0000
  C   C26       1.0  0.13003  0.94642  0.29473  1.0000
  C   C27       1.0  0.36997  0.44642  0.79473  1.0000
  C   C28       1.0  0.86997  0.05358  0.70527  1.0000
  C   C29       1.0  0.61944  0.66414  0.23619  1.0000
  C   C30       1.0  0.11944  0.83586  0.26381  1.0000
  C   C31       1.0  0.38056  0.33586  0.76381  1.0000
  C   C32       1.0  0.88056  0.16414  0.73619  1.0000
  C   C33       1.0  0.70203  0.44833  0.03038  1.0000
  C   C34       1.0  0.20202  0.05167  0.46962  1.0000
  C   C35       1.0  0.29797  0.55167  0.96962  1.0000
  C   C36       1.0  0.79797  0.94833  0.53038  1.0000
  C   C37       1.0  0.87216  0.38244  0.03990  1.0000
  C   C38       1.0  0.37216  0.11757  0.46010  1.0000
  C   C39       1.0  0.12784  0.61757  0.96010  1.0000
  C   C40       1.0  0.62784  0.88244  0.53990  1.0000
  C   C41       1.0  0.06818  0.78447  0.75014  1.0000
  C   C42       1.0  0.56818  0.71553  0.74986  1.0000
  C   C43       1.0  0.93182  0.21553  0.24986  1.0000
  C   C44       1.0  0.43182  0.28447  0.25014  1.0000
  N   N1        1.0  0.75569  0.85555  0.02387  1.0000
  N   N2        1.0  0.25569  0.64445  0.47612  1.0000
  N   N3        1.0  0.24431  0.14445  0.97612  1.0000
  N   N4        1.0  0.74431  0.35555  0.52388  1.0000
  N   N5        1.0  0.71190  0.64558  0.06314  1.0000
  N   N6        1.0  0.21190  0.85442  0.43686  1.0000
  N   N7        1.0  0.28810  0.35442  0.93686  1.0000
  N   N8        1.0  0.78810  0.14558  0.56314  1.0000
  N   N9        1.0  0.68618  0.54602  0.10110  1.0000
  N   N10       1.0  0.18618  0.95398  0.39890  1.0000
  N   N11       1.0  0.31382  0.45398  0.89890  1.0000
  N   N12       1.0  0.81382  0.04602  0.60110  1.0000
  O   O1        1.0  0.99495  0.41687  0.10418  1.0000
  O   O2        1.0  0.49495  0.08313  0.39582  1.0000
  O   O3        1.0  0.00505  0.58313  0.89582  1.0000
  O   O4        1.0  0.50505  0.91687  0.60418  1.0000
  O   O5        1.0  0.88068  0.29363  0.98396  1.0000
  O   O6        1.0  0.38068  0.20637  0.51604  1.0000
  O   O7        1.0  0.11932  0.70637  0.01604  1.0000
  O   O8        1.0  0.61932  0.79363  0.48396  1.0000
  O   O9        1.0  0.93196  0.81218  0.80491  1.0000
  O   O10       1.0  0.43196  0.68782  0.69509  1.0000
  O   O11       1.0  0.06804  0.18782  0.19509  1.0000
  O   O12       1.0  0.56804  0.31218  0.30491  1.0000
  O   O13       1.0  0.11503  0.83122  0.66582  1.0000
  O   O14       1.0  0.61503  0.66878  0.83418  1.0000
  O   O15       1.0  0.88497  0.16878  0.33418  1.0000
  O   O16       1.0  0.38497  0.33122  0.16582  1.0000
