data_image0
_chemical_formula_structural       Cd4H36C44N12O16
_chemical_formula_sum              "Cd4 H36 C44 N12 O16"
_cell_length_a       7.83419
_cell_length_b       12.2494
_cell_length_c       12.9576
_cell_angle_alpha    93.3622
_cell_angle_beta     90
_cell_angle_gamma    90

_space_group_name_H-M_alt    "P 1"
_space_group_IT_number       1

loop_
  _space_group_symop_operation_xyz
  'x, y, z'

loop_
  _atom_site_type_symbol
  _atom_site_label
  _atom_site_symmetry_multiplicity
  _atom_site_fract_x
  _atom_site_fract_y
  _atom_site_fract_z
  _atom_site_occupancy
  Cd  Cd1       1.0  0.84338  0.78331  0.07180  1.0000
  Cd  Cd2       1.0  0.34338  0.71669  0.42820  1.0000
  Cd  Cd3       1.0  0.15662  0.21669  0.92820  1.0000
  Cd  Cd4       1.0  0.65662  0.28331  0.57180  1.0000
  H   H1        1.0  0.82871  0.51821  0.06927  1.0000
  H   H2        1.0  0.32871  0.98179  0.43073  1.0000
  H   H3        1.0  0.17129  0.48179  0.93073  1.0000
  H   H4        1.0  0.67129  0.01821  0.56927  1.0000
  H   H5        1.0  0.71594  0.35808  0.96002  1.0000
  H   H6        1.0  0.21593  0.14192  0.53998  1.0000
  H   H7        1.0  0.28407  0.64191  0.03998  1.0000
  H   H8        1.0  0.78407  0.85809  0.46002  1.0000
  H   H9        1.0  0.57084  0.39783  0.79045  1.0000
  H   H10       1.0  0.07084  0.10217  0.70955  1.0000
  H   H11       1.0  0.42916  0.60217  0.20955  1.0000
  H   H12       1.0  0.92916  0.89783  0.29044  1.0000
  H   H13       1.0  0.55210  0.58722  0.73840  1.0000
  H   H14       1.0  0.05209  0.91278  0.76160  1.0000
  H   H15       1.0  0.44790  0.41278  0.26160  1.0000
  H   H16       1.0  0.94790  0.08722  0.23840  1.0000
  H   H17       1.0  0.58885  0.78145  0.68700  1.0000
  H   H18       1.0  0.08885  0.71855  0.81300  1.0000
  H   H19       1.0  0.41115  0.21855  0.31300  1.0000
  H   H20       1.0  0.91115  0.28145  0.18700  1.0000
  H   H21       1.0  0.59796  0.00364  0.74617  1.0000
  H   H22       1.0  0.09797  0.49636  0.75383  1.0000
  H   H23       1.0  0.40203  0.99636  0.25383  1.0000
  H   H24       1.0  0.90203  0.50364  0.24617  1.0000
  H   H25       1.0  0.67366  0.02336  0.03537  1.0000
  H   H26       1.0  0.17366  0.47664  0.46463  1.0000
  H   H27       1.0  0.32634  0.97664  0.96462  1.0000
  H   H28       1.0  0.82634  0.52336  0.53538  1.0000
  H   H29       1.0  0.58503  0.09884  0.93442  1.0000
  H   H30       1.0  0.08503  0.40116  0.56558  1.0000
  H   H31       1.0  0.41497  0.90116  0.06558  1.0000
  H   H32       1.0  0.91497  0.59884  0.43442  1.0000
  H   H33       1.0  0.14473  0.76895  0.22362  1.0000
  H   H34       1.0  0.64474  0.73105  0.27638  1.0000
  H   H35       1.0  0.85527  0.23105  0.77638  1.0000
  H   H36       1.0  0.35526  0.26895  0.72363  1.0000
  C   C1        1.0  0.76617  0.52922  0.99537  1.0000
  C   C2        1.0  0.26617  0.97078  0.50464  1.0000
  C   C3        1.0  0.23384  0.47078  0.00463  1.0000
  C   C4        1.0  0.73383  0.02922  0.49536  1.0000
  C   C5        1.0  0.70217  0.44102  0.93461  1.0000
  C   C6        1.0  0.20217  0.05898  0.56539  1.0000
  C   C7        1.0  0.29784  0.55898  0.06539  1.0000
  C   C8        1.0  0.79783  0.94102  0.43461  1.0000
  C   C9        1.0  0.62386  0.46304  0.84126  1.0000
  C   C10       1.0  0.12386  0.03696  0.65874  1.0000
  C   C11       1.0  0.37614  0.53696  0.15874  1.0000
  C   C12       1.0  0.87614  0.96304  0.34126  1.0000
  C   C13       1.0  0.61314  0.57011  0.81122  1.0000
  C   C14       1.0  0.11314  0.92989  0.68878  1.0000
  C   C15       1.0  0.38686  0.42989  0.18878  1.0000
  C   C16       1.0  0.88686  0.07011  0.31122  1.0000
  C   C17       1.0  0.67992  0.65444  0.87662  1.0000
  C   C18       1.0  0.17992  0.84555  0.62338  1.0000
  C   C19       1.0  0.32008  0.34556  0.12338  1.0000
  C   C20       1.0  0.82008  0.15444  0.37662  1.0000
  C   C21       1.0  0.66775  0.76972  0.85316  1.0000
  C   C22       1.0  0.16775  0.73028  0.64684  1.0000
  C   C23       1.0  0.33225  0.23028  0.14684  1.0000
  C   C24       1.0  0.83225  0.26972  0.35316  1.0000
  C   C25       1.0  0.61998  0.82032  0.76212  1.0000
  C   C26       1.0  0.11998  0.67968  0.73788  1.0000
  C   C27       1.0  0.38001  0.17968  0.23788  1.0000
  C   C28       1.0  0.88002  0.32033  0.26212  1.0000
  C   C29       1.0  0.62557  0.93178  0.78868  1.0000
  C   C30       1.0  0.12557  0.56822  0.71131  1.0000
  C   C31       1.0  0.37443  0.06821  0.21131  1.0000
  C   C32       1.0  0.87443  0.43179  0.28869  1.0000
  C   C33       1.0  0.68931  0.04395  0.95464  1.0000
  C   C34       1.0  0.18931  0.45605  0.54536  1.0000
  C   C35       1.0  0.31069  0.95604  0.04535  1.0000
  C   C36       1.0  0.81069  0.54396  0.45465  1.0000
  C   C37       1.0  0.85725  0.10543  0.94587  1.0000
  C   C38       1.0  0.35725  0.39457  0.55413  1.0000
  C   C39       1.0  0.14275  0.89457  0.05412  1.0000
  C   C40       1.0  0.64275  0.60543  0.44588  1.0000
  C   C41       1.0  0.06488  0.70190  0.25161  1.0000
  C   C42       1.0  0.56489  0.79810  0.24840  1.0000
  C   C43       1.0  0.93511  0.29810  0.74839  1.0000
  C   C44       1.0  0.43511  0.20190  0.75161  1.0000
  N   N1        1.0  0.75532  0.63273  0.96745  1.0000
  N   N2        1.0  0.25532  0.86727  0.53255  1.0000
  N   N3        1.0  0.24469  0.36727  0.03255  1.0000
  N   N4        1.0  0.74469  0.13273  0.46745  1.0000
  N   N5        1.0  0.70064  0.84659  0.92935  1.0000
  N   N6        1.0  0.20064  0.65341  0.57065  1.0000
  N   N7        1.0  0.29936  0.15341  0.07065  1.0000
  N   N8        1.0  0.79936  0.34659  0.42935  1.0000
  N   N9        1.0  0.67418  0.94384  0.88960  1.0000
  N   N10       1.0  0.17418  0.55616  0.61040  1.0000
  N   N11       1.0  0.32582  0.05616  0.11040  1.0000
  N   N12       1.0  0.82582  0.44384  0.38960  1.0000
  O   O1        1.0  0.97502  0.06588  0.88726  1.0000
  O   O2        1.0  0.47502  0.43412  0.61274  1.0000
  O   O3        1.0  0.02498  0.93411  0.11274  1.0000
  O   O4        1.0  0.52498  0.56589  0.38726  1.0000
  O   O5        1.0  0.86765  0.19610  0.99833  1.0000
  O   O6        1.0  0.36765  0.30390  0.50167  1.0000
  O   O7        1.0  0.13235  0.80390  0.00167  1.0000
  O   O8        1.0  0.63235  0.69610  0.49833  1.0000
  O   O9        1.0  0.92927  0.67553  0.20231  1.0000
  O   O10       1.0  0.42927  0.82447  0.29769  1.0000
  O   O11       1.0  0.07073  0.32447  0.79769  1.0000
  O   O12       1.0  0.57072  0.17553  0.70231  1.0000
  O   O13       1.0  0.11438  0.65604  0.33144  1.0000
  O   O14       1.0  0.61438  0.84396  0.16856  1.0000
  O   O15       1.0  0.88562  0.34396  0.66856  1.0000
  O   O16       1.0  0.38562  0.15604  0.83145  1.0000
