data_image0
_chemical_formula_structural       CdH12C10S2N6
_chemical_formula_sum              "Cd1 H12 C10 S2 N6"
_cell_length_a       5.77231
_cell_length_b       7.79642
_cell_length_c       8.80266
_cell_angle_alpha    110.311
_cell_angle_beta     106.871
_cell_angle_gamma    96.5014

_space_group_name_H-M_alt    "P 1"
_space_group_IT_number       1

loop_
  _space_group_symop_operation_xyz
  'x, y, z'

loop_
  _atom_site_type_symbol
  _atom_site_label
  _atom_site_symmetry_multiplicity
  _atom_site_fract_x
  _atom_site_fract_y
  _atom_site_fract_z
  _atom_site_occupancy
  Cd  Cd1       1.0  0.00001  0.00001  0.50000  1.0000
  H   H1        1.0  0.76151  0.42797  0.11361  1.0000
  H   H2        1.0  0.23848  0.57203  0.88640  1.0000
  H   H3        1.0  0.06247  0.49463  0.27773  1.0000
  H   H4        1.0  0.93753  0.50536  0.72227  1.0000
  H   H5        1.0  0.84867  0.28356  0.23072  1.0000
  H   H6        1.0  0.15134  0.71643  0.76928  1.0000
  H   H7        1.0  0.72502  0.23820  0.80840  1.0000
  H   H8        1.0  0.27497  0.76180  0.19159  1.0000
  H   H9        1.0  0.35553  0.24711  0.20629  1.0000
  H   H10       1.0  0.64446  0.75288  0.79371  1.0000
  H   H11       1.0  0.39309  0.05455  0.88353  1.0000
  H   H12       1.0  0.60692  0.94545  0.11647  1.0000
  C   C1        1.0  0.91528  0.37547  0.17423  1.0000
  C   C2        1.0  0.08472  0.62452  0.82577  1.0000
  C   C3        1.0  0.90215  0.21220  0.86952  1.0000
  C   C4        1.0  0.09785  0.78781  0.13048  1.0000
  C   C5        1.0  0.23357  0.21543  0.07576  1.0000
  C   C6        1.0  0.76642  0.78457  0.92422  1.0000
  C   C7        1.0  0.24958  0.12137  0.91652  1.0000
  C   C8        1.0  0.75042  0.87863  0.08348  1.0000
  C   C9        1.0  0.53591  0.22308  0.49334  1.0000
  C   C10       1.0  0.46410  0.77691  0.50665  1.0000
  S   S1        1.0  0.34466  0.32631  0.57518  1.0000
  S   S2        1.0  0.65534  0.67369  0.42483  1.0000
  N   N1        1.0  0.01326  0.27285  0.04377  1.0000
  N   N2        1.0  0.98673  0.72714  0.95623  1.0000
  N   N3        1.0  0.04197  0.12020  0.78897  1.0000
  N   N4        1.0  0.95803  0.87981  0.21103  1.0000
  N   N5        1.0  0.67630  0.15034  0.43250  1.0000
  N   N6        1.0  0.32371  0.84967  0.56751  1.0000
