data_image0
_chemical_formula_structural       Cd3H16C20N2O12
_chemical_formula_sum              "Cd3 H16 C20 N2 O12"
_cell_length_a       7.13991
_cell_length_b       9.47525
_cell_length_c       9.5144
_cell_angle_alpha    108.027
_cell_angle_beta     111.336
_cell_angle_gamma    93.0944

_space_group_name_H-M_alt    "P 1"
_space_group_IT_number       1

loop_
  _space_group_symop_operation_xyz
  'x, y, z'

loop_
  _atom_site_type_symbol
  _atom_site_label
  _atom_site_symmetry_multiplicity
  _atom_site_fract_x
  _atom_site_fract_y
  _atom_site_fract_z
  _atom_site_occupancy
  Cd  Cd1       1.0  0.22991  0.51342  0.44649  1.0000
  Cd  Cd2       1.0  0.77009  0.48658  0.55351  1.0000
  Cd  Cd3       1.0  1.00000  0.50000  1.00000  1.0000
  H   H1        1.0  0.12441  0.90282  0.13814  1.0000
  H   H2        1.0  0.87559  0.09718  0.86186  1.0000
  H   H3        1.0  0.28996  0.04239  0.64905  1.0000
  H   H4        1.0  0.71004  0.95761  0.35095  1.0000
  H   H5        1.0  0.28480  0.31047  0.65725  1.0000
  H   H6        1.0  0.71520  0.68953  0.34275  1.0000
  H   H7        1.0  0.12981  0.17747  0.16575  1.0000
  H   H8        1.0  0.87019  0.82253  0.83425  1.0000
  H   H9        1.0  0.58289  0.21554  0.21725  1.0000
  H   H10       1.0  0.41711  0.78446  0.78275  1.0000
  H   H11       1.0  0.46937  0.23927  0.88138  1.0000
  H   H12       1.0  0.53063  0.76073  0.11862  1.0000
  H   H13       1.0  0.32191  0.11582  0.92613  1.0000
  H   H14       1.0  0.67809  0.88418  0.07387  1.0000
  H   H15       1.0  0.57305  0.09018  0.93949  1.0000
  H   H16       1.0  0.42695  0.90982  0.06051  1.0000
  C   C1        1.0  0.20371  0.79274  0.38532  1.0000
  C   C2        1.0  0.79629  0.20726  0.61468  1.0000
  C   C3        1.0  0.20710  0.95382  0.39304  1.0000
  C   C4        1.0  0.79290  0.04618  0.60696  1.0000
  C   C5        1.0  0.16099  0.99123  0.25463  1.0000
  C   C6        1.0  0.83901  0.00877  0.74537  1.0000
  C   C7        1.0  0.25405  0.06947  0.54040  1.0000
  C   C8        1.0  0.74595  0.93053  0.45960  1.0000
  C   C9        1.0  0.25210  0.21731  0.54502  1.0000
  C   C10       1.0  0.74790  0.78269  0.45498  1.0000
  C   C11       1.0  0.16526  0.14251  0.27004  1.0000
  C   C12       1.0  0.83475  0.85749  0.72996  1.0000
  C   C13       1.0  0.42782  0.39139  0.17180  1.0000
  C   C14       1.0  0.57218  0.60861  0.82819  1.0000
  C   C15       1.0  0.78511  0.36295  0.18851  1.0000
  C   C16       1.0  0.21489  0.63705  0.81150  1.0000
  C   C17       1.0  0.56701  0.27934  0.13548  1.0000
  C   C18       1.0  0.43299  0.72066  0.86452  1.0000
  C   C19       1.0  0.47739  0.17440  0.95999  1.0000
  C   C20       1.0  0.52261  0.82560  0.04001  1.0000
  N   N1        1.0  0.20898  0.25375  0.41225  1.0000
  N   N2        1.0  0.79102  0.74625  0.58775  1.0000
  O   O1        1.0  0.27845  0.77076  0.51910  1.0000
  O   O2        1.0  0.72155  0.22924  0.48090  1.0000
  O   O3        1.0  0.12615  0.68810  0.24911  1.0000
  O   O4        1.0  0.87385  0.31190  0.75089  1.0000
  O   O5        1.0  0.45639  0.45645  0.31999  1.0000
  O   O6        1.0  0.54360  0.54355  0.68001  1.0000
  O   O7        1.0  0.29319  0.40907  0.05219  1.0000
  O   O8        1.0  0.70680  0.59092  0.94780  1.0000
  O   O9        1.0  0.87011  0.33159  0.09008  1.0000
  O   O10       1.0  0.12989  0.66841  0.90992  1.0000
  O   O11       1.0  0.87298  0.45801  0.33329  1.0000
  O   O12       1.0  0.12702  0.54199  0.66671  1.0000
