data_image0
_chemical_formula_structural       Zn3H12C20N6O8
_chemical_formula_sum              "Zn3 H12 C20 N6 O8"
_cell_length_a       9.11625
_cell_length_b       10.1461
_cell_length_c       11.3573
_cell_angle_alpha    132.457
_cell_angle_beta     99.0122
_cell_angle_gamma    100.658

_space_group_name_H-M_alt    "P 1"
_space_group_IT_number       1

loop_
  _space_group_symop_operation_xyz
  'x, y, z'

loop_
  _atom_site_type_symbol
  _atom_site_label
  _atom_site_symmetry_multiplicity
  _atom_site_fract_x
  _atom_site_fract_y
  _atom_site_fract_z
  _atom_site_occupancy
  Zn  Zn1       1.0  0.49999  0.50000  1.00000  1.0000
  Zn  Zn2       1.0  0.79316  0.33835  0.82975  1.0000
  Zn  Zn3       1.0  0.20684  0.66163  0.17021  1.0000
  H   H1        1.0  0.30406  0.07206  0.89354  1.0000
  H   H2        1.0  0.69598  0.92797  0.10651  1.0000
  H   H3        1.0  0.76894  0.04685  0.97957  1.0000
  H   H4        1.0  0.23110  0.95317  0.02046  1.0000
  H   H5        1.0  0.29219  0.63746  0.53004  1.0000
  H   H6        1.0  0.70780  0.36254  0.46995  1.0000
  H   H7        1.0  0.62361  0.41648  0.28918  1.0000
  H   H8        1.0  0.37638  0.58353  0.71083  1.0000
  H   H9        1.0  0.74826  0.78676  0.40847  1.0000
  H   H10       1.0  0.25172  0.21324  0.59152  1.0000
  H   H11       1.0  0.07852  0.84924  0.48130  1.0000
  H   H12       1.0  0.92148  0.15074  0.51866  1.0000
  C   C1        1.0  0.53994  0.06461  0.92792  1.0000
  C   C2        1.0  0.46006  0.93541  0.07211  1.0000
  C   C3        1.0  0.38799  0.03777  0.93874  1.0000
  C   C4        1.0  0.61203  0.96221  0.06128  1.0000
  C   C5        1.0  0.65177  0.02642  0.98973  1.0000
  C   C6        1.0  0.34827  0.97363  0.01031  1.0000
  C   C7        1.0  0.58460  0.14360  0.85938  1.0000
  C   C8        1.0  0.41541  0.85639  0.14063  1.0000
  C   C9        1.0  0.45342  0.53077  0.39970  1.0000
  C   C10       1.0  0.54655  0.46921  0.60030  1.0000
  C   C11       1.0  0.38264  0.57678  0.51753  1.0000
  C   C12       1.0  0.61740  0.42328  0.48251  1.0000
  C   C13       1.0  0.57103  0.45380  0.38273  1.0000
  C   C14       1.0  0.42896  0.54618  0.61726  1.0000
  C   C15       1.0  0.40108  0.55779  0.28824  1.0000
  C   C16       1.0  0.59888  0.44219  0.71174  1.0000
  C   C17       1.0  0.81552  0.73536  0.32544  1.0000
  C   C18       1.0  0.18447  0.26464  0.67454  1.0000
  C   C19       1.0  0.97822  0.76661  0.36173  1.0000
  C   C20       1.0  0.02178  0.23338  0.63825  1.0000
  N   N1        1.0  0.74363  0.62096  0.15466  1.0000
  N   N2        1.0  0.25634  0.37904  0.84533  1.0000
  N   N3        1.0  0.85585  0.58367  0.08754  1.0000
  N   N4        1.0  0.14413  0.41633  0.91244  1.0000
  N   N5        1.0  0.99932  0.67088  0.21161  1.0000
  N   N6        1.0  0.00068  0.32911  0.78836  1.0000
  O   O1        1.0  0.71933  0.14842  0.83684  1.0000
  O   O2        1.0  0.28066  0.85154  0.16315  1.0000
  O   O3        1.0  0.49424  0.20795  0.83119  1.0000
  O   O4        1.0  0.50578  0.79204  0.16882  1.0000
  O   O5        1.0  0.44339  0.47963  0.16168  1.0000
  O   O6        1.0  0.55661  0.52040  0.83833  1.0000
  O   O7        1.0  0.31269  0.65692  0.32850  1.0000
  O   O8        1.0  0.68727  0.34305  0.67145  1.0000
