data_image0
_chemical_formula_structural       CdH12C12N12
_chemical_formula_sum              "Cd1 H12 C12 N12"
_cell_length_a       6.34388
_cell_length_b       7.74567
_cell_length_c       9.74295
_cell_angle_alpha    104.375
_cell_angle_beta     96.754
_cell_angle_gamma    110.576

_space_group_name_H-M_alt    "P 1"
_space_group_IT_number       1

loop_
  _space_group_symop_operation_xyz
  'x, y, z'

loop_
  _atom_site_type_symbol
  _atom_site_label
  _atom_site_symmetry_multiplicity
  _atom_site_fract_x
  _atom_site_fract_y
  _atom_site_fract_z
  _atom_site_occupancy
  Cd  Cd1       1.0  0.00000  0.00000  0.00000  1.0000
  H   H1        1.0  0.45867  0.18167  0.50032  1.0000
  H   H2        1.0  0.54131  0.81833  0.49968  1.0000
  H   H3        1.0  0.35625  0.19478  0.32659  1.0000
  H   H4        1.0  0.64375  0.80522  0.67341  1.0000
  H   H5        1.0  0.65893  0.53528  0.39314  1.0000
  H   H6        1.0  0.34106  0.46472  0.60685  1.0000
  H   H7        1.0  0.74407  0.52461  0.56985  1.0000
  H   H8        1.0  0.25591  0.47539  0.43015  1.0000
  H   H9        1.0  0.02025  0.96974  0.36271  1.0000
  H   H10       1.0  0.97973  0.03026  0.63729  1.0000
  H   H11       1.0  0.64288  0.21488  0.14634  1.0000
  H   H12       1.0  0.35715  0.78511  0.85367  1.0000
  C   C1        1.0  0.50769  0.24994  0.41659  1.0000
  C   C2        1.0  0.49230  0.75005  0.58341  1.0000
  C   C3        1.0  0.59655  0.47013  0.47667  1.0000
  C   C4        1.0  0.40345  0.52987  0.52333  1.0000
  C   C5        1.0  0.90864  0.04254  0.33883  1.0000
  C   C6        1.0  0.09135  0.95745  0.66118  1.0000
  C   C7        1.0  0.72258  0.16761  0.22664  1.0000
  C   C8        1.0  0.27742  0.83241  0.77336  1.0000
  C   C9        1.0  0.73860  0.26667  0.85786  1.0000
  C   C10       1.0  0.26140  0.73333  0.14212  1.0000
  C   C11       1.0  0.66973  0.54354  0.86897  1.0000
  C   C12       1.0  0.33025  0.45646  0.13102  1.0000
  N   N1        1.0  0.67446  0.17989  0.35849  1.0000
  N   N2        1.0  0.32553  0.82011  0.64152  1.0000
  N   N3        1.0  0.79230  0.10106  0.43219  1.0000
  N   N4        1.0  0.20769  0.89894  0.56782  1.0000
  N   N5        1.0  0.87197  0.08185  0.21109  1.0000
  N   N6        1.0  0.12804  0.91815  0.78892  1.0000
  N   N7        1.0  0.66322  0.37498  0.80303  1.0000
  N   N8        1.0  0.33682  0.62500  0.19697  1.0000
  N   N9        1.0  0.79986  0.15397  0.89348  1.0000
  N   N10       1.0  0.20013  0.84604  0.10652  1.0000
  N   N11       1.0  0.66500  0.69855  0.91505  1.0000
  N   N12       1.0  0.33503  0.30148  0.08495  1.0000
