data_image0
_chemical_formula_structural       Ba4Zn4H48C24O48
_chemical_formula_sum              "Ba4 Zn4 H48 C24 O48"
_cell_length_a       6.7018
_cell_length_b       9.42564
_cell_length_c       19.1839
_cell_angle_alpha    89.9999
_cell_angle_beta     89.9998
_cell_angle_gamma    90

_space_group_name_H-M_alt    "P 1"
_space_group_IT_number       1

loop_
  _space_group_symop_operation_xyz
  'x, y, z'

loop_
  _atom_site_type_symbol
  _atom_site_label
  _atom_site_symmetry_multiplicity
  _atom_site_fract_x
  _atom_site_fract_y
  _atom_site_fract_z
  _atom_site_occupancy
  Ba  Ba1       1.0  0.25000  0.52592  0.25000  1.0000
  Ba  Ba2       1.0  0.75000  0.97408  0.75000  1.0000
  Ba  Ba3       1.0  0.75000  0.47408  0.75000  1.0000
  Ba  Ba4       1.0  0.25000  0.02592  0.25000  1.0000
  Zn  Zn1       1.0  0.00000  0.00000  0.50000  1.0000
  Zn  Zn2       1.0  0.50000  0.00000  1.00000  1.0000
  Zn  Zn3       1.0  1.00000  0.50000  0.00000  1.0000
  Zn  Zn4       1.0  0.50000  0.50000  0.50000  1.0000
  H   H1        1.0  0.62207  0.74989  0.29831  1.0000
  H   H2        1.0  0.87793  0.74989  0.20169  1.0000
  H   H3        1.0  0.37793  0.75011  0.79831  1.0000
  H   H4        1.0  0.12207  0.75011  0.70169  1.0000
  H   H5        1.0  0.37793  0.25011  0.70169  1.0000
  H   H6        1.0  0.12207  0.25011  0.79831  1.0000
  H   H7        1.0  0.62207  0.24989  0.20169  1.0000
  H   H8        1.0  0.87793  0.24989  0.29831  1.0000
  H   H9        1.0  0.57728  0.65844  0.36300  1.0000
  H   H10       1.0  0.92272  0.65844  0.13700  1.0000
  H   H11       1.0  0.42272  0.84155  0.86300  1.0000
  H   H12       1.0  0.07728  0.84155  0.63700  1.0000
  H   H13       1.0  0.42272  0.34156  0.63700  1.0000
  H   H14       1.0  0.07728  0.34155  0.86300  1.0000
  H   H15       1.0  0.57727  0.15845  0.13700  1.0000
  H   H16       1.0  0.92272  0.15845  0.36300  1.0000
  H   H17       1.0  0.86307  0.42474  0.36939  1.0000
  H   H18       1.0  0.63693  0.42474  0.13061  1.0000
  H   H19       1.0  0.13693  0.07526  0.86939  1.0000
  H   H20       1.0  0.36307  0.07526  0.63061  1.0000
  H   H21       1.0  0.13693  0.57526  0.63061  1.0000
  H   H22       1.0  0.36307  0.57526  0.86939  1.0000
  H   H23       1.0  0.86307  0.92474  0.13061  1.0000
  H   H24       1.0  0.63693  0.92474  0.36939  1.0000
  H   H25       1.0  0.78784  0.51799  0.30813  1.0000
  H   H26       1.0  0.71216  0.51799  0.19187  1.0000
  H   H27       1.0  0.21216  0.98201  0.80813  1.0000
  H   H28       1.0  0.28784  0.98201  0.69187  1.0000
  H   H29       1.0  0.21216  0.48201  0.69187  1.0000
  H   H30       1.0  0.28784  0.48201  0.80813  1.0000
  H   H31       1.0  0.78784  0.01799  0.19187  1.0000
  H   H32       1.0  0.71216  0.01799  0.30813  1.0000
  H   H33       1.0  0.59234  0.16529  0.43133  1.0000
  H   H34       1.0  0.90766  0.16529  0.06867  1.0000
  H   H35       1.0  0.40766  0.33471  0.93133  1.0000
  H   H36       1.0  0.09234  0.33471  0.56866  1.0000
  H   H37       1.0  0.40766  0.83470  0.56867  1.0000
  H   H38       1.0  0.09234  0.83470  0.93133  1.0000
  H   H39       1.0  0.59234  0.66529  0.06867  1.0000
  H   H40       1.0  0.90766  0.66529  0.43134  1.0000
  H   H41       1.0  0.35910  0.08572  0.41630  1.0000
  H   H42       1.0  0.14090  0.08572  0.08370  1.0000
  H   H43       1.0  0.64090  0.41429  0.91630  1.0000
  H   H44       1.0  0.85911  0.41429  0.58370  1.0000
  H   H45       1.0  0.64090  0.91428  0.58370  1.0000
  H   H46       1.0  0.85910  0.91428  0.91630  1.0000
  H   H47       1.0  0.35910  0.58571  0.08370  1.0000
  H   H48       1.0  0.14090  0.58571  0.41630  1.0000
  C   C1        1.0  0.38553  0.19613  0.51259  1.0000
  C   C2        1.0  0.11447  0.19613  0.98742  1.0000
  C   C3        1.0  0.61448  0.30388  0.01258  1.0000
  C   C4        1.0  0.88552  0.30387  0.48742  1.0000
  C   C5        1.0  0.61447  0.80387  0.48741  1.0000
  C   C6        1.0  0.88552  0.80387  0.01258  1.0000
  C   C7        1.0  0.38552  0.69613  0.98742  1.0000
  C   C8        1.0  0.11448  0.69613  0.51259  1.0000
  C   C9        1.0  0.43018  0.18218  0.43572  1.0000
  C   C10       1.0  0.06982  0.18218  0.06428  1.0000
  C   C11       1.0  0.56982  0.31782  0.93572  1.0000
  C   C12       1.0  0.93018  0.31782  0.56428  1.0000
  C   C13       1.0  0.56982  0.81782  0.56428  1.0000
  C   C14       1.0  0.93018  0.81782  0.93572  1.0000
  C   C15       1.0  0.43018  0.68218  0.06428  1.0000
  C   C16       1.0  0.06982  0.68218  0.43572  1.0000
  C   C17       1.0  0.38058  0.30390  0.38687  1.0000
  C   C18       1.0  0.11941  0.30390  0.11313  1.0000
  C   C19       1.0  0.61942  0.19611  0.88687  1.0000
  C   C20       1.0  0.88059  0.19611  0.61313  1.0000
  C   C21       1.0  0.61942  0.69610  0.61313  1.0000
  C   C22       1.0  0.88059  0.69609  0.88687  1.0000
  C   C23       1.0  0.38058  0.80389  0.11313  1.0000
  C   C24       1.0  0.11942  0.80389  0.38687  1.0000
  O   O1        1.0  0.29823  0.09397  0.54298  1.0000
  O   O2        1.0  0.20177  0.09397  0.95702  1.0000
  O   O3        1.0  0.70177  0.40603  0.04298  1.0000
  O   O4        1.0  0.79823  0.40603  0.45702  1.0000
  O   O5        1.0  0.70177  0.90603  0.45702  1.0000
  O   O6        1.0  0.79823  0.90603  0.04298  1.0000
  O   O7        1.0  0.29823  0.59397  0.95702  1.0000
  O   O8        1.0  0.20177  0.59397  0.54298  1.0000
  O   O9        1.0  0.44278  0.30722  0.54608  1.0000
  O   O10       1.0  0.05722  0.30722  0.95392  1.0000
  O   O11       1.0  0.55722  0.19278  0.04608  1.0000
  O   O12       1.0  0.94278  0.19278  0.45392  1.0000
  O   O13       1.0  0.55722  0.69278  0.45392  1.0000
  O   O14       1.0  0.94278  0.69278  0.04608  1.0000
  O   O15       1.0  0.44278  0.80722  0.95392  1.0000
  O   O16       1.0  0.05722  0.80722  0.54608  1.0000
  O   O17       1.0  0.38000  0.43315  0.40790  1.0000
  O   O18       1.0  0.12000  0.43315  0.09211  1.0000
  O   O19       1.0  0.62000  0.06685  0.90790  1.0000
  O   O20       1.0  0.88000  0.06685  0.59210  1.0000
  O   O21       1.0  0.62000  0.56685  0.59210  1.0000
  O   O22       1.0  0.88001  0.56685  0.90789  1.0000
  O   O23       1.0  0.38000  0.93315  0.09210  1.0000
  O   O24       1.0  0.12000  0.93315  0.40790  1.0000
  O   O25       1.0  0.34335  0.27225  0.32419  1.0000
  O   O26       1.0  0.15664  0.27225  0.17581  1.0000
  O   O27       1.0  0.65665  0.22775  0.82419  1.0000
  O   O28       1.0  0.84335  0.22775  0.67581  1.0000
  O   O29       1.0  0.65665  0.72775  0.67581  1.0000
  O   O30       1.0  0.84335  0.72775  0.82419  1.0000
  O   O31       1.0  0.34335  0.77225  0.17581  1.0000
  O   O32       1.0  0.15665  0.77225  0.32419  1.0000
  O   O33       1.0  0.59846  0.64985  0.31187  1.0000
  O   O34       1.0  0.90154  0.64985  0.18813  1.0000
  O   O35       1.0  0.40154  0.85015  0.81187  1.0000
  O   O36       1.0  0.09846  0.85016  0.68813  1.0000
  O   O37       1.0  0.40153  0.35016  0.68813  1.0000
  O   O38       1.0  0.09846  0.35015  0.81187  1.0000
  O   O39       1.0  0.59846  0.14985  0.18813  1.0000
  O   O40       1.0  0.90154  0.14985  0.31187  1.0000
  O   O41       1.0  0.88770  0.44296  0.31888  1.0000
  O   O42       1.0  0.61230  0.44296  0.18112  1.0000
  O   O43       1.0  0.11230  0.05704  0.81888  1.0000
  O   O44       1.0  0.38770  0.05704  0.68112  1.0000
  O   O45       1.0  0.11229  0.55704  0.68112  1.0000
  O   O46       1.0  0.38770  0.55704  0.81888  1.0000
  O   O47       1.0  0.88770  0.94296  0.18112  1.0000
  O   O48       1.0  0.61230  0.94296  0.31888  1.0000
