data_image0
_chemical_formula_structural       V2H8C8O12F2
_chemical_formula_sum              "V2 H8 C8 O12 F2"
_cell_length_a       3.82842
_cell_length_b       7.88704
_cell_length_c       11.2374
_cell_angle_alpha    90.0073
_cell_angle_beta     89.9968
_cell_angle_gamma    101.194

_space_group_name_H-M_alt    "P 1"
_space_group_IT_number       1

loop_
  _space_group_symop_operation_xyz
  'x, y, z'

loop_
  _atom_site_type_symbol
  _atom_site_label
  _atom_site_symmetry_multiplicity
  _atom_site_fract_x
  _atom_site_fract_y
  _atom_site_fract_z
  _atom_site_occupancy
  V   V1        1.0  0.50001  0.50000  0.50000  1.0000
  V   V2        1.0  0.00000  0.00000  0.00000  1.0000
  H   H1        1.0  0.36672  0.48549  0.73295  1.0000
  H   H2        1.0  0.13334  0.01450  0.23294  1.0000
  H   H3        1.0  0.63328  0.51451  0.26705  1.0000
  H   H4        1.0  0.86666  0.98550  0.76706  1.0000
  H   H5        1.0  0.55091  0.31271  0.69643  1.0000
  H   H6        1.0  0.94910  0.18728  0.19642  1.0000
  H   H7        1.0  0.44909  0.68729  0.30357  1.0000
  H   H8        1.0  0.05090  0.81272  0.80358  1.0000
  C   C1        1.0  0.54977  0.88158  0.52748  1.0000
  C   C2        1.0  0.95022  0.61845  0.02749  1.0000
  C   C3        1.0  0.45022  0.11841  0.47252  1.0000
  C   C4        1.0  0.04978  0.38156  0.97251  1.0000
  C   C5        1.0  0.59186  0.05394  0.58223  1.0000
  C   C6        1.0  0.90811  0.44607  0.08223  1.0000
  C   C7        1.0  0.40814  0.94606  0.41777  1.0000
  C   C8        1.0  0.09188  0.55394  0.91777  1.0000
  O   O1        1.0  0.61514  0.74008  0.56587  1.0000
  O   O2        1.0  0.88484  0.75994  0.06586  1.0000
  O   O3        1.0  0.38486  0.25992  0.43413  1.0000
  O   O4        1.0  0.11516  0.24007  0.93414  1.0000
  O   O5        1.0  0.70137  0.11693  0.68142  1.0000
  O   O6        1.0  0.79861  0.38306  0.18141  1.0000
  O   O7        1.0  0.29863  0.88307  0.31858  1.0000
  O   O8        1.0  0.20139  0.61694  0.81859  1.0000
  O   O9        1.0  0.46225  0.41673  0.66897  1.0000
  O   O10       1.0  0.03780  0.08326  0.16896  1.0000
  O   O11       1.0  0.53775  0.58326  0.33103  1.0000
  O   O12       1.0  0.96220  0.91674  0.83104  1.0000
  F   F1        1.0  0.00000  0.50000  0.50000  1.0000
  F   F2        1.0  0.49999  0.99999  0.00000  1.0000
