data_image0
_chemical_formula_structural       Zn2H32C16S4N4O8
_chemical_formula_sum              "Zn2 H32 C16 S4 N4 O8"
_cell_length_a       5.25559
_cell_length_b       9.58581
_cell_length_c       13.2929
_cell_angle_alpha    107.556
_cell_angle_beta     90.0006
_cell_angle_gamma    89.9998

_space_group_name_H-M_alt    "P 1"
_space_group_IT_number       1

loop_
  _space_group_symop_operation_xyz
  'x, y, z'

loop_
  _atom_site_type_symbol
  _atom_site_label
  _atom_site_symmetry_multiplicity
  _atom_site_fract_x
  _atom_site_fract_y
  _atom_site_fract_z
  _atom_site_occupancy
  Zn  Zn1       1.0  0.02570  0.24205  0.03930  1.0000
  Zn  Zn2       1.0  0.52571  0.75796  0.96070  1.0000
  H   H1        1.0  0.59266  0.31668  0.15209  1.0000
  H   H2        1.0  0.09268  0.68332  0.84790  1.0000
  H   H3        1.0  0.60633  0.38594  0.05489  1.0000
  H   H4        1.0  0.10634  0.61405  0.94511  1.0000
  H   H5        1.0  0.66125  0.59088  0.19445  1.0000
  H   H6        1.0  0.16129  0.40913  0.80555  1.0000
  H   H7        1.0  0.01405  0.39878  0.28094  1.0000
  H   H8        1.0  0.51405  0.60123  0.71907  1.0000
  H   H9        1.0  0.98577  0.59186  0.33546  1.0000
  H   H10       1.0  0.48579  0.40814  0.66453  1.0000
  H   H11       1.0  0.40966  0.67737  0.34294  1.0000
  H   H12       1.0  0.90968  0.32263  0.65706  1.0000
  H   H13       1.0  0.32806  0.64225  0.46418  1.0000
  H   H14       1.0  0.82807  0.35774  0.53582  1.0000
  H   H15       1.0  0.62435  0.72683  0.45314  1.0000
  H   H16       1.0  0.12437  0.27316  0.54687  1.0000
  H   H17       1.0  0.21755  0.20659  0.84901  1.0000
  H   H18       1.0  0.71756  0.79341  0.15099  1.0000
  H   H19       1.0  0.90661  0.25235  0.86178  1.0000
  H   H20       1.0  0.40661  0.74765  0.13822  1.0000
  H   H21       1.0  0.81313  0.03198  0.76923  1.0000
  H   H22       1.0  0.31312  0.96802  0.23077  1.0000
  H   H23       1.0  0.12913  0.82216  0.74517  1.0000
  H   H24       1.0  0.62915  0.17782  0.25483  1.0000
  H   H25       1.0  0.35209  0.95271  0.81924  1.0000
  H   H26       1.0  0.85207  0.04730  0.18077  1.0000
  H   H27       1.0  0.00025  0.78381  0.55919  1.0000
  H   H28       1.0  0.50025  0.21618  0.44081  1.0000
  H   H29       1.0  0.05412  0.91203  0.48765  1.0000
  H   H30       1.0  0.55410  0.08796  0.51235  1.0000
  H   H31       1.0  0.83665  0.95537  0.59556  1.0000
  H   H32       1.0  0.33664  0.04463  0.40443  1.0000
  C   C1        1.0  0.80767  0.50583  0.18290  1.0000
  C   C2        1.0  0.30772  0.49417  0.81711  1.0000
  C   C3        1.0  0.04293  0.55641  0.13406  1.0000
  C   C4        1.0  0.54292  0.44357  0.86593  1.0000
  C   C5        1.0  0.88460  0.49234  0.29087  1.0000
  C   C6        1.0  0.38461  0.50767  0.70912  1.0000
  C   C7        1.0  0.48401  0.64608  0.41027  1.0000
  C   C8        1.0  0.98402  0.35392  0.58973  1.0000
  C   C9        1.0  0.96518  0.03228  0.82659  1.0000
  C   C10       1.0  0.46519  0.96774  0.17341  1.0000
  C   C11       1.0  0.33567  0.03282  0.09382  1.0000
  C   C12       1.0  0.83570  0.96717  0.90617  1.0000
  C   C13       1.0  0.18461  0.93783  0.76793  1.0000
  C   C14       1.0  0.68461  0.06216  0.23206  1.0000
  C   C15       1.0  0.01694  0.90044  0.56588  1.0000
  C   C16       1.0  0.51693  0.09956  0.43412  1.0000
  S   S1        1.0  0.61982  0.46489  0.37010  1.0000
  S   S2        1.0  0.11984  0.53512  0.62990  1.0000
  S   S3        1.0  0.28138  0.98098  0.65011  1.0000
  S   S4        1.0  0.78137  0.01901  0.34990  1.0000
  N   N1        1.0  0.71565  0.36553  0.11285  1.0000
  N   N2        1.0  0.21567  0.63447  0.88716  1.0000
  N   N3        1.0  0.04531  0.18472  0.87783  1.0000
  N   N4        1.0  0.54531  0.81528  0.12217  1.0000
  O   O1        1.0  0.18378  0.45740  0.07310  1.0000
  O   O2        1.0  0.68377  0.54258  0.92690  1.0000
  O   O3        1.0  0.08487  0.69219  0.16049  1.0000
  O   O4        1.0  0.58487  0.30782  0.83952  1.0000
  O   O5        1.0  0.26293  0.16686  0.13047  1.0000
  O   O6        1.0  0.76293  0.83315  0.86954  1.0000
  O   O7        1.0  0.79557  0.04758  0.99860  1.0000
  O   O8        1.0  0.29556  0.95244  0.00140  1.0000
