data_image0
_chemical_formula_structural       Cd2H32C16S4N4O8
_chemical_formula_sum              "Cd2 H32 C16 S4 N4 O8"
_cell_length_a       5.04733
_cell_length_b       9.81472
_cell_length_c       12.8341
_cell_angle_alpha    96.6254
_cell_angle_beta     90.0003
_cell_angle_gamma    89.9998

_space_group_name_H-M_alt    "P 1"
_space_group_IT_number       1

loop_
  _space_group_symop_operation_xyz
  'x, y, z'

loop_
  _atom_site_type_symbol
  _atom_site_label
  _atom_site_symmetry_multiplicity
  _atom_site_fract_x
  _atom_site_fract_y
  _atom_site_fract_z
  _atom_site_occupancy
  Cd  Cd1       1.0  0.98611  0.25171  0.00294  1.0000
  Cd  Cd2       1.0  0.48612  0.74827  0.99705  1.0000
  H   H1        1.0  0.32550  0.23539  0.17911  1.0000
  H   H2        1.0  0.82557  0.76461  0.82090  1.0000
  H   H3        1.0  0.40273  0.11958  0.08347  1.0000
  H   H4        1.0  0.90276  0.88041  0.91653  1.0000
  H   H5        1.0  0.23606  0.96848  0.17980  1.0000
  H   H6        1.0  0.73611  0.03151  0.82019  1.0000
  H   H7        1.0  0.88473  0.03935  0.31847  1.0000
  H   H8        1.0  0.38475  0.96066  0.68152  1.0000
  H   H9        1.0  0.91520  0.21058  0.28749  1.0000
  H   H10       1.0  0.41524  0.78942  0.71251  1.0000
  H   H11       1.0  0.50689  0.92872  0.30751  1.0000
  H   H12       1.0  0.00690  0.07129  0.69249  1.0000
  H   H13       1.0  0.23311  0.90165  0.39156  1.0000
  H   H14       1.0  0.73311  0.09835  0.60843  1.0000
  H   H15       1.0  0.53945  0.96525  0.44664  1.0000
  H   H16       1.0  0.03944  0.03474  0.55336  1.0000
  H   H17       1.0  0.59950  0.38982  0.91047  1.0000
  H   H18       1.0  0.09950  0.61017  0.08953  1.0000
  H   H19       1.0  0.64339  0.25647  0.82390  1.0000
  H   H20       1.0  0.14341  0.74353  0.17610  1.0000
  H   H21       1.0  0.04041  0.33846  0.76038  1.0000
  H   H22       1.0  0.54046  0.66155  0.23961  1.0000
  H   H23       1.0  0.88798  0.56672  0.70272  1.0000
  H   H24       1.0  0.38801  0.43329  0.29728  1.0000
  H   H25       1.0  0.60937  0.56036  0.78766  1.0000
  H   H26       1.0  0.10939  0.43963  0.21234  1.0000
  H   H27       1.0  0.74369  0.28577  0.47996  1.0000
  H   H28       1.0  0.24373  0.71424  0.52004  1.0000
  H   H29       1.0  0.99919  0.30878  0.57607  1.0000
  H   H30       1.0  0.49924  0.69123  0.42392  1.0000
  H   H31       1.0  0.88920  0.45063  0.51051  1.0000
  H   H32       1.0  0.38924  0.54939  0.48949  1.0000
  C   C1        1.0  0.85532  0.99888  0.11654  1.0000
  C   C2        1.0  0.35536  0.00113  0.88346  1.0000
  C   C3        1.0  0.10429  0.05708  0.17616  1.0000
  C   C4        1.0  0.60432  0.94291  0.82384  1.0000
  C   C5        1.0  0.02022  0.11240  0.28784  1.0000
  C   C6        1.0  0.52024  0.88759  0.71216  1.0000
  C   C7        1.0  0.40346  0.96807  0.38019  1.0000
  C   C8        1.0  0.90347  0.03193  0.61981  1.0000
  C   C9        1.0  0.12002  0.49565  0.88205  1.0000
  C   C10       1.0  0.62001  0.50434  0.11795  1.0000
  C   C11       1.0  0.91571  0.41169  0.81049  1.0000
  C   C12       1.0  0.41573  0.58830  0.18951  1.0000
  C   C13       1.0  0.75706  0.49793  0.74073  1.0000
  C   C14       1.0  0.25708  0.50207  0.25927  1.0000
  C   C15       1.0  0.82709  0.35732  0.54348  1.0000
  C   C16       1.0  0.32714  0.64269  0.45652  1.0000
  S   S1        1.0  0.29441  0.14311  0.37861  1.0000
  S   S2        1.0  0.79444  0.85689  0.62140  1.0000
  S   S3        1.0  0.56906  0.39439  0.64009  1.0000
  S   S4        1.0  0.06912  0.60562  0.35991  1.0000
  N   N1        1.0  0.24265  0.16297  0.12489  1.0000
  N   N2        1.0  0.74269  0.83701  0.87511  1.0000
  N   N3        1.0  0.74433  0.32936  0.87202  1.0000
  N   N4        1.0  0.24433  0.67064  0.12797  1.0000
  O   O1        1.0  0.74431  0.06828  0.05064  1.0000
  O   O2        1.0  0.24433  0.93174  0.94936  1.0000
  O   O3        1.0  0.77156  0.88474  0.14001  1.0000
  O   O4        1.0  0.27163  0.11529  0.86000  1.0000
  O   O5        1.0  0.22833  0.43543  0.95422  1.0000
  O   O6        1.0  0.72833  0.56457  0.04579  1.0000
  O   O7        1.0  0.18273  0.61448  0.86156  1.0000
  O   O8        1.0  0.68272  0.38551  0.13844  1.0000
