data_image0
_chemical_formula_structural       Ag2H14C10N8O8
_chemical_formula_sum              "Ag2 H14 C10 N8 O8"
_cell_length_a       3.66487
_cell_length_b       10.3878
_cell_length_c       11.0632
_cell_angle_alpha    76.6962
_cell_angle_beta     83.9515
_cell_angle_gamma    83.5198

_space_group_name_H-M_alt    "P 1"
_space_group_IT_number       1

loop_
  _space_group_symop_operation_xyz
  'x, y, z'

loop_
  _atom_site_type_symbol
  _atom_site_label
  _atom_site_symmetry_multiplicity
  _atom_site_fract_x
  _atom_site_fract_y
  _atom_site_fract_z
  _atom_site_occupancy
  Ag  Ag1       1.0  0.91408  0.06020  0.11140  1.0000
  Ag  Ag2       1.0  0.08590  0.93980  0.88860  1.0000
  H   H1        1.0  0.78116  0.35792  0.95580  1.0000
  H   H2        1.0  0.21883  0.64208  0.04420  1.0000
  H   H3        1.0  0.32955  0.43789  0.94576  1.0000
  H   H4        1.0  0.67044  0.56211  0.05424  1.0000
  H   H5        1.0  0.68936  0.50375  0.83400  1.0000
  H   H6        1.0  0.31064  0.49625  0.16600  1.0000
  H   H7        1.0  0.87189  0.99482  0.36648  1.0000
  H   H8        1.0  0.12812  0.00517  0.63352  1.0000
  H   H9        1.0  0.76830  0.87454  0.50332  1.0000
  H   H10       1.0  0.23171  0.12546  0.49667  1.0000
  H   H11       1.0  0.50590  0.67044  0.49561  1.0000
  H   H12       1.0  0.49410  0.32955  0.50439  1.0000
  H   H13       1.0  0.64685  0.47073  0.64787  1.0000
  H   H14       1.0  0.35315  0.52926  0.35212  1.0000
  C   C1        1.0  0.58292  0.41302  0.89081  1.0000
  C   C2        1.0  0.41707  0.58698  0.10919  1.0000
  C   C3        1.0  0.37522  0.20778  0.86168  1.0000
  C   C4        1.0  0.62478  0.79222  0.13832  1.0000
  C   C5        1.0  0.67665  0.82786  0.33865  1.0000
  C   C6        1.0  0.32335  0.17214  0.66135  1.0000
  C   C7        1.0  0.54366  0.70220  0.39485  1.0000
  C   C8        1.0  0.45633  0.29780  0.60515  1.0000
  C   C9        1.0  0.54330  0.37365  0.68121  1.0000
  C   C10       1.0  0.45670  0.62635  0.31879  1.0000
  N   N1        1.0  0.50370  0.33063  0.80767  1.0000
  N   N2        1.0  0.49630  0.66937  0.19233  1.0000
  N   N3        1.0  0.71378  0.86959  0.21231  1.0000
  N   N4        1.0  0.28622  0.13042  0.78769  1.0000
  N   N5        1.0  0.76596  0.90637  0.40798  1.0000
  N   N6        1.0  0.23404  0.09363  0.59202  1.0000
  N   N7        1.0  0.99248  0.25989  0.28244  1.0000
  N   N8        1.0  0.00754  0.74011  0.71756  1.0000
  O   O1        1.0  0.34526  0.17457  0.97928  1.0000
  O   O2        1.0  0.65474  0.82542  0.02072  1.0000
  O   O3        1.0  0.14114  0.14475  0.33329  1.0000
  O   O4        1.0  0.85887  0.85525  0.66670  1.0000
  O   O5        1.0  0.99455  0.35600  0.33389  1.0000
  O   O6        1.0  0.00547  0.64399  0.66612  1.0000
  O   O7        1.0  0.84641  0.27474  0.18095  1.0000
  O   O8        1.0  0.15359  0.72526  0.81906  1.0000
