data_image0
_chemical_formula_structural       Zn4H40C64S16N16
_chemical_formula_sum              "Zn4 H40 C64 S16 N16"
_cell_length_a       6.83758
_cell_length_b       13.5675
_cell_length_c       19.7028
_cell_angle_alpha    97.7329
_cell_angle_beta     89.9874
_cell_angle_gamma    104.563

_space_group_name_H-M_alt    "P 1"
_space_group_IT_number       1

loop_
  _space_group_symop_operation_xyz
  'x, y, z'

loop_
  _atom_site_type_symbol
  _atom_site_label
  _atom_site_symmetry_multiplicity
  _atom_site_fract_x
  _atom_site_fract_y
  _atom_site_fract_z
  _atom_site_occupancy
  Zn  Zn1       1.0  0.75785  0.47692  0.96373  1.0000
  Zn  Zn2       1.0  0.28078  0.52291  0.53639  1.0000
  Zn  Zn3       1.0  0.24216  0.52306  0.03627  1.0000
  Zn  Zn4       1.0  0.71922  0.47710  0.46362  1.0000
  H   H1        1.0  0.28579  0.05507  0.01725  1.0000
  H   H2        1.0  0.23084  0.94502  0.48215  1.0000
  H   H3        1.0  0.71418  0.94492  0.98275  1.0000
  H   H4        1.0  0.76919  0.05498  0.51786  1.0000
  H   H5        1.0  0.30328  0.91566  0.06598  1.0000
  H   H6        1.0  0.38781  0.08459  0.43346  1.0000
  H   H7        1.0  0.69670  0.08432  0.93402  1.0000
  H   H8        1.0  0.61219  0.91542  0.56654  1.0000
  H   H9        1.0  0.83968  0.64442  0.35161  1.0000
  H   H10       1.0  0.19591  0.35587  0.14839  1.0000
  H   H11       1.0  0.16032  0.35559  0.64840  1.0000
  H   H12       1.0  0.80409  0.64413  0.85161  1.0000
  H   H13       1.0  0.19221  0.74400  0.40951  1.0000
  H   H14       1.0  0.44830  0.25592  0.09021  1.0000
  H   H15       1.0  0.80779  0.25601  0.59049  1.0000
  H   H16       1.0  0.55172  0.74407  0.90980  1.0000
  H   H17       1.0  0.06942  0.08003  0.81407  1.0000
  H   H18       1.0  0.99179  0.91974  0.68565  1.0000
  H   H19       1.0  0.93058  0.91997  0.18593  1.0000
  H   H20       1.0  0.00819  0.08029  0.31436  1.0000
  H   H21       1.0  0.21357  0.18050  0.93554  1.0000
  H   H22       1.0  0.03388  0.81946  0.56391  1.0000
  H   H23       1.0  0.78641  0.81949  0.06446  1.0000
  H   H24       1.0  0.96613  0.18055  0.43611  1.0000
  H   H25       1.0  0.42858  0.84818  0.32197  1.0000
  H   H26       1.0  0.58048  0.15148  0.17759  1.0000
  H   H27       1.0  0.57143  0.15182  0.67803  1.0000
  H   H28       1.0  0.41951  0.84852  0.82242  1.0000
  H   H29       1.0  0.27472  0.53718  0.19696  1.0000
  H   H30       1.0  0.73790  0.46284  0.30303  1.0000
  H   H31       1.0  0.72530  0.46281  0.80304  1.0000
  H   H32       1.0  0.26210  0.53718  0.69697  1.0000
  H   H33       1.0  0.55426  0.60810  0.28660  1.0000
  H   H34       1.0  0.94642  0.39165  0.21333  1.0000
  H   H35       1.0  0.44575  0.39190  0.71340  1.0000
  H   H36       1.0  0.05361  0.60837  0.78667  1.0000
  H   H37       1.0  0.33174  0.75087  0.10464  1.0000
  H   H38       1.0  0.58098  0.24956  0.39503  1.0000
  H   H39       1.0  0.66825  0.24910  0.89535  1.0000
  H   H40       1.0  0.41902  0.75044  0.60497  1.0000
  C   C1        1.0  0.13889  0.66093  0.94890  1.0000
  C   C2        1.0  0.47841  0.33901  0.55096  1.0000
  C   C3        1.0  0.86111  0.33905  0.05109  1.0000
  C   C4        1.0  0.52160  0.66100  0.44904  1.0000
  C   C5        1.0  0.22769  0.03029  0.96463  1.0000
  C   C6        1.0  0.19804  0.96968  0.53486  1.0000
  C   C7        1.0  0.77230  0.96970  0.03536  1.0000
  C   C8        1.0  0.80199  0.03033  0.46515  1.0000
  C   C9        1.0  0.64812  0.62468  0.09744  1.0000
  C   C10       1.0  0.02399  0.37536  0.40250  1.0000
  C   C11       1.0  0.35190  0.37531  0.90256  1.0000
  C   C12       1.0  0.97600  0.62464  0.59750  1.0000
  C   C13       1.0  0.77347  0.66036  0.20938  1.0000
  C   C14       1.0  0.11374  0.33963  0.29056  1.0000
  C   C15       1.0  0.22654  0.33963  0.79062  1.0000
  C   C16       1.0  0.88624  0.66037  0.70944  1.0000
  C   C17       1.0  0.17881  0.92831  0.93427  1.0000
  C   C18       1.0  0.25150  0.07158  0.56531  1.0000
  C   C19       1.0  0.82118  0.07167  0.06573  1.0000
  C   C20       1.0  0.74851  0.92843  0.43470  1.0000
  C   C21       1.0  0.94481  0.70330  0.25689  1.0000
  C   C22       1.0  0.24227  0.29675  0.24300  1.0000
  C   C23       1.0  0.05519  0.29670  0.74311  1.0000
  C   C24       1.0  0.75772  0.70325  0.75700  1.0000
  C   C25       1.0  0.19055  0.83752  0.96359  1.0000
  C   C26       1.0  0.35378  0.16244  0.53601  1.0000
  C   C27       1.0  0.80944  0.16247  0.03641  1.0000
  C   C28       1.0  0.64622  0.83758  0.46399  1.0000
  C   C29       1.0  0.25960  0.84338  0.03174  1.0000
  C   C30       1.0  0.41646  0.15678  0.46779  1.0000
  C   C31       1.0  0.74038  0.15660  0.96825  1.0000
  C   C32       1.0  0.58354  0.84323  0.53221  1.0000
  C   C33       1.0  0.96172  0.69058  0.32514  1.0000
  C   C34       1.0  0.27173  0.30955  0.17476  1.0000
  C   C35       1.0  0.03829  0.30943  0.67486  1.0000
  C   C36       1.0  0.72828  0.69045  0.82524  1.0000
  C   C37       1.0  0.15075  0.74545  0.35642  1.0000
  C   C38       1.0  0.40569  0.25458  0.14333  1.0000
  C   C39       1.0  0.84925  0.25456  0.64357  1.0000
  C   C40       1.0  0.59431  0.74542  0.85667  1.0000
  C   C41       1.0  0.11423  0.04699  0.85702  1.0000
  C   C42       1.0  0.06920  0.95285  0.64266  1.0000
  C   C43       1.0  0.88577  0.95300  0.14298  1.0000
  C   C44       1.0  0.93080  0.04717  0.35735  1.0000
  C   C45       1.0  0.19026  0.09806  0.92062  1.0000
  C   C46       1.0  0.09328  0.90186  0.57892  1.0000
  C   C47       1.0  0.80973  0.90192  0.07938  1.0000
  C   C48       1.0  0.90672  0.09815  0.42109  1.0000
  C   C49       1.0  0.27535  0.80037  0.31202  1.0000
  C   C50       1.0  0.47529  0.19945  0.18761  1.0000
  C   C51       1.0  0.72466  0.19963  0.68798  1.0000
  C   C52       1.0  0.52470  0.80055  0.81239  1.0000
  C   C53       1.0  0.42847  0.57338  0.18350  1.0000
  C   C54       1.0  0.85556  0.42662  0.31644  1.0000
  C   C55       1.0  0.57154  0.42662  0.81650  1.0000
  C   C56       1.0  0.14446  0.57339  0.68355  1.0000
  C   C57       1.0  0.58240  0.61273  0.23253  1.0000
  C   C58       1.0  0.97008  0.38717  0.26742  1.0000
  C   C59       1.0  0.41762  0.38727  0.76748  1.0000
  C   C60       1.0  0.02991  0.61283  0.73258  1.0000
  C   C61       1.0  0.27325  0.75271  0.05355  1.0000
  C   C62       1.0  0.52071  0.24754  0.44613  1.0000
  C   C63       1.0  0.72674  0.24727  0.94644  1.0000
  C   C64       1.0  0.47929  0.75246  0.55387  1.0000
  S   S1        1.0  0.05569  0.53989  0.90126  1.0000
  S   S2        1.0  0.51570  0.45991  0.59878  1.0000
  S   S3        1.0  0.94431  0.46009  0.09872  1.0000
  S   S4        1.0  0.48430  0.54010  0.40121  1.0000
  S   S5        1.0  0.68092  0.63038  0.01017  1.0000
  S   S6        1.0  0.05088  0.36960  0.48977  1.0000
  S   S7        1.0  0.31909  0.36960  0.98983  1.0000
  S   S8        1.0  0.94912  0.63041  0.51023  1.0000
  S   S9        1.0  0.16436  0.78410  0.23206  1.0000
  S   S10       1.0  0.38079  0.21569  0.26764  1.0000
  S   S11       1.0  0.83565  0.21590  0.76793  1.0000
  S   S12       1.0  0.61920  0.78432  0.73237  1.0000
  S   S13       1.0  0.08524  0.91715  0.85095  1.0000
  S   S14       1.0  0.16998  0.08267  0.64877  1.0000
  S   S15       1.0  0.91476  0.08284  0.14904  1.0000
  S   S16       1.0  0.83001  0.91734  0.35123  1.0000
  N   N1        1.0  0.13153  0.74606  0.92279  1.0000
  N   N2        1.0  0.38638  0.25377  0.57697  1.0000
  N   N3        1.0  0.86846  0.25393  0.07720  1.0000
  N   N4        1.0  0.61363  0.74624  0.42303  1.0000
  N   N5        1.0  0.80342  0.66781  0.14217  1.0000
  N   N6        1.0  0.13635  0.33225  0.35777  1.0000
  N   N7        1.0  0.19659  0.33219  0.85783  1.0000
  N   N8        1.0  0.86363  0.66776  0.64223  1.0000
  N   N9        1.0  0.21642  0.66214  0.01277  1.0000
  N   N10       1.0  0.55441  0.33800  0.48704  1.0000
  N   N11       1.0  0.78357  0.33784  0.98722  1.0000
  N   N12       1.0  0.44558  0.66200  0.51295  1.0000
  N   N13       1.0  0.45893  0.57829  0.11633  1.0000
  N   N14       1.0  0.88117  0.42177  0.38361  1.0000
  N   N15       1.0  0.54108  0.42170  0.88366  1.0000
  N   N16       1.0  0.11883  0.57824  0.61639  1.0000
