data_image0
_chemical_formula_structural       Ag4B4H32C16S8F16
_chemical_formula_sum              "Ag4 B4 H32 C16 S8 F16"
_cell_length_a       7.70102
_cell_length_b       7.70102
_cell_length_c       14.0429
_cell_angle_alpha    89.9999
_cell_angle_beta     90.0001
_cell_angle_gamma    90

_space_group_name_H-M_alt    "P 1"
_space_group_IT_number       1

loop_
  _space_group_symop_operation_xyz
  'x, y, z'

loop_
  _atom_site_type_symbol
  _atom_site_label
  _atom_site_symmetry_multiplicity
  _atom_site_fract_x
  _atom_site_fract_y
  _atom_site_fract_z
  _atom_site_occupancy
  Ag  Ag1       1.0  0.50000  0.00000  1.00000  1.0000
  Ag  Ag2       1.0  1.00000  0.50000  0.50000  1.0000
  Ag  Ag3       1.0  0.50000  1.00000  0.50000  1.0000
  Ag  Ag4       1.0  0.00000  0.50000  1.00000  1.0000
  B   B1        1.0  0.50000  1.00000  0.25000  1.0000
  B   B2        1.0  1.00000  0.50000  0.75000  1.0000
  B   B3        1.0  0.50000  1.00000  0.75000  1.0000
  B   B4        1.0  0.00000  0.50000  0.25000  1.0000
  H   H1        1.0  0.15163  0.94321  0.16347  1.0000
  H   H2        1.0  0.05679  0.15163  0.66347  1.0000
  H   H3        1.0  0.94321  0.84837  0.66347  1.0000
  H   H4        1.0  0.44321  0.65163  0.33653  1.0000
  H   H5        1.0  0.84837  0.05679  0.16347  1.0000
  H   H6        1.0  0.34837  0.44321  0.83653  1.0000
  H   H7        1.0  0.65163  0.55679  0.83653  1.0000
  H   H8        1.0  0.55679  0.34837  0.33653  1.0000
  H   H9        1.0  0.84837  0.05679  0.83653  1.0000
  H   H10       1.0  0.94321  0.84837  0.33653  1.0000
  H   H11       1.0  0.05679  0.15163  0.33653  1.0000
  H   H12       1.0  0.55679  0.34837  0.66347  1.0000
  H   H13       1.0  0.15163  0.94321  0.83653  1.0000
  H   H14       1.0  0.65163  0.55679  0.16347  1.0000
  H   H15       1.0  0.34837  0.44321  0.16347  1.0000
  H   H16       1.0  0.44321  0.65163  0.66347  1.0000
  H   H17       1.0  0.14025  0.14334  0.10094  1.0000
  H   H18       1.0  0.85665  0.14025  0.60094  1.0000
  H   H19       1.0  0.14334  0.85975  0.60094  1.0000
  H   H20       1.0  0.64335  0.64025  0.39906  1.0000
  H   H21       1.0  0.85975  0.85666  0.10094  1.0000
  H   H22       1.0  0.35975  0.64335  0.89906  1.0000
  H   H23       1.0  0.64025  0.35666  0.89906  1.0000
  H   H24       1.0  0.35665  0.35975  0.39906  1.0000
  H   H25       1.0  0.85975  0.85665  0.89906  1.0000
  H   H26       1.0  0.14334  0.85975  0.39906  1.0000
  H   H27       1.0  0.85665  0.14025  0.39906  1.0000
  H   H28       1.0  0.35665  0.35975  0.60094  1.0000
  H   H29       1.0  0.14025  0.14334  0.89905  1.0000
  H   H30       1.0  0.64025  0.35666  0.10094  1.0000
  H   H31       1.0  0.35975  0.64334  0.10094  1.0000
  H   H32       1.0  0.64335  0.64025  0.60094  1.0000
  C   C1        1.0  0.09824  0.00766  0.10020  1.0000
  C   C2        1.0  0.99234  0.09824  0.60020  1.0000
  C   C3        1.0  0.00766  0.90176  0.60020  1.0000
  C   C4        1.0  0.50766  0.59824  0.39980  1.0000
  C   C5        1.0  0.90176  0.99234  0.10020  1.0000
  C   C6        1.0  0.40176  0.50766  0.89980  1.0000
  C   C7        1.0  0.59824  0.49234  0.89980  1.0000
  C   C8        1.0  0.49234  0.40176  0.39980  1.0000
  C   C9        1.0  0.90176  0.99234  0.89980  1.0000
  C   C10       1.0  0.00766  0.90176  0.39980  1.0000
  C   C11       1.0  0.99234  0.09824  0.39980  1.0000
  C   C12       1.0  0.49234  0.40176  0.60020  1.0000
  C   C13       1.0  0.09824  0.00766  0.89980  1.0000
  C   C14       1.0  0.59824  0.49234  0.10020  1.0000
  C   C15       1.0  0.40176  0.50766  0.10020  1.0000
  C   C16       1.0  0.50766  0.59824  0.60020  1.0000
  S   S1        1.0  0.19843  0.89666  1.00000  1.0000
  S   S2        1.0  0.10334  0.19844  0.50000  1.0000
  S   S3        1.0  0.89666  0.80157  0.50000  1.0000
  S   S4        1.0  0.39666  0.69843  0.50000  1.0000
  S   S5        1.0  0.80157  0.10334  1.00000  1.0000
  S   S6        1.0  0.30157  0.39666  1.00000  1.0000
  S   S7        1.0  0.69843  0.60334  0.00000  1.0000
  S   S8        1.0  0.60334  0.30156  0.50000  1.0000
  F   F1        1.0  0.50026  0.84984  0.19160  1.0000
  F   F2        1.0  0.15016  0.50025  0.69160  1.0000
  F   F3        1.0  0.84984  0.49974  0.69160  1.0000
  F   F4        1.0  0.34984  0.00025  0.30840  1.0000
  F   F5        1.0  0.49974  0.15016  0.19160  1.0000
  F   F6        1.0  0.99974  0.34984  0.80840  1.0000
  F   F7        1.0  0.00026  0.65016  0.80840  1.0000
  F   F8        1.0  0.65016  0.99975  0.30840  1.0000
  F   F9        1.0  0.49975  0.15016  0.80840  1.0000
  F   F10       1.0  0.84984  0.49974  0.30840  1.0000
  F   F11       1.0  0.15016  0.50025  0.30840  1.0000
  F   F12       1.0  0.65016  0.99975  0.69160  1.0000
  F   F13       1.0  0.50026  0.84984  0.80840  1.0000
  F   F14       1.0  0.00026  0.65016  0.19160  1.0000
  F   F15       1.0  0.99975  0.34984  0.19160  1.0000
  F   F16       1.0  0.34984  0.00025  0.69160  1.0000
