data_image0
_chemical_formula_structural       U4H24C32S4N4O28
_chemical_formula_sum              "U4 H24 C32 S4 N4 O28"
_cell_length_a       8.19987
_cell_length_b       10.8939
_cell_length_c       13.4469
_cell_angle_alpha    89.9999
_cell_angle_beta     89.9998
_cell_angle_gamma    89.1883

_space_group_name_H-M_alt    "P 1"
_space_group_IT_number       1

loop_
  _space_group_symop_operation_xyz
  'x, y, z'

loop_
  _atom_site_type_symbol
  _atom_site_label
  _atom_site_symmetry_multiplicity
  _atom_site_fract_x
  _atom_site_fract_y
  _atom_site_fract_z
  _atom_site_occupancy
  U   U1        1.0  0.55118  0.55267  0.29369  1.0000
  U   U2        1.0  0.44881  0.94733  0.79369  1.0000
  U   U3        1.0  0.44883  0.44731  0.70631  1.0000
  U   U4        1.0  0.55117  0.05269  0.20631  1.0000
  H   H1        1.0  0.28501  0.47292  0.13379  1.0000
  H   H2        1.0  0.71499  0.02708  0.63380  1.0000
  H   H3        1.0  0.71497  0.52710  0.86620  1.0000
  H   H4        1.0  0.28502  0.97291  0.36621  1.0000
  H   H5        1.0  0.40379  0.35945  0.17088  1.0000
  H   H6        1.0  0.59621  0.14055  0.67088  1.0000
  H   H7        1.0  0.59619  0.64057  0.82912  1.0000
  H   H8        1.0  0.40381  0.85943  0.32912  1.0000
  H   H9        1.0  0.97675  0.62193  0.40062  1.0000
  H   H10       1.0  0.02327  0.87807  0.90062  1.0000
  H   H11       1.0  0.02330  0.37806  0.59938  1.0000
  H   H12       1.0  0.97670  0.12194  0.09938  1.0000
  H   H13       1.0  0.24470  0.72571  0.47190  1.0000
  H   H14       1.0  0.75531  0.77429  0.97189  1.0000
  H   H15       1.0  0.75533  0.27428  0.52811  1.0000
  H   H16       1.0  0.24466  0.22572  0.02812  1.0000
  H   H17       1.0  0.26616  0.58193  0.95790  1.0000
  H   H18       1.0  0.73384  0.91806  0.45791  1.0000
  H   H19       1.0  0.73384  0.41808  0.04209  1.0000
  H   H20       1.0  0.26616  0.08193  0.54209  1.0000
  H   H21       1.0  0.96590  0.41330  0.16541  1.0000
  H   H22       1.0  0.03411  0.08671  0.66541  1.0000
  H   H23       1.0  0.03411  0.58671  0.83457  1.0000
  H   H24       1.0  0.96590  0.91328  0.33459  1.0000
  C   C1        1.0  0.99275  0.65430  0.47645  1.0000
  C   C2        1.0  0.00726  0.84570  0.97645  1.0000
  C   C3        1.0  0.00729  0.34568  0.52355  1.0000
  C   C4        1.0  0.99271  0.15432  0.02355  1.0000
  C   C5        1.0  0.11569  0.74517  0.61279  1.0000
  C   C6        1.0  0.88431  0.75483  0.11279  1.0000
  C   C7        1.0  0.88431  0.25484  0.38721  1.0000
  C   C8        1.0  0.11567  0.24518  0.88721  1.0000
  C   C9        1.0  0.13353  0.71059  0.51403  1.0000
  C   C10       1.0  0.86648  0.78941  0.01402  1.0000
  C   C11       1.0  0.86650  0.28940  0.48597  1.0000
  C   C12       1.0  0.13350  0.21060  0.98598  1.0000
  C   C13       1.0  0.71032  0.59017  0.53659  1.0000
  C   C14       1.0  0.28969  0.90982  0.03659  1.0000
  C   C15       1.0  0.28973  0.40980  0.46340  1.0000
  C   C16       1.0  0.71027  0.09020  0.96340  1.0000
  C   C17       1.0  0.87114  0.64553  0.54789  1.0000
  C   C18       1.0  0.12887  0.85446  0.04789  1.0000
  C   C19       1.0  0.12889  0.35445  0.45210  1.0000
  C   C20       1.0  0.87111  0.14555  0.95210  1.0000
  C   C21       1.0  0.23272  0.81002  0.67544  1.0000
  C   C22       1.0  0.76727  0.68998  0.17544  1.0000
  C   C23       1.0  0.76728  0.18998  0.32456  1.0000
  C   C24       1.0  0.23271  0.31003  0.82457  1.0000
  C   C25       1.0  0.14680  0.54588  0.97684  1.0000
  C   C26       1.0  0.85320  0.95411  0.47685  1.0000
  C   C27       1.0  0.85320  0.45413  0.02315  1.0000
  C   C28       1.0  0.14680  0.04588  0.52315  1.0000
  C   C29       1.0  0.98128  0.45201  0.09128  1.0000
  C   C30       1.0  0.01872  0.04800  0.59128  1.0000
  C   C31       1.0  0.01872  0.54800  0.90870  1.0000
  C   C32       1.0  0.98128  0.95199  0.40872  1.0000
  S   S1        1.0  0.92917  0.70595  0.66049  1.0000
  S   S2        1.0  0.07083  0.79403  0.16048  1.0000
  S   S3        1.0  0.07084  0.29403  0.33952  1.0000
  S   S4        1.0  0.92916  0.20597  0.83952  1.0000
  N   N1        1.0  0.12694  0.49825  0.06779  1.0000
  N   N2        1.0  0.87306  0.00176  0.56780  1.0000
  N   N3        1.0  0.87306  0.50176  0.93219  1.0000
  N   N4        1.0  0.12694  0.99823  0.43220  1.0000
  O   O1        1.0  0.36659  0.84883  0.63856  1.0000
  O   O2        1.0  0.63340  0.65116  0.13855  1.0000
  O   O3        1.0  0.63341  0.15116  0.36145  1.0000
  O   O4        1.0  0.36659  0.34884  0.86146  1.0000
  O   O5        1.0  0.39201  0.44985  0.16994  1.0000
  O   O6        1.0  0.60798  0.05014  0.66994  1.0000
  O   O7        1.0  0.60796  0.55016  0.83006  1.0000
  O   O8        1.0  0.39203  0.94984  0.33006  1.0000
  O   O9        1.0  0.66210  0.56531  0.44891  1.0000
  O   O10       1.0  0.33790  0.93468  0.94892  1.0000
  O   O11       1.0  0.33794  0.43466  0.55108  1.0000
  O   O12       1.0  0.66206  0.06534  0.05108  1.0000
  O   O13       1.0  0.62794  0.56887  0.61477  1.0000
  O   O14       1.0  0.37208  0.93111  0.11478  1.0000
  O   O15       1.0  0.37214  0.43108  0.38523  1.0000
  O   O16       1.0  0.62787  0.06893  0.88523  1.0000
  O   O17       1.0  0.19858  0.83155  0.76704  1.0000
  O   O18       1.0  0.80141  0.66845  0.26704  1.0000
  O   O19       1.0  0.80143  0.16844  0.23296  1.0000
  O   O20       1.0  0.19857  0.33156  0.73297  1.0000
  O   O21       1.0  0.68097  0.42137  0.26780  1.0000
  O   O22       1.0  0.31902  0.07863  0.76780  1.0000
  O   O23       1.0  0.31905  0.57863  0.73217  1.0000
  O   O24       1.0  0.68095  0.92137  0.23218  1.0000
  O   O25       1.0  0.42174  0.68797  0.31753  1.0000
  O   O26       1.0  0.57825  0.81202  0.81754  1.0000
  O   O27       1.0  0.57826  0.31200  0.68249  1.0000
  O   O28       1.0  0.42173  0.18800  0.18248  1.0000
