data_image0
_chemical_formula_structural       Cd2Fe2P4H56C52Br4O6
_chemical_formula_sum              "Cd2 Fe2 P4 H56 C52 Br4 O6"
_cell_length_a       11.1681
_cell_length_b       11.3504
_cell_length_c       13.081
_cell_angle_alpha    70.4309
_cell_angle_beta     78.8759
_cell_angle_gamma    61.1017

_space_group_name_H-M_alt    "P 1"
_space_group_IT_number       1

loop_
  _space_group_symop_operation_xyz
  'x, y, z'

loop_
  _atom_site_type_symbol
  _atom_site_label
  _atom_site_symmetry_multiplicity
  _atom_site_fract_x
  _atom_site_fract_y
  _atom_site_fract_z
  _atom_site_occupancy
  Cd  Cd1       1.0  0.47858  0.48908  0.85389  1.0000
  Cd  Cd2       1.0  0.52142  0.51092  0.14611  1.0000
  Fe  Fe1       1.0  0.20492  0.63398  0.55607  1.0000
  Fe  Fe2       1.0  0.79508  0.36602  0.44393  1.0000
  P   P1        1.0  0.26279  0.46109  0.36534  1.0000
  P   P2        1.0  0.73720  0.53891  0.63467  1.0000
  P   P3        1.0  0.72927  0.28040  0.23930  1.0000
  P   P4        1.0  0.27073  0.71961  0.76070  1.0000
  H   H1        1.0  0.98596  0.63162  0.48364  1.0000
  H   H2        1.0  0.01404  0.36838  0.51636  1.0000
  H   H3        1.0  0.99153  0.60015  0.69723  1.0000
  H   H4        1.0  0.00847  0.39985  0.30278  1.0000
  H   H5        1.0  0.25508  0.42678  0.75937  1.0000
  H   H6        1.0  0.74492  0.57322  0.24063  1.0000
  H   H7        1.0  0.40929  0.35395  0.58744  1.0000
  H   H8        1.0  0.59071  0.64604  0.41256  1.0000
  H   H9        1.0  0.45810  0.62608  0.56057  1.0000
  H   H10       1.0  0.54190  0.37392  0.43943  1.0000
  H   H11       1.0  0.34173  0.72461  0.36440  1.0000
  H   H12       1.0  0.65828  0.27539  0.63560  1.0000
  H   H13       1.0  0.06982  0.88388  0.39317  1.0000
  H   H14       1.0  0.93019  0.11612  0.60683  1.0000
  H   H15       1.0  0.01822  0.88412  0.60409  1.0000
  H   H16       1.0  0.98178  0.11588  0.39591  1.0000
  H   H17       1.0  0.64496  0.22439  0.07085  1.0000
  H   H18       1.0  0.35504  0.77561  0.92915  1.0000
  H   H19       1.0  0.59532  0.03557  0.06976  1.0000
  H   H20       1.0  0.40467  0.96443  0.93024  1.0000
  H   H21       1.0  0.62111  0.83882  0.23674  1.0000
  H   H22       1.0  0.37888  0.16118  0.76327  1.0000
  H   H23       1.0  0.69973  0.83144  0.40652  1.0000
  H   H24       1.0  0.30027  0.16855  0.59348  1.0000
  H   H25       1.0  0.74774  0.02249  0.40835  1.0000
  H   H26       1.0  0.25226  0.97751  0.59165  1.0000
  H   H27       1.0  0.86337  0.45856  0.12695  1.0000
  H   H28       1.0  0.13663  0.54144  0.87305  1.0000
  H   H29       1.0  0.10142  0.40492  0.05607  1.0000
  H   H30       1.0  0.89858  0.59508  0.94393  1.0000
  H   H31       1.0  0.27021  0.16058  0.05697  1.0000
  H   H32       1.0  0.72979  0.83942  0.94303  1.0000
  H   H33       1.0  0.20156  0.96873  0.13126  1.0000
  H   H34       1.0  0.79844  0.03127  0.86874  1.0000
  H   H35       1.0  0.96379  0.02157  0.20630  1.0000
  H   H36       1.0  0.03621  0.97843  0.79369  1.0000
  H   H37       1.0  0.41874  0.21549  0.28210  1.0000
  H   H38       1.0  0.58126  0.78451  0.71790  1.0000
  H   H39       1.0  0.24907  0.30249  0.23587  1.0000
  H   H40       1.0  0.75093  0.69751  0.76413  1.0000
  H   H41       1.0  0.36632  0.03433  0.42669  1.0000
  H   H42       1.0  0.63368  0.96567  0.57331  1.0000
  H   H43       1.0  0.32921  0.04322  0.29748  1.0000
  H   H44       1.0  0.67079  0.95678  0.70252  1.0000
  H   H45       1.0  0.19318  0.12415  0.38548  1.0000
  H   H46       1.0  0.80682  0.87585  0.61452  1.0000
  H   H47       1.0  0.20632  0.71054  0.19736  1.0000
  H   H48       1.0  0.79369  0.28946  0.80263  1.0000
  H   H49       1.0  0.06514  0.77066  0.29008  1.0000
  H   H50       1.0  0.93486  0.22934  0.70992  1.0000
  H   H51       1.0  0.05641  0.70113  0.08419  1.0000
  H   H52       1.0  0.94360  0.29887  0.91580  1.0000
  H   H53       1.0  0.98241  0.87220  0.10072  1.0000
  H   H54       1.0  0.01759  0.12780  0.89928  1.0000
  H   H55       1.0  0.91538  0.75437  0.17876  1.0000
  H   H56       1.0  0.08462  0.24563  0.82124  1.0000
  C   C1        1.0  0.21266  0.48733  0.49617  1.0000
  C   C2        1.0  0.78734  0.51267  0.50383  1.0000
  C   C3        1.0  0.07516  0.56835  0.53333  1.0000
  C   C4        1.0  0.92484  0.43165  0.46667  1.0000
  C   C5        1.0  0.07825  0.55094  0.64618  1.0000
  C   C6        1.0  0.92174  0.44906  0.35382  1.0000
  C   C7        1.0  0.21616  0.46021  0.67935  1.0000
  C   C8        1.0  0.78384  0.53979  0.32065  1.0000
  C   C9        1.0  0.29982  0.42139  0.58754  1.0000
  C   C10       1.0  0.70018  0.57861  0.41246  1.0000
  C   C11       1.0  0.75426  0.25097  0.37927  1.0000
  C   C12       1.0  0.24574  0.74904  0.62073  1.0000
  C   C13       1.0  0.35163  0.69636  0.54159  1.0000
  C   C14       1.0  0.64837  0.30364  0.45841  1.0000
  C   C15       1.0  0.28961  0.74835  0.43963  1.0000
  C   C16       1.0  0.71039  0.25165  0.56037  1.0000
  C   C17       1.0  0.14567  0.83222  0.45479  1.0000
  C   C18       1.0  0.85433  0.16778  0.54521  1.0000
  C   C19       1.0  0.11770  0.83279  0.56613  1.0000
  C   C20       1.0  0.88230  0.16721  0.43386  1.0000
  C   C21       1.0  0.70047  0.13541  0.24004  1.0000
  C   C22       1.0  0.29953  0.86459  0.75996  1.0000
  C   C23       1.0  0.65775  0.13829  0.14458  1.0000
  C   C24       1.0  0.34224  0.86171  0.85542  1.0000
  C   C25       1.0  0.62985  0.03132  0.14403  1.0000
  C   C26       1.0  0.37015  0.96868  0.85597  1.0000
  C   C27       1.0  0.64446  0.92109  0.23807  1.0000
  C   C28       1.0  0.35554  0.07891  0.76193  1.0000
  C   C29       1.0  0.68769  0.91737  0.33295  1.0000
  C   C30       1.0  0.31231  0.08264  0.66705  1.0000
  C   C31       1.0  0.71537  0.02441  0.33417  1.0000
  C   C32       1.0  0.28463  0.97559  0.66583  1.0000
  C   C33       1.0  0.89901  0.24272  0.17467  1.0000
  C   C34       1.0  0.10099  0.75728  0.82533  1.0000
  C   C35       1.0  0.93773  0.35075  0.12979  1.0000
  C   C36       1.0  0.06227  0.64925  0.87020  1.0000
  C   C37       1.0  0.07114  0.32085  0.08865  1.0000
  C   C38       1.0  0.92886  0.67915  0.91135  1.0000
  C   C39       1.0  0.16615  0.18336  0.08949  1.0000
  C   C40       1.0  0.83385  0.81664  0.91051  1.0000
  C   C41       1.0  0.12722  0.07583  0.13115  1.0000
  C   C42       1.0  0.87278  0.92417  0.86885  1.0000
  C   C43       1.0  0.99439  0.10534  0.17375  1.0000
  C   C44       1.0  0.00561  0.89466  0.82625  1.0000
  C   C45       1.0  0.31251  0.23565  0.30699  1.0000
  C   C46       1.0  0.68748  0.76435  0.69302  1.0000
  C   C47       1.0  0.29938  0.10164  0.35766  1.0000
  C   C48       1.0  0.70062  0.89836  0.64234  1.0000
  C   C49       1.0  0.10871  0.70910  0.23100  1.0000
  C   C50       1.0  0.89130  0.29090  0.76900  1.0000
  C   C51       1.0  0.00987  0.76159  0.14360  1.0000
  C   C52       1.0  0.99013  0.23840  0.85640  1.0000
  Br  Br1       1.0  0.53096  0.24284  0.84855  1.0000
  Br  Br2       1.0  0.46904  0.75716  0.15145  1.0000
  Br  Br3       1.0  0.33762  0.48860  0.05812  1.0000
  Br  Br4       1.0  0.66238  0.51140  0.94188  1.0000
  O   O1        1.0  0.39343  0.46792  0.31947  1.0000
  O   O2        1.0  0.60657  0.53207  0.68054  1.0000
  O   O3        1.0  0.26587  0.31290  0.38873  1.0000
  O   O4        1.0  0.73413  0.68709  0.61127  1.0000
  O   O5        1.0  0.13526  0.56489  0.29028  1.0000
  O   O6        1.0  0.86474  0.43511  0.70973  1.0000
