data_image0
_chemical_formula_structural       Ti2Zn2P4H14C12N2O22
_chemical_formula_sum              "Ti2 Zn2 P4 H14 C12 N2 O22"
_cell_length_a       5.0906
_cell_length_b       8.47397
_cell_length_c       14.927
_cell_angle_alpha    83.7463
_cell_angle_beta     83.079
_cell_angle_gamma    89.94

_space_group_name_H-M_alt    "P 1"
_space_group_IT_number       1

loop_
  _space_group_symop_operation_xyz
  'x, y, z'

loop_
  _atom_site_type_symbol
  _atom_site_label
  _atom_site_symmetry_multiplicity
  _atom_site_fract_x
  _atom_site_fract_y
  _atom_site_fract_z
  _atom_site_occupancy
  Ti  Ti1       1.0  0.25772  0.74312  0.02677  1.0000
  Ti  Ti2       1.0  0.74228  0.25688  0.97322  1.0000
  Zn  Zn1       1.0  0.12203  0.75310  0.74120  1.0000
  Zn  Zn2       1.0  0.87797  0.24690  0.25880  1.0000
  P   P1        1.0  0.27974  0.46081  0.88005  1.0000
  P   P2        1.0  0.72026  0.53918  0.11995  1.0000
  P   P3        1.0  0.81356  0.90371  0.90314  1.0000
  P   P4        1.0  0.18644  0.09629  0.09686  1.0000
  H   H1        1.0  0.74887  0.88966  0.39582  1.0000
  H   H2        1.0  0.25113  0.11034  0.60418  1.0000
  H   H3        1.0  0.34600  0.58801  0.50028  1.0000
  H   H4        1.0  0.65400  0.41199  0.49972  1.0000
  H   H5        1.0  0.56076  0.89152  0.75644  1.0000
  H   H6        1.0  0.43925  0.10848  0.24356  1.0000
  H   H7        1.0  0.28787  0.65227  0.21953  1.0000
  H   H8        1.0  0.71214  0.34773  0.78047  1.0000
  H   H9        1.0  0.92562  0.82420  0.23738  1.0000
  H   H10       1.0  0.07438  0.17580  0.76262  1.0000
  H   H11       1.0  0.54273  0.88895  0.65300  1.0000
  H   H12       1.0  0.45727  0.11105  0.34699  1.0000
  H   H13       1.0  0.49832  0.53100  0.33582  1.0000
  H   H14       1.0  0.50168  0.46900  0.66418  1.0000
  C   C1        1.0  0.93774  0.77717  0.55443  1.0000
  C   C2        1.0  0.06225  0.22283  0.44557  1.0000
  C   C3        1.0  0.33485  0.60841  0.35536  1.0000
  C   C4        1.0  0.66515  0.39159  0.64464  1.0000
  C   C5        1.0  0.24979  0.64005  0.44316  1.0000
  C   C6        1.0  0.75021  0.35995  0.55684  1.0000
  C   C7        1.0  0.03646  0.74151  0.45887  1.0000
  C   C8        1.0  0.96354  0.25849  0.54113  1.0000
  C   C9        1.0  0.91397  0.80964  0.38531  1.0000
  C   C10       1.0  0.08602  0.19036  0.61469  1.0000
  C   C11       1.0  0.00704  0.77558  0.29846  1.0000
  C   C12       1.0  0.99296  0.22442  0.70154  1.0000
  N   N1        1.0  0.21235  0.67682  0.28624  1.0000
  N   N2        1.0  0.78766  0.32318  0.71376  1.0000
  O   O1        1.0  0.25752  0.55032  0.78617  1.0000
  O   O2        1.0  0.74249  0.44968  0.21383  1.0000
  O   O3        1.0  0.07000  0.32561  0.89931  1.0000
  O   O4        1.0  0.93000  0.67439  0.10069  1.0000
  O   O5        1.0  0.24468  0.56858  0.95685  1.0000
  O   O6        1.0  0.75533  0.43142  0.04315  1.0000
  O   O7        1.0  0.56026  0.38618  0.87646  1.0000
  O   O8        1.0  0.43974  0.61382  0.12354  1.0000
  O   O9        1.0  0.59974  0.80365  0.96545  1.0000
  O   O10       1.0  0.40026  0.19635  0.03455  1.0000
  O   O11       1.0  0.74154  0.08063  0.89793  1.0000
  O   O12       1.0  0.25846  0.91937  0.10207  1.0000
  O   O13       1.0  0.08659  0.87610  0.93684  1.0000
  O   O14       1.0  0.91341  0.12390  0.06316  1.0000
  O   O15       1.0  0.82553  0.85368  0.80552  1.0000
  O   O16       1.0  0.17447  0.14632  0.19448  1.0000
  O   O17       1.0  0.06797  0.71007  0.61617  1.0000
  O   O18       1.0  0.93203  0.28993  0.38383  1.0000
  O   O19       1.0  0.74039  0.86532  0.56357  1.0000
  O   O20       1.0  0.25961  0.13468  0.43643  1.0000
  O   O21       1.0  0.42833  0.90728  0.71122  1.0000
  O   O22       1.0  0.57167  0.09272  0.28878  1.0000
