data_image0
_chemical_formula_structural       Ca2H36C44O12
_chemical_formula_sum              "Ca2 H36 C44 O12"
_cell_length_a       7.66425
_cell_length_b       11.3856
_cell_length_c       11.9388
_cell_angle_alpha    118.464
_cell_angle_beta     93.8106
_cell_angle_gamma    89.9923

_space_group_name_H-M_alt    "P 1"
_space_group_IT_number       1

loop_
  _space_group_symop_operation_xyz
  'x, y, z'

loop_
  _atom_site_type_symbol
  _atom_site_label
  _atom_site_symmetry_multiplicity
  _atom_site_fract_x
  _atom_site_fract_y
  _atom_site_fract_z
  _atom_site_occupancy
  Ca  Ca1       1.0  0.75001  0.95428  0.00002  1.0000
  Ca  Ca2       1.0  0.24999  0.04572  0.99998  1.0000
  H   H1        1.0  0.02473  0.91363  0.16687  1.0000
  H   H2        1.0  0.47526  0.74680  0.83318  1.0000
  H   H3        1.0  0.97527  0.08638  0.83314  1.0000
  H   H4        1.0  0.52473  0.25320  0.16682  1.0000
  H   H5        1.0  0.85800  0.85714  0.20403  1.0000
  H   H6        1.0  0.64205  0.65321  0.79606  1.0000
  H   H7        1.0  0.14200  0.14286  0.79597  1.0000
  H   H8        1.0  0.35794  0.34679  0.20394  1.0000
  H   H9        1.0  0.93424  0.67195  0.96453  1.0000
  H   H10       1.0  0.56575  0.70745  0.03534  1.0000
  H   H11       1.0  0.06576  0.32805  0.03547  1.0000
  H   H12       1.0  0.43425  0.29255  0.96465  1.0000
  H   H13       1.0  0.84775  0.43355  0.89514  1.0000
  H   H14       1.0  0.65223  0.53838  0.10470  1.0000
  H   H15       1.0  0.15225  0.56645  0.10486  1.0000
  H   H16       1.0  0.34777  0.46162  0.89530  1.0000
  H   H17       1.0  0.92877  0.25424  0.68520  1.0000
  H   H18       1.0  0.57125  0.56889  0.31465  1.0000
  H   H19       1.0  0.07122  0.74576  0.31481  1.0000
  H   H20       1.0  0.42875  0.43112  0.68535  1.0000
  H   H21       1.0  0.05688  0.18485  0.48344  1.0000
  H   H22       1.0  0.44329  0.70127  0.51651  1.0000
  H   H23       1.0  0.94312  0.81515  0.51657  1.0000
  H   H24       1.0  0.55671  0.29873  0.48349  1.0000
  H   H25       1.0  0.22593  0.23685  0.34089  1.0000
  H   H26       1.0  0.27424  0.89579  0.65902  1.0000
  H   H27       1.0  0.77406  0.76315  0.65912  1.0000
  H   H28       1.0  0.72577  0.10421  0.34098  1.0000
  H   H29       1.0  0.32237  0.47406  0.41272  1.0000
  H   H30       1.0  0.17779  0.06118  0.58716  1.0000
  H   H31       1.0  0.67762  0.52594  0.58728  1.0000
  H   H32       1.0  0.82221  0.93882  0.41284  1.0000
  H   H33       1.0  0.25153  0.65417  0.62179  1.0000
  H   H34       1.0  0.24863  0.03228  0.37807  1.0000
  H   H35       1.0  0.74846  0.34583  0.37821  1.0000
  H   H36       1.0  0.75137  0.96772  0.62192  1.0000
  C   C1        1.0  0.12021  0.77008  0.84844  1.0000
  C   C2        1.0  0.37972  0.92170  0.15155  1.0000
  C   C3        1.0  0.87979  0.22992  0.15155  1.0000
  C   C4        1.0  0.62028  0.07830  0.84845  1.0000
  C   C5        1.0  0.06867  0.62586  0.79789  1.0000
  C   C6        1.0  0.43137  0.82794  0.20201  1.0000
  C   C7        1.0  0.93133  0.37413  0.20211  1.0000
  C   C8        1.0  0.56863  0.17206  0.79799  1.0000
  C   C9        1.0  0.97089  0.59230  0.87306  1.0000
  C   C10       1.0  0.52912  0.71923  0.12681  1.0000
  C   C11       1.0  0.02911  0.40770  0.12695  1.0000
  C   C12       1.0  0.47088  0.28077  0.87318  1.0000
  C   C13       1.0  0.92236  0.45799  0.83382  1.0000
  C   C14       1.0  0.57764  0.62412  0.16604  1.0000
  C   C15       1.0  0.07763  0.54201  0.16618  1.0000
  C   C16       1.0  0.42236  0.37588  0.83395  1.0000
  C   C17       1.0  0.96780  0.35817  0.71742  1.0000
  C   C18       1.0  0.53225  0.64066  0.28246  1.0000
  C   C19       1.0  0.03219  0.64183  0.28259  1.0000
  C   C20       1.0  0.46776  0.35934  0.71754  1.0000
  C   C21       1.0  0.06220  0.38848  0.63579  1.0000
  C   C22       1.0  0.43792  0.75258  0.36411  1.0000
  C   C23       1.0  0.93779  0.61151  0.36421  1.0000
  C   C24       1.0  0.56208  0.24743  0.63589  1.0000
  C   C25       1.0  0.10313  0.28682  0.51380  1.0000
  C   C26       1.0  0.39704  0.77289  0.48613  1.0000
  C   C27       1.0  0.89687  0.71317  0.48621  1.0000
  C   C28       1.0  0.60297  0.22711  0.51387  1.0000
  C   C29       1.0  0.19594  0.31587  0.43462  1.0000
  C   C30       1.0  0.30424  0.88110  0.56528  1.0000
  C   C31       1.0  0.80406  0.68413  0.56538  1.0000
  C   C32       1.0  0.69577  0.11890  0.43471  1.0000
  C   C33       1.0  0.25037  0.44971  0.47528  1.0000
  C   C34       1.0  0.24979  0.97429  0.52462  1.0000
  C   C35       1.0  0.74962  0.55029  0.52473  1.0000
  C   C36       1.0  0.75022  0.02571  0.47538  1.0000
  C   C37       1.0  0.21179  0.55138  0.59264  1.0000
  C   C38       1.0  0.28836  0.95862  0.40723  1.0000
  C   C39       1.0  0.78821  0.44862  0.40736  1.0000
  C   C40       1.0  0.71164  0.04137  0.59276  1.0000
  C   C41       1.0  0.11727  0.52439  0.67675  1.0000
  C   C42       1.0  0.38283  0.84755  0.32315  1.0000
  C   C43       1.0  0.88273  0.47561  0.32325  1.0000
  C   C44       1.0  0.61718  0.15245  0.67684  1.0000
  O   O1        1.0  0.00908  0.85834  0.90469  1.0000
  O   O2        1.0  0.49083  0.95381  0.09532  1.0000
  O   O3        1.0  0.99092  0.14166  0.09531  1.0000
  O   O4        1.0  0.50916  0.04619  0.90468  1.0000
  O   O5        1.0  0.27505  0.80409  0.83854  1.0000
  O   O6        1.0  0.22492  0.96563  0.16153  1.0000
  O   O7        1.0  0.72495  0.19591  0.16145  1.0000
  O   O8        1.0  0.77508  0.03436  0.83847  1.0000
  O   O9        1.0  0.89495  0.89474  0.15135  1.0000
  O   O10       1.0  0.60505  0.74346  0.84869  1.0000
  O   O11       1.0  0.10504  0.10528  0.84866  1.0000
  O   O12       1.0  0.39495  0.25654  0.15131  1.0000
