data_image0
_chemical_formula_structural       Sr2H36C44O12
_chemical_formula_sum              "Sr2 H36 C44 O12"
_cell_length_a       7.9173
_cell_length_b       11.2631
_cell_length_c       11.9682
_cell_angle_alpha    118.063
_cell_angle_beta     94.3149
_cell_angle_gamma    89.9977

_space_group_name_H-M_alt    "P 1"
_space_group_IT_number       1

loop_
  _space_group_symop_operation_xyz
  'x, y, z'

loop_
  _atom_site_type_symbol
  _atom_site_label
  _atom_site_symmetry_multiplicity
  _atom_site_fract_x
  _atom_site_fract_y
  _atom_site_fract_z
  _atom_site_occupancy
  Sr  Sr1       1.0  0.25005  0.44356  0.00004  1.0000
  Sr  Sr2       1.0  0.74995  0.55644  0.99996  1.0000
  H   H1        1.0  0.53603  0.40165  0.17050  1.0000
  H   H2        1.0  0.96383  0.23130  0.82975  1.0000
  H   H3        1.0  0.46397  0.59835  0.82950  1.0000
  H   H4        1.0  0.03617  0.76870  0.17025  1.0000
  H   H5        1.0  0.39199  0.32314  0.19983  1.0000
  H   H6        1.0  0.10785  0.12343  0.80020  1.0000
  H   H7        1.0  0.60800  0.67686  0.80017  1.0000
  H   H8        1.0  0.89215  0.87657  0.19980  1.0000
  H   H9        1.0  0.94664  0.79785  0.95769  1.0000
  H   H10       1.0  0.55310  0.84018  0.04208  1.0000
  H   H11       1.0  0.05335  0.20215  0.04231  1.0000
  H   H12       1.0  0.44691  0.15981  0.95792  1.0000
  H   H13       1.0  0.85546  0.96339  0.88289  1.0000
  H   H14       1.0  0.64429  0.08054  0.11680  1.0000
  H   H15       1.0  0.14454  0.03660  0.11710  1.0000
  H   H16       1.0  0.35572  0.91946  0.88320  1.0000
  H   H17       1.0  0.92759  0.92853  0.67111  1.0000
  H   H18       1.0  0.57250  0.25741  0.32875  1.0000
  H   H19       1.0  0.07241  0.07147  0.32889  1.0000
  H   H20       1.0  0.42751  0.74259  0.67125  1.0000
  H   H21       1.0  0.05365  0.79586  0.47255  1.0000
  H   H22       1.0  0.44653  0.32333  0.52742  1.0000
  H   H23       1.0  0.94636  0.20414  0.52745  1.0000
  H   H24       1.0  0.55346  0.67667  0.47258  1.0000
  H   H25       1.0  0.21771  0.59988  0.33412  1.0000
  H   H26       1.0  0.28234  0.26576  0.66577  1.0000
  H   H27       1.0  0.78229  0.40011  0.66588  1.0000
  H   H28       1.0  0.71767  0.73424  0.33423  1.0000
  H   H29       1.0  0.31195  0.43556  0.40880  1.0000
  H   H30       1.0  0.18803  0.02682  0.59109  1.0000
  H   H31       1.0  0.68805  0.56444  0.59120  1.0000
  H   H32       1.0  0.81196  0.97319  0.40891  1.0000
  H   H33       1.0  0.24803  0.46775  0.61900  1.0000
  H   H34       1.0  0.25164  0.84886  0.38083  1.0000
  H   H35       1.0  0.75197  0.53226  0.38101  1.0000
  H   H36       1.0  0.74835  0.15114  0.61917  1.0000
  C   C1        1.0  0.12561  0.58139  0.84422  1.0000
  C   C2        1.0  0.37438  0.73729  0.15576  1.0000
  C   C3        1.0  0.87438  0.41861  0.15578  1.0000
  C   C4        1.0  0.62562  0.26271  0.84424  1.0000
  C   C5        1.0  0.07452  0.67524  0.79247  1.0000
  C   C6        1.0  0.42523  0.88289  0.20732  1.0000
  C   C7        1.0  0.92548  0.32476  0.20753  1.0000
  C   C8        1.0  0.57477  0.11711  0.79267  1.0000
  C   C9        1.0  0.98003  0.78450  0.86576  1.0000
  C   C10       1.0  0.51966  0.91881  0.13395  1.0000
  C   C11       1.0  0.01997  0.21549  0.13424  1.0000
  C   C12       1.0  0.48034  0.08119  0.86605  1.0000
  C   C13       1.0  0.92941  0.87802  0.82371  1.0000
  C   C14       1.0  0.57029  0.05436  0.17599  1.0000
  C   C15       1.0  0.07059  0.12197  0.17629  1.0000
  C   C16       1.0  0.42971  0.94564  0.82401  1.0000
  C   C17       1.0  0.97036  0.85940  0.70659  1.0000
  C   C18       1.0  0.52957  0.15281  0.29321  1.0000
  C   C19       1.0  0.02964  0.14059  0.29341  1.0000
  C   C20       1.0  0.47043  0.84719  0.70679  1.0000
  C   C21       1.0  0.06302  0.74738  0.62740  1.0000
  C   C22       1.0  0.43700  0.12001  0.37245  1.0000
  C   C23       1.0  0.93698  0.25262  0.37260  1.0000
  C   C24       1.0  0.56301  0.87999  0.62754  1.0000
  C   C25       1.0  0.10043  0.72530  0.50506  1.0000
  C   C26       1.0  0.39977  0.22025  0.49486  1.0000
  C   C27       1.0  0.89957  0.27470  0.49493  1.0000
  C   C28       1.0  0.60023  0.77975  0.50514  1.0000
  C   C29       1.0  0.18994  0.61612  0.42801  1.0000
  C   C30       1.0  0.31024  0.18810  0.57192  1.0000
  C   C31       1.0  0.81006  0.38388  0.57199  1.0000
  C   C32       1.0  0.68977  0.81190  0.42808  1.0000
  C   C33       1.0  0.24372  0.52340  0.47055  1.0000
  C   C34       1.0  0.25633  0.05286  0.52935  1.0000
  C   C35       1.0  0.75627  0.47660  0.52945  1.0000
  C   C36       1.0  0.74368  0.94714  0.47065  1.0000
  C   C37       1.0  0.20870  0.54099  0.58832  1.0000
  C   C38       1.0  0.29122  0.95272  0.41153  1.0000
  C   C39       1.0  0.79129  0.45901  0.41168  1.0000
  C   C40       1.0  0.70878  0.04729  0.58847  1.0000
  C   C41       1.0  0.11870  0.65364  0.67083  1.0000
  C   C42       1.0  0.38117  0.98287  0.32899  1.0000
  C   C43       1.0  0.88130  0.34636  0.32917  1.0000
  C   C44       1.0  0.61883  0.01713  0.67101  1.0000
  O   O1        1.0  0.27598  0.53861  0.83582  1.0000
  O   O2        1.0  0.22413  0.70284  0.16432  1.0000
  O   O3        1.0  0.72402  0.46139  0.16418  1.0000
  O   O4        1.0  0.77587  0.29716  0.83568  1.0000
  O   O5        1.0  0.01677  0.54783  0.89847  1.0000
  O   O6        1.0  0.48330  0.64958  0.10154  1.0000
  O   O7        1.0  0.98323  0.45217  0.10154  1.0000
  O   O8        1.0  0.51670  0.35042  0.89846  1.0000
  O   O9        1.0  0.41116  0.37809  0.15887  1.0000
  O   O10       1.0  0.08867  0.21932  0.84149  1.0000
  O   O11       1.0  0.58883  0.62191  0.84112  1.0000
  O   O12       1.0  0.91132  0.78068  0.15851  1.0000
