data_image0
_chemical_formula_structural       Cd2H24C28N4O8
_chemical_formula_sum              "Cd2 H24 C28 N4 O8"
_cell_length_a       4.42745
_cell_length_b       8.95975
_cell_length_c       15.8179
_cell_angle_alpha    105.394
_cell_angle_beta     89.9999
_cell_angle_gamma    90

_space_group_name_H-M_alt    "P 1"
_space_group_IT_number       1

loop_
  _space_group_symop_operation_xyz
  'x, y, z'

loop_
  _atom_site_type_symbol
  _atom_site_label
  _atom_site_symmetry_multiplicity
  _atom_site_fract_x
  _atom_site_fract_y
  _atom_site_fract_z
  _atom_site_occupancy
  Cd  Cd1       1.0  1.00000  1.00000  0.50000  1.0000
  Cd  Cd2       1.0  0.50000  0.50000  0.00000  1.0000
  H   H1        1.0  0.40732  0.76626  0.43241  1.0000
  H   H2        1.0  0.90732  0.73374  0.06759  1.0000
  H   H3        1.0  0.59268  0.23374  0.56759  1.0000
  H   H4        1.0  0.09268  0.26626  0.93241  1.0000
  H   H5        1.0  0.21359  0.71953  0.51154  1.0000
  H   H6        1.0  0.71359  0.78047  0.98846  1.0000
  H   H7        1.0  0.78641  0.28047  0.48846  1.0000
  H   H8        1.0  0.28641  0.21953  0.01154  1.0000
  H   H9        1.0  0.25580  0.68523  0.27882  1.0000
  H   H10       1.0  0.75580  0.81477  0.22119  1.0000
  H   H11       1.0  0.74420  0.31477  0.72119  1.0000
  H   H12       1.0  0.24420  0.18523  0.77881  1.0000
  H   H13       1.0  0.59370  0.32222  0.21398  1.0000
  H   H14       1.0  0.09370  0.17779  0.28602  1.0000
  H   H15       1.0  0.40630  0.67778  0.78602  1.0000
  H   H16       1.0  0.90630  0.82221  0.71398  1.0000
  H   H17       1.0  0.49146  0.35498  0.37257  1.0000
  H   H18       1.0  0.99146  0.14502  0.12743  1.0000
  H   H19       1.0  0.50854  0.64502  0.62743  1.0000
  H   H20       1.0  0.00854  0.85498  0.87257  1.0000
  H   H21       1.0  0.76710  0.55927  0.48511  1.0000
  H   H22       1.0  0.26711  0.94074  0.01489  1.0000
  H   H23       1.0  0.23289  0.44073  0.51489  1.0000
  H   H24       1.0  0.73290  0.05927  0.98511  1.0000
  C   C1        1.0  0.03314  0.63298  0.38940  1.0000
  C   C2        1.0  0.53315  0.86702  0.11060  1.0000
  C   C3        1.0  0.96686  0.36702  0.61060  1.0000
  C   C4        1.0  0.46686  0.13298  0.88940  1.0000
  C   C5        1.0  0.08819  0.61405  0.30028  1.0000
  C   C6        1.0  0.58820  0.88595  0.19972  1.0000
  C   C7        1.0  0.91180  0.38595  0.69972  1.0000
  C   C8        1.0  0.41180  0.11405  0.80028  1.0000
  C   C9        1.0  0.92886  0.50274  0.23736  1.0000
  C   C10       1.0  0.42886  0.99726  0.26264  1.0000
  C   C11       1.0  0.07114  0.49726  0.76264  1.0000
  C   C12       1.0  0.57114  0.00274  0.73736  1.0000
  C   C13       1.0  0.71558  0.40862  0.26353  1.0000
  C   C14       1.0  0.21558  0.09138  0.23647  1.0000
  C   C15       1.0  0.28443  0.59138  0.73647  1.0000
  C   C16       1.0  0.78443  0.90862  0.76353  1.0000
  C   C17       1.0  0.65940  0.42788  0.35243  1.0000
  C   C18       1.0  0.15940  0.07212  0.14757  1.0000
  C   C19       1.0  0.34060  0.57211  0.64757  1.0000
  C   C20       1.0  0.84060  0.92788  0.85243  1.0000
  C   C21       1.0  0.81431  0.54094  0.41539  1.0000
  C   C22       1.0  0.31431  0.95907  0.08461  1.0000
  C   C23       1.0  0.18569  0.45906  0.58461  1.0000
  C   C24       1.0  0.68569  0.04094  0.91539  1.0000
  C   C25       1.0  0.98608  0.48549  0.14168  1.0000
  C   C26       1.0  0.48607  0.01451  0.35832  1.0000
  C   C27       1.0  0.01393  0.51451  0.85832  1.0000
  C   C28       1.0  0.51393  0.98549  0.64168  1.0000
  N   N1        1.0  0.19515  0.74646  0.45301  1.0000
  N   N2        1.0  0.69515  0.75354  0.04699  1.0000
  N   N3        1.0  0.80485  0.25354  0.54699  1.0000
  N   N4        1.0  0.30486  0.24646  0.95301  1.0000
  O   O1        1.0  0.18775  0.57279  0.12207  1.0000
  O   O2        1.0  0.68775  0.92722  0.37793  1.0000
  O   O3        1.0  0.81225  0.42722  0.87793  1.0000
  O   O4        1.0  0.31225  0.07278  0.62207  1.0000
  O   O5        1.0  0.82830  0.38716  0.08565  1.0000
  O   O6        1.0  0.32830  0.11284  0.41435  1.0000
  O   O7        1.0  0.17170  0.61284  0.91435  1.0000
  O   O8        1.0  0.67170  0.88716  0.58565  1.0000
