data_image0
_chemical_formula_structural       Cd4H40C56N16O8
_chemical_formula_sum              "Cd4 H40 C56 N16 O8"
_cell_length_a       9.89291
_cell_length_b       9.89013
_cell_length_c       16.6218
_cell_angle_alpha    95.4158
_cell_angle_beta     102.884
_cell_angle_gamma    117.801

_space_group_name_H-M_alt    "P 1"
_space_group_IT_number       1

loop_
  _space_group_symop_operation_xyz
  'x, y, z'

loop_
  _atom_site_type_symbol
  _atom_site_label
  _atom_site_symmetry_multiplicity
  _atom_site_fract_x
  _atom_site_fract_y
  _atom_site_fract_z
  _atom_site_occupancy
  Cd  Cd1       1.0  0.04972  0.32238  0.00978  1.0000
  Cd  Cd2       1.0  0.81311  0.04040  0.49012  1.0000
  Cd  Cd3       1.0  0.95028  0.67762  0.99022  1.0000
  Cd  Cd4       1.0  0.18689  0.95960  0.50988  1.0000
  H   H1        1.0  0.77843  0.89262  0.00368  1.0000
  H   H2        1.0  0.38795  0.77430  0.49614  1.0000
  H   H3        1.0  0.22157  0.10738  0.99633  1.0000
  H   H4        1.0  0.61205  0.22570  0.50386  1.0000
  H   H5        1.0  0.56216  0.89669  0.05876  1.0000
  H   H6        1.0  0.33686  0.50289  0.44093  1.0000
  H   H7        1.0  0.43784  0.10331  0.94124  1.0000
  H   H8        1.0  0.66314  0.49712  0.55907  1.0000
  H   H9        1.0  0.42674  0.68845  0.13623  1.0000
  H   H10       1.0  0.05118  0.28994  0.36367  1.0000
  H   H11       1.0  0.57327  0.31155  0.86377  1.0000
  H   H12       1.0  0.94882  0.71006  0.63634  1.0000
  H   H13       1.0  0.50634  0.48817  0.15269  1.0000
  H   H14       1.0  0.83453  0.35312  0.34743  1.0000
  H   H15       1.0  0.49365  0.51182  0.84730  1.0000
  H   H16       1.0  0.16548  0.64688  0.65257  1.0000
  H   H17       1.0  0.65194  0.33944  0.19111  1.0000
  H   H18       1.0  0.64779  0.46092  0.30866  1.0000
  H   H19       1.0  0.34806  0.66056  0.80889  1.0000
  H   H20       1.0  0.35221  0.53908  0.69134  1.0000
  H   H21       1.0  0.82746  0.20536  0.15349  1.0000
  H   H22       1.0  0.55183  0.67459  0.34607  1.0000
  H   H23       1.0  0.17254  0.79464  0.84651  1.0000
  H   H24       1.0  0.44816  0.32541  0.65393  1.0000
  H   H25       1.0  0.43898  0.91421  0.80691  1.0000
  H   H26       1.0  0.60747  0.63200  0.69283  1.0000
  H   H27       1.0  0.56102  0.08579  0.19309  1.0000
  H   H28       1.0  0.39253  0.36801  0.30718  1.0000
  H   H29       1.0  0.68287  0.02671  0.93451  1.0000
  H   H30       1.0  0.59253  0.74849  0.56523  1.0000
  H   H31       1.0  0.31713  0.97330  0.06548  1.0000
  H   H32       1.0  0.40747  0.25151  0.43477  1.0000
  H   H33       1.0  0.96193  0.34970  0.81525  1.0000
  H   H34       1.0  0.03474  0.14660  0.68450  1.0000
  H   H35       1.0  0.03807  0.65030  0.18475  1.0000
  H   H36       1.0  0.96526  0.85340  0.31550  1.0000
  H   H37       1.0  0.73055  0.24590  0.68254  1.0000
  H   H38       1.0  0.06355  0.04770  0.81718  1.0000
  H   H39       1.0  0.26944  0.75410  0.31746  1.0000
  H   H40       1.0  0.93645  0.95230  0.18282  1.0000
  C   C1        1.0  0.71325  0.80491  0.03641  1.0000
  C   C2        1.0  0.26755  0.67638  0.46344  1.0000
  C   C3        1.0  0.28676  0.19509  0.96359  1.0000
  C   C4        1.0  0.73245  0.32362  0.53656  1.0000
  C   C5        1.0  0.59531  0.80739  0.06810  1.0000
  C   C6        1.0  0.23827  0.52672  0.43167  1.0000
  C   C7        1.0  0.40469  0.19261  0.93190  1.0000
  C   C8        1.0  0.76173  0.47328  0.56833  1.0000
  C   C9        1.0  0.52125  0.69279  0.11134  1.0000
  C   C10       1.0  0.08046  0.40940  0.38853  1.0000
  C   C11       1.0  0.47875  0.30721  0.88866  1.0000
  C   C12       1.0  0.91954  0.59060  0.61147  1.0000
  C   C13       1.0  0.56690  0.58046  0.12128  1.0000
  C   C14       1.0  0.95821  0.44512  0.37872  1.0000
  C   C15       1.0  0.43310  0.41953  0.87871  1.0000
  C   C16       1.0  0.04178  0.55488  0.62129  1.0000
  C   C17       1.0  0.68672  0.58515  0.08776  1.0000
  C   C18       1.0  0.99650  0.59851  0.41222  1.0000
  C   C19       1.0  0.31328  0.41485  0.91223  1.0000
  C   C20       1.0  0.00350  0.40150  0.58778  1.0000
  C   C21       1.0  0.74155  0.47165  0.09475  1.0000
  C   C22       1.0  0.87618  0.64654  0.40520  1.0000
  C   C23       1.0  0.25845  0.52835  0.90525  1.0000
  C   C24       1.0  0.12381  0.35346  0.59481  1.0000
  C   C25       1.0  0.71963  0.36257  0.14612  1.0000
  C   C26       1.0  0.71592  0.57356  0.35368  1.0000
  C   C27       1.0  0.28036  0.63743  0.85388  1.0000
  C   C28       1.0  0.28407  0.42644  0.64632  1.0000
  C   C29       1.0  0.80802  0.29397  0.12766  1.0000
  C   C30       1.0  0.66606  0.68069  0.37203  1.0000
  C   C31       1.0  0.19198  0.70603  0.87234  1.0000
  C   C32       1.0  0.33394  0.31930  0.62797  1.0000
  C   C33       1.0  0.55426  0.00845  0.80645  1.0000
  C   C34       1.0  0.70220  0.74772  0.69329  1.0000
  C   C35       1.0  0.44574  0.99156  0.19355  1.0000
  C   C36       1.0  0.29780  0.25228  0.30672  1.0000
  C   C37       1.0  0.68895  0.07135  0.87708  1.0000
  C   C38       1.0  0.69459  0.81188  0.62266  1.0000
  C   C39       1.0  0.31106  0.92865  0.12292  1.0000
  C   C40       1.0  0.30541  0.18813  0.37734  1.0000
  C   C41       1.0  0.84471  0.25179  0.81085  1.0000
  C   C42       1.0  0.94123  0.03375  0.68889  1.0000
  C   C43       1.0  0.15528  0.74821  0.18915  1.0000
  C   C44       1.0  0.05877  0.96625  0.31110  1.0000
  C   C45       1.0  0.71635  0.19463  0.73728  1.0000
  C   C46       1.0  0.95756  0.97885  0.76245  1.0000
  C   C47       1.0  0.28365  0.80538  0.26272  1.0000
  C   C48       1.0  0.04245  0.02115  0.23755  1.0000
  C   C49       1.0  0.56745  0.07069  0.73461  1.0000
  C   C50       1.0  0.83623  0.83266  0.76513  1.0000
  C   C51       1.0  0.43254  0.92931  0.26539  1.0000
  C   C52       1.0  0.16377  0.16734  0.23487  1.0000
  C   C53       1.0  0.42377  0.01005  0.65724  1.0000
  C   C54       1.0  0.85288  0.76638  0.84255  1.0000
  C   C55       1.0  0.57622  0.98995  0.34276  1.0000
  C   C56       1.0  0.14712  0.23363  0.15745  1.0000
  N   N1        1.0  0.87719  0.35749  0.06865  1.0000
  N   N2        1.0  0.78855  0.80872  0.43112  1.0000
  N   N3        1.0  0.12281  0.64250  0.93135  1.0000
  N   N4        1.0  0.21144  0.19128  0.56888  1.0000
  N   N5        1.0  0.83581  0.46486  0.04813  1.0000
  N   N6        1.0  0.91614  0.78749  0.45180  1.0000
  N   N7        1.0  0.16419  0.53514  0.95187  1.0000
  N   N8        1.0  0.08385  0.21251  0.54820  1.0000
  N   N9        1.0  0.75828  0.69754  0.04638  1.0000
  N   N10       1.0  0.15022  0.71143  0.45355  1.0000
  N   N11       1.0  0.24172  0.30246  0.95361  1.0000
  N   N12       1.0  0.84978  0.28857  0.54646  1.0000
  N   N13       1.0  0.83211  0.19137  0.87976  1.0000
  N   N14       1.0  0.81195  0.95237  0.61999  1.0000
  N   N15       1.0  0.16789  0.80864  0.12023  1.0000
  N   N16       1.0  0.18805  0.04763  0.38001  1.0000
  O   O1        1.0  0.28566  0.92230  0.66297  1.0000
  O   O2        1.0  0.75926  0.62266  0.83699  1.0000
  O   O3        1.0  0.71433  0.07770  0.33703  1.0000
  O   O4        1.0  0.24074  0.37735  0.16301  1.0000
  O   O5        1.0  0.45253  0.05587  0.59022  1.0000
  O   O6        1.0  0.96595  0.86222  0.90948  1.0000
  O   O7        1.0  0.54747  0.94413  0.40977  1.0000
  O   O8        1.0  0.03405  0.13778  0.09052  1.0000
