data_image0
_chemical_formula_structural       Cd2Ni2H32C32N24
_chemical_formula_sum              "Cd2 Ni2 H32 C32 N24"
_cell_length_a       7.37054
_cell_length_b       9.77738
_cell_length_c       15.5313
_cell_angle_alpha    90.0001
_cell_angle_beta     90.0003
_cell_angle_gamma    105.293

_space_group_name_H-M_alt    "P 1"
_space_group_IT_number       1

loop_
  _space_group_symop_operation_xyz
  'x, y, z'

loop_
  _atom_site_type_symbol
  _atom_site_label
  _atom_site_symmetry_multiplicity
  _atom_site_fract_x
  _atom_site_fract_y
  _atom_site_fract_z
  _atom_site_occupancy
  Cd  Cd1       1.0  0.50000  0.50000  0.50000  1.0000
  Cd  Cd2       1.0  0.00000  0.50000  0.00000  1.0000
  Ni  Ni1       1.0  0.99999  1.00000  0.50000  1.0000
  Ni  Ni2       1.0  0.50000  1.00000  0.00000  1.0000
  H   H1        1.0  0.69121  0.22157  0.44252  1.0000
  H   H2        1.0  0.80880  0.77843  0.94252  1.0000
  H   H3        1.0  0.30880  0.77843  0.55748  1.0000
  H   H4        1.0  0.19120  0.22157  0.05748  1.0000
  H   H5        1.0  0.74223  0.35402  0.18207  1.0000
  H   H6        1.0  0.75777  0.64598  0.68207  1.0000
  H   H7        1.0  0.25777  0.64598  0.81793  1.0000
  H   H8        1.0  0.24223  0.35402  0.31793  1.0000
  H   H9        1.0  0.62595  0.55222  0.28118  1.0000
  H   H10       1.0  0.87406  0.44779  0.78118  1.0000
  H   H11       1.0  0.37406  0.44778  0.71882  1.0000
  H   H12       1.0  0.12595  0.55221  0.21882  1.0000
  H   H13       1.0  0.58801  0.80686  0.36041  1.0000
  H   H14       1.0  0.91199  0.19314  0.86041  1.0000
  H   H15       1.0  0.41199  0.19314  0.63958  1.0000
  H   H16       1.0  0.08802  0.80686  0.13959  1.0000
  H   H17       1.0  0.00051  0.73917  0.33011  1.0000
  H   H18       1.0  0.49949  0.26083  0.83012  1.0000
  H   H19       1.0  0.99949  0.26083  0.66989  1.0000
  H   H20       1.0  0.50051  0.73917  0.16989  1.0000
  H   H21       1.0  0.07097  0.52394  0.43069  1.0000
  H   H22       1.0  0.42903  0.47606  0.93069  1.0000
  H   H23       1.0  0.92903  0.47606  0.56931  1.0000
  H   H24       1.0  0.57097  0.52393  0.06931  1.0000
  H   H25       1.0  0.77877  0.16506  0.29149  1.0000
  H   H26       1.0  0.72123  0.83495  0.79149  1.0000
  H   H27       1.0  0.22122  0.83494  0.70851  1.0000
  H   H28       1.0  0.27878  0.16505  0.20851  1.0000
  H   H29       1.0  0.32765  0.89265  0.28705  1.0000
  H   H30       1.0  0.17235  0.10735  0.78705  1.0000
  H   H31       1.0  0.67235  0.10735  0.71295  1.0000
  H   H32       1.0  0.82765  0.89265  0.21295  1.0000
  C   C1        1.0  0.68860  0.28666  0.38632  1.0000
  C   C2        1.0  0.81141  0.71335  0.88632  1.0000
  C   C3        1.0  0.31141  0.71334  0.61368  1.0000
  C   C4        1.0  0.18860  0.28666  0.11368  1.0000
  C   C5        1.0  0.71514  0.35802  0.25044  1.0000
  C   C6        1.0  0.78486  0.64199  0.75045  1.0000
  C   C7        1.0  0.28485  0.64199  0.74955  1.0000
  C   C8        1.0  0.21515  0.35802  0.24955  1.0000
  C   C9        1.0  0.65928  0.45538  0.30074  1.0000
  C   C10       1.0  0.84073  0.54463  0.80074  1.0000
  C   C11       1.0  0.34073  0.54463  0.69926  1.0000
  C   C12       1.0  0.15927  0.45537  0.19926  1.0000
  C   C13       1.0  0.43882  0.75617  0.36603  1.0000
  C   C14       1.0  0.06118  0.24383  0.86603  1.0000
  C   C15       1.0  0.56118  0.24383  0.63397  1.0000
  C   C16       1.0  0.93882  0.75617  0.13397  1.0000
  C   C17       1.0  0.13124  0.71969  0.35110  1.0000
  C   C18       1.0  0.36876  0.28032  0.85110  1.0000
  C   C19       1.0  0.86876  0.28031  0.64890  1.0000
  C   C20       1.0  0.63124  0.71968  0.14890  1.0000
  C   C21       1.0  0.16841  0.61444  0.40123  1.0000
  C   C22       1.0  0.33159  0.38556  0.90123  1.0000
  C   C23       1.0  0.83158  0.38556  0.59877  1.0000
  C   C24       1.0  0.66842  0.61444  0.09877  1.0000
  C   C25       1.0  0.85827  0.81567  0.51140  1.0000
  C   C26       1.0  0.64173  0.18434  0.01141  1.0000
  C   C27       1.0  0.14173  0.18434  0.48859  1.0000
  C   C28       1.0  0.35827  0.81566  0.98860  1.0000
  C   C29       1.0  0.07143  0.00041  0.61348  1.0000
  C   C30       1.0  0.42857  0.99959  0.11349  1.0000
  C   C31       1.0  0.92855  0.99959  0.38650  1.0000
  C   C32       1.0  0.57144  0.00041  0.88652  1.0000
  N   N1        1.0  0.64272  0.40972  0.38530  1.0000
  N   N2        1.0  0.85729  0.59028  0.88530  1.0000
  N   N3        1.0  0.35729  0.59028  0.61471  1.0000
  N   N4        1.0  0.14272  0.40972  0.11471  1.0000
  N   N5        1.0  0.73244  0.25245  0.30590  1.0000
  N   N6        1.0  0.76756  0.74756  0.80591  1.0000
  N   N7        1.0  0.26756  0.74755  0.69409  1.0000
  N   N8        1.0  0.23244  0.25244  0.19409  1.0000
  N   N9        1.0  0.36076  0.63822  0.40999  1.0000
  N   N10       1.0  0.13924  0.36178  0.90999  1.0000
  N   N11       1.0  0.63925  0.36178  0.59001  1.0000
  N   N12       1.0  0.86076  0.63822  0.09001  1.0000
  N   N13       1.0  0.30381  0.80845  0.32965  1.0000
  N   N14       1.0  0.19619  0.19155  0.82965  1.0000
  N   N15       1.0  0.69618  0.19155  0.67035  1.0000
  N   N16       1.0  0.80381  0.80845  0.17035  1.0000
  N   N17       1.0  0.76702  0.69823  0.51843  1.0000
  N   N18       1.0  0.73297  0.30176  0.01844  1.0000
  N   N19       1.0  0.23297  0.30176  0.48156  1.0000
  N   N20       1.0  0.26703  0.69824  0.98156  1.0000
  N   N21       1.0  0.11976  0.00057  0.68572  1.0000
  N   N22       1.0  0.38024  0.99943  0.18573  1.0000
  N   N23       1.0  0.88024  0.99944  0.31428  1.0000
  N   N24       1.0  0.61976  0.00057  0.81428  1.0000
