data_image0
_chemical_formula_structural       Ni2H24C28N4O8
_chemical_formula_sum              "Ni2 H24 C28 N4 O8"
_cell_length_a       4.48094
_cell_length_b       8.63724
_cell_length_c       15.1617
_cell_angle_alpha    105.233
_cell_angle_beta     89.9999
_cell_angle_gamma    90

_space_group_name_H-M_alt    "P 1"
_space_group_IT_number       1

loop_
  _space_group_symop_operation_xyz
  'x, y, z'

loop_
  _atom_site_type_symbol
  _atom_site_label
  _atom_site_symmetry_multiplicity
  _atom_site_fract_x
  _atom_site_fract_y
  _atom_site_fract_z
  _atom_site_occupancy
  Ni  Ni1       1.0  0.00000  0.00000  0.50000  1.0000
  Ni  Ni2       1.0  0.50000  0.50000  0.00000  1.0000
  H   H1        1.0  0.38667  0.77399  0.44587  1.0000
  H   H2        1.0  0.88668  0.72601  0.05413  1.0000
  H   H3        1.0  0.61332  0.22601  0.55413  1.0000
  H   H4        1.0  0.11332  0.27399  0.94587  1.0000
  H   H5        1.0  0.15391  0.73608  0.52212  1.0000
  H   H6        1.0  0.65392  0.76392  0.97788  1.0000
  H   H7        1.0  0.84608  0.26392  0.47788  1.0000
  H   H8        1.0  0.34608  0.23608  0.02211  1.0000
  H   H9        1.0  0.25275  0.69272  0.27827  1.0000
  H   H10       1.0  0.75275  0.80728  0.22173  1.0000
  H   H11       1.0  0.74724  0.30728  0.72173  1.0000
  H   H12       1.0  0.24724  0.19272  0.77827  1.0000
  H   H13       1.0  0.58659  0.32355  0.20604  1.0000
  H   H14       1.0  0.08659  0.17646  0.29396  1.0000
  H   H15       1.0  0.41341  0.67645  0.79396  1.0000
  H   H16       1.0  0.91341  0.82354  0.70604  1.0000
  H   H17       1.0  0.47454  0.35647  0.37072  1.0000
  H   H18       1.0  0.97454  0.14353  0.12928  1.0000
  H   H19       1.0  0.52547  0.64353  0.62928  1.0000
  H   H20       1.0  0.02546  0.85647  0.87072  1.0000
  H   H21       1.0  0.74417  0.56502  0.48967  1.0000
  H   H22       1.0  0.24418  0.93499  0.01032  1.0000
  H   H23       1.0  0.25583  0.43499  0.51033  1.0000
  H   H24       1.0  0.75582  0.06501  0.98967  1.0000
  C   C1        1.0  0.01447  0.64281  0.39188  1.0000
  C   C2        1.0  0.51448  0.85719  0.10812  1.0000
  C   C3        1.0  0.98553  0.35719  0.60812  1.0000
  C   C4        1.0  0.48552  0.14281  0.89188  1.0000
  C   C5        1.0  0.08089  0.62102  0.29944  1.0000
  C   C6        1.0  0.58089  0.87898  0.20056  1.0000
  C   C7        1.0  0.91911  0.37898  0.70056  1.0000
  C   C8        1.0  0.41911  0.12102  0.79944  1.0000
  C   C9        1.0  0.92640  0.50633  0.23273  1.0000
  C   C10       1.0  0.42640  0.99367  0.26728  1.0000
  C   C11       1.0  0.07360  0.49367  0.76728  1.0000
  C   C12       1.0  0.57360  0.00633  0.73272  1.0000
  C   C13       1.0  0.70639  0.41175  0.25842  1.0000
  C   C14       1.0  0.20640  0.08825  0.24158  1.0000
  C   C15       1.0  0.29361  0.58825  0.74158  1.0000
  C   C16       1.0  0.79360  0.91175  0.75841  1.0000
  C   C17       1.0  0.64354  0.43154  0.35068  1.0000
  C   C18       1.0  0.14355  0.06846  0.14932  1.0000
  C   C19       1.0  0.35646  0.56846  0.64932  1.0000
  C   C20       1.0  0.85645  0.93154  0.85068  1.0000
  C   C21       1.0  0.79447  0.54740  0.41734  1.0000
  C   C22       1.0  0.29448  0.95260  0.08266  1.0000
  C   C23       1.0  0.20553  0.45260  0.58266  1.0000
  C   C24       1.0  0.70553  0.04740  0.91734  1.0000
  C   C25       1.0  0.00210  0.48170  0.13351  1.0000
  C   C26       1.0  0.50211  0.01830  0.36649  1.0000
  C   C27       1.0  0.99789  0.51830  0.86649  1.0000
  C   C28       1.0  0.49790  0.98171  0.63351  1.0000
  N   N1        1.0  0.16574  0.76104  0.45997  1.0000
  N   N2        1.0  0.66575  0.73896  0.04003  1.0000
  N   N3        1.0  0.83426  0.23896  0.54003  1.0000
  N   N4        1.0  0.33425  0.26104  0.95997  1.0000
  O   O1        1.0  0.24174  0.54824  0.11643  1.0000
  O   O2        1.0  0.74174  0.95176  0.38358  1.0000
  O   O3        1.0  0.75825  0.45176  0.88357  1.0000
  O   O4        1.0  0.25827  0.04825  0.61642  1.0000
  O   O5        1.0  0.82888  0.39469  0.07345  1.0000
  O   O6        1.0  0.32888  0.10531  0.42655  1.0000
  O   O7        1.0  0.17111  0.60531  0.92655  1.0000
  O   O8        1.0  0.67112  0.89469  0.57345  1.0000
