data_image0
_chemical_formula_structural       CoH18C12N6O4
_chemical_formula_sum              "Co1 H18 C12 N6 O4"
_cell_length_a       7.35464
_cell_length_b       7.9168
_cell_length_c       8.42328
_cell_angle_alpha    67.7952
_cell_angle_beta     64.1273
_cell_angle_gamma    62.3221

_space_group_name_H-M_alt    "P 1"
_space_group_IT_number       1

loop_
  _space_group_symop_operation_xyz
  'x, y, z'

loop_
  _atom_site_type_symbol
  _atom_site_label
  _atom_site_symmetry_multiplicity
  _atom_site_fract_x
  _atom_site_fract_y
  _atom_site_fract_z
  _atom_site_occupancy
  Co  Co1       1.0  1.00000  0.00000  1.00000  1.0000
  H   H1        1.0  0.87991  0.38411  0.85592  1.0000
  H   H2        1.0  0.12009  0.61589  0.14408  1.0000
  H   H3        1.0  0.51265  0.60520  0.60984  1.0000
  H   H4        1.0  0.72779  0.39478  0.39016  1.0000
  H   H5        1.0  0.48735  0.39480  0.39016  1.0000
  H   H6        1.0  0.27221  0.60522  0.60984  1.0000
  H   H7        1.0  0.39691  0.76976  0.43629  1.0000
  H   H8        1.0  0.60310  0.23024  0.56371  1.0000
  H   H9        1.0  0.13352  0.31606  0.41683  1.0000
  H   H10       1.0  0.86648  0.68394  0.58317  1.0000
  H   H11       1.0  0.14027  0.11426  0.36449  1.0000
  H   H12       1.0  0.61909  0.88574  0.63549  1.0000
  H   H13       1.0  0.85973  0.88574  0.63551  1.0000
  H   H14       1.0  0.38091  0.11426  0.36451  1.0000
  H   H15       1.0  0.78134  0.69570  0.08293  1.0000
  H   H16       1.0  0.56004  0.30422  0.91710  1.0000
  H   H17       1.0  0.21867  0.30430  0.91707  1.0000
  H   H18       1.0  0.43996  0.69578  0.08290  1.0000
  C   C1        1.0  0.22847  0.84765  0.69546  1.0000
  C   C2        1.0  0.77153  0.15235  0.30454  1.0000
  C   C3        1.0  0.15586  0.05952  0.62876  1.0000
  C   C4        1.0  0.84414  0.94048  0.37124  1.0000
  C   C5        1.0  0.35940  0.70049  0.58063  1.0000
  C   C6        1.0  0.64060  0.29951  0.41937  1.0000
  C   C7        1.0  0.20496  0.15699  0.43304  1.0000
  C   C8        1.0  0.79504  0.84301  0.56697  1.0000
  C   C9        1.0  0.65521  0.83238  0.04666  1.0000
  C   C10       1.0  0.53430  0.16756  0.95331  1.0000
  C   C11       1.0  0.34480  0.16762  0.95334  1.0000
  C   C12       1.0  0.46570  0.83244  0.04668  1.0000
  N   N1        1.0  0.68866  0.99996  0.99997  1.0000
  N   N2        1.0  0.31135  0.00004  0.00003  1.0000
  N   N3        1.0  0.16583  0.79439  0.87408  1.0000
  N   N4        1.0  0.83416  0.20561  0.12592  1.0000
  N   N5        1.0  0.04272  0.15388  0.76057  1.0000
  N   N6        1.0  0.95728  0.84612  0.23943  1.0000
  O   O1        1.0  0.96196  0.35373  0.72220  1.0000
  O   O2        1.0  0.03804  0.64627  0.27781  1.0000
  O   O3        1.0  0.21815  0.60728  0.95667  1.0000
  O   O4        1.0  0.78183  0.39272  0.04334  1.0000
