data_image0
_chemical_formula_structural       Er4H32C24O28
_chemical_formula_sum              "Er4 H32 C24 O28"
_cell_length_a       7.49742
_cell_length_b       8.41471
_cell_length_c       13.8175
_cell_angle_alpha    96.4736
_cell_angle_beta     98.0597
_cell_angle_gamma    99.398

_space_group_name_H-M_alt    "P 1"
_space_group_IT_number       1

loop_
  _space_group_symop_operation_xyz
  'x, y, z'

loop_
  _atom_site_type_symbol
  _atom_site_label
  _atom_site_symmetry_multiplicity
  _atom_site_fract_x
  _atom_site_fract_y
  _atom_site_fract_z
  _atom_site_occupancy
  Er  Er1       1.0  0.59750  0.98523  0.70711  1.0000
  Er  Er2       1.0  0.40250  0.01477  0.29289  1.0000
  Er  Er3       1.0  0.14023  0.07954  0.79452  1.0000
  Er  Er4       1.0  0.85977  0.92045  0.20548  1.0000
  H   H1        1.0  0.34501  0.59271  0.84089  1.0000
  H   H2        1.0  0.65500  0.40729  0.15911  1.0000
  H   H3        1.0  0.54306  0.72017  0.90919  1.0000
  H   H4        1.0  0.45694  0.27983  0.09081  1.0000
  H   H5        1.0  0.04228  0.66126  0.75501  1.0000
  H   H6        1.0  0.95772  0.33874  0.24500  1.0000
  H   H7        1.0  0.95654  0.62345  0.86354  1.0000
  H   H8        1.0  0.04345  0.37655  0.13647  1.0000
  H   H9        1.0  0.96947  0.79627  0.43086  1.0000
  H   H10       1.0  0.03053  0.20374  0.56914  1.0000
  H   H11       1.0  0.96254  0.63732  0.50326  1.0000
  H   H12       1.0  0.03746  0.36268  0.49674  1.0000
  H   H13       1.0  0.36577  0.52192  0.00525  1.0000
  H   H14       1.0  0.63424  0.47808  0.99475  1.0000
  H   H15       1.0  0.18585  0.63394  0.99404  1.0000
  H   H16       1.0  0.81415  0.36606  0.00596  1.0000
  H   H17       1.0  0.61258  0.61232  0.48431  1.0000
  H   H18       1.0  0.38742  0.38768  0.51569  1.0000
  H   H19       1.0  0.69647  0.56190  0.37249  1.0000
  H   H20       1.0  0.30353  0.43810  0.62751  1.0000
  H   H21       1.0  0.78195  0.44828  0.65499  1.0000
  H   H22       1.0  0.21805  0.55172  0.34501  1.0000
  H   H23       1.0  0.70058  0.40748  0.76315  1.0000
  H   H24       1.0  0.29942  0.59252  0.23685  1.0000
  H   H25       1.0  0.02819  0.14080  0.99465  1.0000
  H   H26       1.0  0.97181  0.85920  0.00535  1.0000
  H   H27       1.0  0.87384  0.16796  0.91214  1.0000
  H   H28       1.0  0.12616  0.83204  0.08786  1.0000
  H   H29       1.0  0.24242  0.84877  0.59511  1.0000
  H   H30       1.0  0.75758  0.15123  0.40489  1.0000
  H   H31       1.0  0.38781  0.82303  0.51861  1.0000
  H   H32       1.0  0.61219  0.17698  0.48139  1.0000
  C   C1        1.0  0.31817  0.83821  0.87049  1.0000
  C   C2        1.0  0.68183  0.16180  0.12951  1.0000
  C   C3        1.0  0.39293  0.69323  0.90191  1.0000
  C   C4        1.0  0.60707  0.30678  0.09809  1.0000
  C   C5        1.0  0.79349  0.74399  0.76816  1.0000
  C   C6        1.0  0.20651  0.25601  0.23184  1.0000
  C   C7        1.0  0.91551  0.62042  0.78359  1.0000
  C   C8        1.0  0.08449  0.37958  0.21641  1.0000
  C   C9        1.0  0.89674  0.85586  0.57301  1.0000
  C   C10       1.0  0.10325  0.14414  0.42699  1.0000
  C   C11       1.0  0.43755  0.76107  0.08605  1.0000
  C   C12       1.0  0.56246  0.23893  0.91396  1.0000
  C   C13       1.0  0.94946  0.32716  0.74627  1.0000
  C   C14       1.0  0.05054  0.67284  0.25373  1.0000
  C   C15       1.0  0.88984  0.73449  0.48144  1.0000
  C   C16       1.0  0.11016  0.26551  0.51856  1.0000
  C   C17       1.0  0.59509  0.78180  0.38165  1.0000
  C   C18       1.0  0.40491  0.21820  0.61835  1.0000
  C   C19       1.0  0.33403  0.64316  0.99723  1.0000
  C   C20       1.0  0.66598  0.35684  0.00277  1.0000
  C   C21       1.0  0.69335  0.66174  0.43065  1.0000
  C   C22       1.0  0.30665  0.33826  0.56935  1.0000
  C   C23       1.0  0.82653  0.45046  0.73456  1.0000
  C   C24       1.0  0.17346  0.54954  0.26545  1.0000
  O   O1        1.0  0.36858  0.83043  0.58876  1.0000
  O   O2        1.0  0.63142  0.16958  0.41124  1.0000
  O   O3        1.0  0.35746  0.89220  0.79052  1.0000
  O   O4        1.0  0.64253  0.10779  0.20948  1.0000
  O   O5        1.0  0.20949  0.90433  0.91706  1.0000
  O   O6        1.0  0.79052  0.09567  0.08294  1.0000
  O   O7        1.0  0.63058  0.70367  0.72426  1.0000
  O   O8        1.0  0.36942  0.29633  0.27574  1.0000
  O   O9        1.0  0.85968  0.89646  0.79975  1.0000
  O   O10       1.0  0.14033  0.10354  0.20025  1.0000
  O   O11       1.0  0.04821  0.89885  0.63308  1.0000
  O   O12       1.0  0.95178  0.10115  0.36692  1.0000
  O   O13       1.0  0.75015  0.90622  0.58429  1.0000
  O   O14       1.0  0.24985  0.09378  0.41570  1.0000
  O   O15       1.0  0.44693  0.81686  0.40570  1.0000
  O   O16       1.0  0.55308  0.18314  0.59429  1.0000
  O   O17       1.0  0.65652  0.84839  0.31091  1.0000
  O   O18       1.0  0.34348  0.15160  0.68909  1.0000
  O   O19       1.0  0.87794  0.17416  0.72322  1.0000
  O   O20       1.0  0.12206  0.82584  0.27678  1.0000
  O   O21       1.0  0.60975  0.77339  0.10147  1.0000
  O   O22       1.0  0.39025  0.22661  0.89853  1.0000
  O   O23       1.0  0.34666  0.84165  0.13960  1.0000
  O   O24       1.0  0.65335  0.15834  0.86040  1.0000
  O   O25       1.0  0.01036  0.18021  0.93100  1.0000
  O   O26       1.0  0.98964  0.81978  0.06900  1.0000
  O   O27       1.0  0.11915  0.36620  0.77749  1.0000
  O   O28       1.0  0.88085  0.63380  0.22250  1.0000
