data_image0
_chemical_formula_structural       Cd4H24C8N20Cl12
_chemical_formula_sum              "Cd4 H24 C8 N20 Cl12"
_cell_length_a       6.56794
_cell_length_b       11.7336
_cell_length_c       11.4077
_cell_angle_alpha    90.0002
_cell_angle_beta     90.0001
_cell_angle_gamma    101.732

_space_group_name_H-M_alt    "P 1"
_space_group_IT_number       1

loop_
  _space_group_symop_operation_xyz
  'x, y, z'

loop_
  _atom_site_type_symbol
  _atom_site_label
  _atom_site_symmetry_multiplicity
  _atom_site_fract_x
  _atom_site_fract_y
  _atom_site_fract_z
  _atom_site_occupancy
  Cd  Cd1       1.0  0.26262  0.55484  0.94094  1.0000
  Cd  Cd2       1.0  0.73738  0.94516  0.44095  1.0000
  Cd  Cd3       1.0  0.73738  0.44516  0.05905  1.0000
  Cd  Cd4       1.0  0.26262  0.05484  0.55906  1.0000
  H   H1        1.0  0.71120  0.72324  0.77615  1.0000
  H   H2        1.0  0.28879  0.77676  0.27616  1.0000
  H   H3        1.0  0.28878  0.27676  0.22384  1.0000
  H   H4        1.0  0.71122  0.22324  0.72385  1.0000
  H   H5        1.0  0.36154  0.39724  0.69195  1.0000
  H   H6        1.0  0.63846  0.10277  0.19195  1.0000
  H   H7        1.0  0.63846  0.60277  0.30804  1.0000
  H   H8        1.0  0.36154  0.89724  0.80805  1.0000
  H   H9        1.0  0.05183  0.67456  0.67430  1.0000
  H   H10       1.0  0.94816  0.82544  0.17430  1.0000
  H   H11       1.0  0.94816  0.32544  0.32570  1.0000
  H   H12       1.0  0.05184  0.17456  0.82570  1.0000
  H   H13       1.0  0.94849  0.70393  0.54568  1.0000
  H   H14       1.0  0.05151  0.79607  0.04568  1.0000
  H   H15       1.0  0.05150  0.29607  0.45432  1.0000
  H   H16       1.0  0.94850  0.20394  0.95432  1.0000
  H   H17       1.0  0.84153  0.43274  0.50049  1.0000
  H   H18       1.0  0.15847  0.06726  0.00048  1.0000
  H   H19       1.0  0.15846  0.56726  0.49951  1.0000
  H   H20       1.0  0.84154  0.93274  0.99952  1.0000
  H   H21       1.0  0.61949  0.33103  0.53355  1.0000
  H   H22       1.0  0.38050  0.16898  0.03354  1.0000
  H   H23       1.0  0.38050  0.66897  0.46646  1.0000
  H   H24       1.0  0.61950  0.83103  0.96646  1.0000
  C   C1        1.0  0.65407  0.63929  0.73572  1.0000
  C   C2        1.0  0.34593  0.86071  0.23573  1.0000
  C   C3        1.0  0.34593  0.36071  0.26427  1.0000
  C   C4        1.0  0.65407  0.13929  0.76428  1.0000
  C   C5        1.0  0.65065  0.48604  0.62223  1.0000
  C   C6        1.0  0.34935  0.01396  0.12224  1.0000
  C   C7        1.0  0.34935  0.51396  0.37776  1.0000
  C   C8        1.0  0.65066  0.98604  0.87777  1.0000
  N   N1        1.0  0.76178  0.59457  0.64934  1.0000
  N   N2        1.0  0.23821  0.90543  0.14934  1.0000
  N   N3        1.0  0.23821  0.40543  0.35065  1.0000
  N   N4        1.0  0.76179  0.09457  0.85066  1.0000
  N   N5        1.0  0.48318  0.56500  0.76180  1.0000
  N   N6        1.0  0.51681  0.93500  0.26181  1.0000
  N   N7        1.0  0.51681  0.43500  0.23819  1.0000
  N   N8        1.0  0.48319  0.06500  0.73820  1.0000
  N   N9        1.0  0.48177  0.47049  0.69087  1.0000
  N   N10       1.0  0.51823  0.02951  0.19087  1.0000
  N   N11       1.0  0.51823  0.52951  0.30913  1.0000
  N   N12       1.0  0.48178  0.97049  0.80913  1.0000
  N   N13       1.0  0.95996  0.63883  0.60471  1.0000
  N   N14       1.0  0.04003  0.86117  0.10471  1.0000
  N   N15       1.0  0.04003  0.36117  0.39529  1.0000
  N   N16       1.0  0.95997  0.13883  0.89529  1.0000
  N   N17       1.0  0.69901  0.41542  0.54090  1.0000
  N   N18       1.0  0.30098  0.08458  0.04091  1.0000
  N   N19       1.0  0.30098  0.58458  0.45909  1.0000
  N   N20       1.0  0.69902  0.91542  0.95910  1.0000
  Cl  Cl1       1.0  0.38853  0.34829  0.96052  1.0000
  Cl  Cl2       1.0  0.61148  0.15171  0.46052  1.0000
  Cl  Cl3       1.0  0.61147  0.65171  0.03948  1.0000
  Cl  Cl4       1.0  0.38853  0.84829  0.53948  1.0000
  Cl  Cl5       1.0  0.92235  0.43331  0.85517  1.0000
  Cl  Cl6       1.0  0.07765  0.06669  0.35516  1.0000
  Cl  Cl7       1.0  0.07765  0.56669  0.14483  1.0000
  Cl  Cl8       1.0  0.92235  0.93331  0.64484  1.0000
  Cl  Cl9       1.0  0.16470  0.74676  0.86135  1.0000
  Cl  Cl10      1.0  0.83529  0.75324  0.36135  1.0000
  Cl  Cl11      1.0  0.83529  0.25324  0.13865  1.0000
  Cl  Cl12      1.0  0.16470  0.24676  0.63865  1.0000
