data_image0
_chemical_formula_structural       Cd4H32C40S8N8O8
_chemical_formula_sum              "Cd4 H32 C40 S8 N8 O8"
_cell_length_a       7.52426
_cell_length_b       10.024
_cell_length_c       15.8804
_cell_angle_alpha    89.9985
_cell_angle_beta     90.002
_cell_angle_gamma    98.7988

_space_group_name_H-M_alt    "P 1"
_space_group_IT_number       1

loop_
  _space_group_symop_operation_xyz
  'x, y, z'

loop_
  _atom_site_type_symbol
  _atom_site_label
  _atom_site_symmetry_multiplicity
  _atom_site_fract_x
  _atom_site_fract_y
  _atom_site_fract_z
  _atom_site_occupancy
  Cd  Cd1       1.0  0.74040  0.97427  0.03736  1.0000
  Cd  Cd2       1.0  0.75960  0.52573  0.53736  1.0000
  Cd  Cd3       1.0  0.25959  0.02573  0.96266  1.0000
  Cd  Cd4       1.0  0.24041  0.47427  0.46264  1.0000
  H   H1        1.0  0.30358  0.80670  0.08755  1.0000
  H   H2        1.0  0.19641  0.69330  0.58755  1.0000
  H   H3        1.0  0.69642  0.19328  0.91244  1.0000
  H   H4        1.0  0.80356  0.30670  0.41245  1.0000
  H   H5        1.0  0.33235  0.56657  0.12274  1.0000
  H   H6        1.0  0.16766  0.93343  0.62275  1.0000
  H   H7        1.0  0.66766  0.43343  0.87725  1.0000
  H   H8        1.0  0.83232  0.06655  0.37727  1.0000
  H   H9        1.0  0.04531  0.39454  0.12703  1.0000
  H   H10       1.0  0.45471  0.10545  0.62705  1.0000
  H   H11       1.0  0.95471  0.60546  0.87296  1.0000
  H   H12       1.0  0.54526  0.89452  0.37298  1.0000
  H   H13       1.0  0.75668  0.46978  0.09061  1.0000
  H   H14       1.0  0.74334  0.03021  0.59063  1.0000
  H   H15       1.0  0.24335  0.53020  0.90936  1.0000
  H   H16       1.0  0.25664  0.96978  0.40939  1.0000
  H   H17       1.0  0.83886  0.92879  0.85608  1.0000
  H   H18       1.0  0.66116  0.57123  0.35610  1.0000
  H   H19       1.0  0.16113  0.07124  0.14390  1.0000
  H   H20       1.0  0.33890  0.42878  0.64389  1.0000
  H   H21       1.0  0.88000  0.73737  0.75862  1.0000
  H   H22       1.0  0.61996  0.76265  0.25864  1.0000
  H   H23       1.0  0.11996  0.26266  0.24135  1.0000
  H   H24       1.0  0.38009  0.23736  0.74136  1.0000
  H   H25       1.0  0.60279  0.57685  0.71395  1.0000
  H   H26       1.0  0.89715  0.92317  0.21395  1.0000
  H   H27       1.0  0.39715  0.42317  0.28605  1.0000
  H   H28       1.0  0.10291  0.07684  0.78605  1.0000
  H   H29       1.0  0.30189  0.62779  0.75832  1.0000
  H   H30       1.0  0.19807  0.87223  0.25830  1.0000
  H   H31       1.0  0.69807  0.37222  0.24170  1.0000
  H   H32       1.0  0.80198  0.12777  0.74170  1.0000
  C   C1        1.0  0.18959  0.72550  0.08800  1.0000
  C   C2        1.0  0.31040  0.77450  0.58799  1.0000
  C   C3        1.0  0.81041  0.27449  0.91199  1.0000
  C   C4        1.0  0.68957  0.22550  0.41200  1.0000
  C   C5        1.0  0.20089  0.59391  0.10907  1.0000
  C   C6        1.0  0.29913  0.90610  0.60907  1.0000
  C   C7        1.0  0.79912  0.40608  0.89093  1.0000
  C   C8        1.0  0.70085  0.09390  0.39094  1.0000
  C   C9        1.0  0.04288  0.49986  0.11132  1.0000
  C   C10       1.0  0.45713  0.00012  0.61133  1.0000
  C   C11       1.0  0.95712  0.50012  0.88867  1.0000
  C   C12       1.0  0.54285  0.99987  0.38868  1.0000
  C   C13       1.0  0.88121  0.54123  0.09109  1.0000
  C   C14       1.0  0.61879  0.95876  0.59110  1.0000
  C   C15       1.0  0.11880  0.45875  0.90890  1.0000
  C   C16       1.0  0.38119  0.04123  0.40892  1.0000
  C   C17       1.0  0.86990  0.67550  0.06792  1.0000
  C   C18       1.0  0.63009  0.82450  0.56792  1.0000
  C   C19       1.0  0.13010  0.32449  0.93207  1.0000
  C   C20       1.0  0.36989  0.17550  0.43208  1.0000
  C   C21       1.0  0.72739  0.85729  0.83150  1.0000
  C   C22       1.0  0.77261  0.64273  0.33151  1.0000
  C   C23       1.0  0.27259  0.14274  0.16849  1.0000
  C   C24       1.0  0.22744  0.35727  0.66849  1.0000
  C   C25       1.0  0.74596  0.75110  0.77897  1.0000
  C   C26       1.0  0.75401  0.74892  0.27897  1.0000
  C   C27       1.0  0.25401  0.24893  0.22102  1.0000
  C   C28       1.0  0.24604  0.25108  0.72102  1.0000
  C   C29       1.0  0.59172  0.66403  0.75357  1.0000
  C   C30       1.0  0.90825  0.83599  0.25357  1.0000
  C   C31       1.0  0.40824  0.33599  0.24643  1.0000
  C   C32       1.0  0.09181  0.16401  0.74642  1.0000
  C   C33       1.0  0.42501  0.69129  0.77854  1.0000
  C   C34       1.0  0.07496  0.80873  0.27852  1.0000
  C   C35       1.0  0.57495  0.30873  0.22147  1.0000
  C   C36       1.0  0.92509  0.19126  0.72147  1.0000
  C   C37       1.0  0.40570  0.80235  0.83047  1.0000
  C   C38       1.0  0.09430  0.69767  0.33046  1.0000
  C   C39       1.0  0.59428  0.19767  0.16954  1.0000
  C   C40       1.0  0.90575  0.30233  0.66954  1.0000
  S   S1        1.0  0.66728  0.72101  0.03961  1.0000
  S   S2        1.0  0.83271  0.77898  0.53960  1.0000
  S   S3        1.0  0.33272  0.27898  0.96039  1.0000
  S   S4        1.0  0.16726  0.22101  0.46040  1.0000
  S   S5        1.0  0.19703  0.83571  0.85814  1.0000
  S   S6        1.0  0.30298  0.66430  0.35813  1.0000
  S   S7        1.0  0.80296  0.16431  0.14187  1.0000
  S   S8        1.0  0.69707  0.33570  0.64188  1.0000
  N   N1        1.0  0.02906  0.76550  0.06860  1.0000
  N   N2        1.0  0.47092  0.73451  0.56859  1.0000
  N   N3        1.0  0.97093  0.23449  0.93140  1.0000
  N   N4        1.0  0.52905  0.26549  0.43141  1.0000
  N   N5        1.0  0.56237  0.88089  0.85776  1.0000
  N   N6        1.0  0.93763  0.61912  0.35775  1.0000
  N   N7        1.0  0.43761  0.11912  0.14225  1.0000
  N   N8        1.0  0.06242  0.38088  0.64225  1.0000
  O   O1        1.0  0.02970  0.89635  0.05174  1.0000
  O   O2        1.0  0.47028  0.60365  0.55172  1.0000
  O   O3        1.0  0.97029  0.10364  0.94828  1.0000
  O   O4        1.0  0.52970  0.39634  0.44828  1.0000
  O   O5        1.0  0.55688  0.98216  0.91221  1.0000
  O   O6        1.0  0.94314  0.51784  0.41221  1.0000
  O   O7        1.0  0.44311  0.01784  0.08780  1.0000
  O   O8        1.0  0.05690  0.48216  0.58779  1.0000
