data_image0
_chemical_formula_structural       Cd2H16C20S4N4O4
_chemical_formula_sum              "Cd2 H16 C20 S4 N4 O4"
_cell_length_a       3.80791
_cell_length_b       7.98466
_cell_length_c       18.6017
_cell_angle_alpha    90.0028
_cell_angle_beta     89.999
_cell_angle_gamma    92.6236

_space_group_name_H-M_alt    "P 1"
_space_group_IT_number       1

loop_
  _space_group_symop_operation_xyz
  'x, y, z'

loop_
  _atom_site_type_symbol
  _atom_site_label
  _atom_site_symmetry_multiplicity
  _atom_site_fract_x
  _atom_site_fract_y
  _atom_site_fract_z
  _atom_site_occupancy
  Cd  Cd1       1.0  0.00002  0.50004  0.50000  1.0000
  Cd  Cd2       1.0  0.50005  0.99998  0.00000  1.0000
  H   H1        1.0  0.77818  0.92785  0.44801  1.0000
  H   H2        1.0  0.72179  0.57217  0.94801  1.0000
  H   H3        1.0  0.22184  0.07220  0.55199  1.0000
  H   H4        1.0  0.27818  0.42780  0.05198  1.0000
  H   H5        1.0  0.50051  0.81119  0.33475  1.0000
  H   H6        1.0  0.99947  0.68878  0.83475  1.0000
  H   H7        1.0  0.49950  0.18885  0.66525  1.0000
  H   H8        1.0  0.00049  0.31117  0.16524  1.0000
  H   H9        1.0  0.27080  0.01745  0.24308  1.0000
  H   H10       1.0  0.22924  0.48256  0.74308  1.0000
  H   H11       1.0  0.72916  0.98261  0.75693  1.0000
  H   H12       1.0  0.77069  0.51740  0.25691  1.0000
  H   H13       1.0  0.29730  0.32017  0.27447  1.0000
  H   H14       1.0  0.20279  0.17981  0.77446  1.0000
  H   H15       1.0  0.70268  0.67986  0.72555  1.0000
  H   H16       1.0  0.79717  0.82015  0.22553  1.0000
  C   C1        1.0  0.66178  0.00581  0.40720  1.0000
  C   C2        1.0  0.83822  0.49418  0.90720  1.0000
  C   C3        1.0  0.33822  0.99423  0.59281  1.0000
  C   C4        1.0  0.16180  0.50577  0.09280  1.0000
  C   C5        1.0  0.51349  0.94607  0.34400  1.0000
  C   C6        1.0  0.98654  0.55391  0.84400  1.0000
  C   C7        1.0  0.48651  0.05397  0.65601  1.0000
  C   C8        1.0  0.01345  0.44604  0.15599  1.0000
  C   C9        1.0  0.38342  0.05904  0.29428  1.0000
  C   C10       1.0  0.11663  0.44093  0.79430  1.0000
  C   C11       1.0  0.61656  0.94100  0.70573  1.0000
  C   C12       1.0  0.88330  0.55902  0.20570  1.0000
  C   C13       1.0  0.39955  0.22822  0.31117  1.0000
  C   C14       1.0  0.10056  0.27174  0.81118  1.0000
  C   C15       1.0  0.60045  0.77181  0.68884  1.0000
  C   C16       1.0  0.89943  0.72819  0.18881  1.0000
  C   C17       1.0  0.54227  0.28895  0.37623  1.0000
  C   C18       1.0  0.95782  0.21107  0.87623  1.0000
  C   C19       1.0  0.45778  0.71109  0.62377  1.0000
  C   C20       1.0  0.04221  0.78889  0.12377  1.0000
  S   S1        1.0  0.54288  0.49968  0.39725  1.0000
  S   S2        1.0  0.95720  0.00031  0.89726  1.0000
  S   S3        1.0  0.45719  0.50036  0.60274  1.0000
  S   S4        1.0  0.04285  0.99965  0.10274  1.0000
  N   N1        1.0  0.67820  0.17287  0.42312  1.0000
  N   N2        1.0  0.82185  0.32712  0.92312  1.0000
  N   N3        1.0  0.32183  0.82718  0.57689  1.0000
  N   N4        1.0  0.17818  0.67283  0.07689  1.0000
  O   O1        1.0  0.82366  0.21800  0.48523  1.0000
  O   O2        1.0  0.67634  0.28201  0.98523  1.0000
  O   O3        1.0  0.17635  0.78206  0.51478  1.0000
  O   O4        1.0  0.32364  0.71795  0.01477  1.0000
