data_image0
_chemical_formula_structural       Cd2H16C20S4N4O4
_chemical_formula_sum              "Cd2 H16 C20 S4 N4 O4"
_cell_length_a       3.81398
_cell_length_b       10.011
_cell_length_c       14.3428
_cell_angle_alpha    101.452
_cell_angle_beta     89.9998
_cell_angle_gamma    89.9999

_space_group_name_H-M_alt    "P 1"
_space_group_IT_number       1

loop_
  _space_group_symop_operation_xyz
  'x, y, z'

loop_
  _atom_site_type_symbol
  _atom_site_label
  _atom_site_symmetry_multiplicity
  _atom_site_fract_x
  _atom_site_fract_y
  _atom_site_fract_z
  _atom_site_occupancy
  Cd  Cd1       1.0  0.99999  0.50000  1.00000  1.0000
  Cd  Cd2       1.0  0.50000  0.50000  0.50000  1.0000
  H   H1        1.0  0.74421  0.42845  0.25238  1.0000
  H   H2        1.0  0.24423  0.57155  0.24762  1.0000
  H   H3        1.0  0.25577  0.57155  0.74762  1.0000
  H   H4        1.0  0.75579  0.42845  0.75238  1.0000
  H   H5        1.0  0.81894  0.20815  0.30409  1.0000
  H   H6        1.0  0.31897  0.79185  0.19591  1.0000
  H   H7        1.0  0.18104  0.79185  0.69592  1.0000
  H   H8        1.0  0.68106  0.20815  0.80409  1.0000
  H   H9        1.0  0.56941  0.99410  0.19764  1.0000
  H   H10       1.0  0.06942  0.00590  0.30235  1.0000
  H   H11       1.0  0.43059  0.00590  0.80235  1.0000
  H   H12       1.0  0.93059  0.99410  0.69764  1.0000
  H   H13       1.0  0.24495  0.01702  0.05277  1.0000
  H   H14       1.0  0.74495  0.98298  0.44723  1.0000
  H   H15       1.0  0.75505  0.98298  0.94723  1.0000
  H   H16       1.0  0.25505  0.01702  0.55277  1.0000
  C   C1        1.0  0.64088  0.33391  0.21110  1.0000
  C   C2        1.0  0.14090  0.66609  0.28890  1.0000
  C   C3        1.0  0.35910  0.66610  0.78890  1.0000
  C   C4        1.0  0.85911  0.33391  0.71110  1.0000
  C   C5        1.0  0.67755  0.21067  0.23847  1.0000
  C   C6        1.0  0.17756  0.78933  0.26153  1.0000
  C   C7        1.0  0.32244  0.78933  0.76153  1.0000
  C   C8        1.0  0.82245  0.21067  0.73847  1.0000
  C   C9        1.0  0.53846  0.09407  0.17979  1.0000
  C   C10       1.0  0.03847  0.90593  0.32021  1.0000
  C   C11       1.0  0.46154  0.90593  0.82021  1.0000
  C   C12       1.0  0.96154  0.09407  0.67979  1.0000
  C   C13       1.0  0.36319  0.10629  0.09755  1.0000
  C   C14       1.0  0.86319  0.89371  0.40245  1.0000
  C   C15       1.0  0.63681  0.89371  0.90245  1.0000
  C   C16       1.0  0.13682  0.10629  0.59755  1.0000
  C   C17       1.0  0.33142  0.23250  0.06857  1.0000
  C   C18       1.0  0.83143  0.76750  0.43143  1.0000
  C   C19       1.0  0.66857  0.76750  0.93143  1.0000
  C   C20       1.0  0.16858  0.23250  0.56857  1.0000
  S   S1        1.0  0.13205  0.24679  0.96383  1.0000
  S   S2        1.0  0.63205  0.75322  0.53617  1.0000
  S   S3        1.0  0.86795  0.75322  0.03617  1.0000
  S   S4        1.0  0.36795  0.24679  0.46383  1.0000
  N   N1        1.0  0.47838  0.34431  0.12822  1.0000
  N   N2        1.0  0.97839  0.65569  0.37178  1.0000
  N   N3        1.0  0.52161  0.65570  0.87178  1.0000
  N   N4        1.0  0.02162  0.34430  0.62822  1.0000
  O   O1        1.0  0.47380  0.46806  0.10561  1.0000
  O   O2        1.0  0.97381  0.53194  0.39439  1.0000
  O   O3        1.0  0.52619  0.53195  0.89439  1.0000
  O   O4        1.0  0.02620  0.46806  0.60561  1.0000
