data_image0
_chemical_formula_structural       ZnH20C24N18O4
_chemical_formula_sum              "Zn1 H20 C24 N18 O4"
_cell_length_a       7.57312
_cell_length_b       7.35583
_cell_length_c       14.4453
_cell_angle_alpha    75.9604
_cell_angle_beta     78.668
_cell_angle_gamma    62.9619

_space_group_name_H-M_alt    "P 1"
_space_group_IT_number       1

loop_
  _space_group_symop_operation_xyz
  'x, y, z'

loop_
  _atom_site_type_symbol
  _atom_site_label
  _atom_site_symmetry_multiplicity
  _atom_site_fract_x
  _atom_site_fract_y
  _atom_site_fract_z
  _atom_site_occupancy
  Zn  Zn1       1.0  1.00000  1.00000  0.00000  1.0000
  H   H1        1.0  0.87165  0.39687  0.46382  1.0000
  H   H2        1.0  0.12834  0.60313  0.53618  1.0000
  H   H3        1.0  0.08774  0.16514  0.49356  1.0000
  H   H4        1.0  0.91227  0.83486  0.50645  1.0000
  H   H5        1.0  0.30159  0.68395  0.87091  1.0000
  H   H6        1.0  0.69841  0.31604  0.12909  1.0000
  H   H7        1.0  0.40021  0.66095  0.69529  1.0000
  H   H8        1.0  0.59980  0.33905  0.30471  1.0000
  H   H9        1.0  0.84467  0.26766  0.80067  1.0000
  H   H10       1.0  0.15534  0.73234  0.19933  1.0000
  H   H11       1.0  0.58796  0.62940  0.54892  1.0000
  H   H12       1.0  0.41203  0.37060  0.45108  1.0000
  H   H13       1.0  0.37187  0.86040  0.51849  1.0000
  H   H14       1.0  0.62813  0.13961  0.48151  1.0000
  H   H15       1.0  0.63448  0.78317  0.21241  1.0000
  H   H16       1.0  0.36551  0.21682  0.78759  1.0000
  H   H17       1.0  0.15776  0.35643  0.14532  1.0000
  H   H18       1.0  0.84225  0.64358  0.85468  1.0000
  H   H19       1.0  0.04892  0.36102  0.32065  1.0000
  H   H20       1.0  0.95109  0.63899  0.67935  1.0000
  C   C1        1.0  0.77474  0.71228  0.03948  1.0000
  C   C2        1.0  0.22527  0.28772  0.96053  1.0000
  C   C3        1.0  0.46006  0.73103  0.03789  1.0000
  C   C4        1.0  0.53993  0.26897  0.96212  1.0000
  C   C5        1.0  0.22305  0.81018  0.81528  1.0000
  C   C6        1.0  0.77695  0.18982  0.18472  1.0000
  C   C7        1.0  0.27545  0.79835  0.71789  1.0000
  C   C8        1.0  0.72455  0.20165  0.28210  1.0000
  C   C9        1.0  0.02113  0.11829  0.67971  1.0000
  C   C10       1.0  0.97887  0.88171  0.32030  1.0000
  C   C11       1.0  0.96949  0.13224  0.77699  1.0000
  C   C12       1.0  0.03050  0.86776  0.22301  1.0000
  C   C13       1.0  0.89517  0.29045  0.60743  1.0000
  C   C14       1.0  0.10484  0.70954  0.39257  1.0000
  C   C15       1.0  0.44440  0.91704  0.33339  1.0000
  C   C16       1.0  0.55560  0.08296  0.66661  1.0000
  C   C17       1.0  0.50270  0.91428  0.23541  1.0000
  C   C18       1.0  0.49730  0.08572  0.76459  1.0000
  C   C19       1.0  0.24135  0.22779  0.19930  1.0000
  C   C20       1.0  0.75865  0.77221  0.80070  1.0000
  C   C21       1.0  0.18116  0.23063  0.29708  1.0000
  C   C22       1.0  0.81885  0.76938  0.70292  1.0000
  C   C23       1.0  0.56879  0.74073  0.40499  1.0000
  C   C24       1.0  0.43120  0.25927  0.59501  1.0000
  N   N1        1.0  0.07174  0.97850  0.84434  1.0000
  N   N2        1.0  0.92826  0.02150  0.15566  1.0000
  N   N3        1.0  0.17650  0.95286  0.64978  1.0000
  N   N4        1.0  0.82350  0.04714  0.35022  1.0000
  N   N5        1.0  0.64111  0.64287  0.05890  1.0000
  N   N6        1.0  0.35889  0.35714  0.94111  1.0000
  N   N7        1.0  0.29262  0.78787  0.02530  1.0000
  N   N8        1.0  0.70738  0.21212  0.97470  1.0000
  N   N9        1.0  0.95682  0.28062  0.51518  1.0000
  N   N10       1.0  0.04318  0.71938  0.48482  1.0000
  N   N11       1.0  0.91153  0.75412  0.02794  1.0000
  N   N12       1.0  0.08847  0.24587  0.97206  1.0000
  N   N13       1.0  0.50334  0.74531  0.49734  1.0000
  N   N14       1.0  0.49665  0.25469  0.50266  1.0000
  N   N15       1.0  0.28149  0.07486  0.36455  1.0000
  N   N16       1.0  0.71852  0.92514  0.63545  1.0000
  N   N17       1.0  0.40153  0.06863  0.16791  1.0000
  N   N18       1.0  0.59847  0.93138  0.83209  1.0000
  O   O1        1.0  0.73711  0.43188  0.63715  1.0000
  O   O2        1.0  0.26289  0.56812  0.36285  1.0000
  O   O3        1.0  0.72797  0.60044  0.37525  1.0000
  O   O4        1.0  0.27202  0.39956  0.62475  1.0000
