data_image0
_chemical_formula_structural       Zn4H36C56N4O20
_chemical_formula_sum              "Zn4 H36 C56 N4 O20"
_cell_length_a       8.79009
_cell_length_b       10.1483
_cell_length_c       15.45
_cell_angle_alpha    90.0003
_cell_angle_beta     89.9996
_cell_angle_gamma    90.0001

_space_group_name_H-M_alt    "P 1"
_space_group_IT_number       1

loop_
  _space_group_symop_operation_xyz
  'x, y, z'

loop_
  _atom_site_type_symbol
  _atom_site_label
  _atom_site_symmetry_multiplicity
  _atom_site_fract_x
  _atom_site_fract_y
  _atom_site_fract_z
  _atom_site_occupancy
  Zn  Zn1       1.0  0.73053  0.36141  0.91012  1.0000
  Zn  Zn2       1.0  0.73053  0.63859  0.08988  1.0000
  Zn  Zn3       1.0  0.26947  0.13858  0.41012  1.0000
  Zn  Zn4       1.0  0.26947  0.86141  0.58988  1.0000
  H   H1        1.0  0.74507  0.87559  0.93210  1.0000
  H   H2        1.0  0.74507  0.12441  0.06790  1.0000
  H   H3        1.0  0.25493  0.62441  0.43210  1.0000
  H   H4        1.0  0.25493  0.37559  0.56790  1.0000
  H   H5        1.0  0.36653  0.08274  0.82222  1.0000
  H   H6        1.0  0.36653  0.91725  0.17778  1.0000
  H   H7        1.0  0.63347  0.41725  0.32223  1.0000
  H   H8        1.0  0.63348  0.58274  0.67777  1.0000
  H   H9        1.0  0.37305  0.65618  0.82024  1.0000
  H   H10       1.0  0.37306  0.34382  0.17976  1.0000
  H   H11       1.0  0.62694  0.84382  0.32024  1.0000
  H   H12       1.0  0.62694  0.15618  0.67976  1.0000
  H   H13       1.0  0.18995  0.05171  0.73560  1.0000
  H   H14       1.0  0.18995  0.94829  0.26440  1.0000
  H   H15       1.0  0.81005  0.44829  0.23560  1.0000
  H   H16       1.0  0.81005  0.55171  0.76439  1.0000
  H   H17       1.0  0.07283  0.99978  0.82435  1.0000
  H   H18       1.0  0.07282  0.00022  0.17566  1.0000
  H   H19       1.0  0.92718  0.50022  0.32435  1.0000
  H   H20       1.0  0.92718  0.49978  0.67565  1.0000
  H   H21       1.0  0.81738  0.97300  0.78498  1.0000
  H   H22       1.0  0.81738  0.02700  0.21503  1.0000
  H   H23       1.0  0.18262  0.52700  0.28498  1.0000
  H   H24       1.0  0.18261  0.47299  0.71502  1.0000
  H   H25       1.0  0.61850  0.89227  0.67827  1.0000
  H   H26       1.0  0.61850  0.10772  0.32174  1.0000
  H   H27       1.0  0.38150  0.60772  0.17827  1.0000
  H   H28       1.0  0.38150  0.39228  0.82173  1.0000
  H   H29       1.0  0.70593  0.80713  0.53485  1.0000
  H   H30       1.0  0.70593  0.19289  0.46515  1.0000
  H   H31       1.0  0.29407  0.69288  0.03485  1.0000
  H   H32       1.0  0.29407  0.30713  0.96515  1.0000
  H   H33       1.0  0.98728  0.80633  0.50244  1.0000
  H   H34       1.0  0.98727  0.19368  0.49756  1.0000
  H   H35       1.0  0.01273  0.69368  0.00244  1.0000
  H   H36       1.0  0.01273  0.30633  0.99756  1.0000
  C   C1        1.0  0.64511  0.62859  0.90699  1.0000
  C   C2        1.0  0.64511  0.37141  0.09301  1.0000
  C   C3        1.0  0.35489  0.87141  0.40699  1.0000
  C   C4        1.0  0.35489  0.12859  0.59301  1.0000
  C   C5        1.0  0.56549  0.75218  0.88103  1.0000
  C   C6        1.0  0.56549  0.24781  0.11897  1.0000
  C   C7        1.0  0.43451  0.74782  0.38103  1.0000
  C   C8        1.0  0.43451  0.25218  0.61897  1.0000
  C   C9        1.0  0.63504  0.87277  0.89997  1.0000
  C   C10       1.0  0.63504  0.12723  0.10003  1.0000
  C   C11       1.0  0.36495  0.62723  0.39997  1.0000
  C   C12       1.0  0.36496  0.37277  0.60003  1.0000
  C   C13       1.0  0.56371  0.99040  0.87712  1.0000
  C   C14       1.0  0.56371  0.00960  0.12288  1.0000
  C   C15       1.0  0.43629  0.50960  0.37712  1.0000
  C   C16       1.0  0.43629  0.49040  0.62288  1.0000
  C   C17       1.0  0.41996  0.98907  0.83791  1.0000
  C   C18       1.0  0.41996  0.01092  0.16209  1.0000
  C   C19       1.0  0.58004  0.51092  0.33791  1.0000
  C   C20       1.0  0.58004  0.48908  0.66209  1.0000
  C   C21       1.0  0.35297  0.86810  0.81714  1.0000
  C   C22       1.0  0.35297  0.13190  0.18286  1.0000
  C   C23       1.0  0.64703  0.63190  0.31714  1.0000
  C   C24       1.0  0.64703  0.36810  0.68285  1.0000
  C   C25       1.0  0.42578  0.74945  0.83786  1.0000
  C   C26       1.0  0.42578  0.25055  0.16214  1.0000
  C   C27       1.0  0.57421  0.75054  0.33787  1.0000
  C   C28       1.0  0.57422  0.24945  0.66213  1.0000
  C   C29       1.0  0.12304  0.96937  0.76221  1.0000
  C   C30       1.0  0.12304  0.03063  0.23779  1.0000
  C   C31       1.0  0.87696  0.53063  0.26221  1.0000
  C   C32       1.0  0.87696  0.46937  0.73779  1.0000
  C   C33       1.0  0.00128  0.92915  0.69933  1.0000
  C   C34       1.0  0.00128  0.07085  0.30067  1.0000
  C   C35       1.0  0.99872  0.57085  0.19933  1.0000
  C   C36       1.0  0.99872  0.42915  0.80067  1.0000
  C   C37       1.0  0.84807  0.93494  0.72143  1.0000
  C   C38       1.0  0.84807  0.06506  0.27857  1.0000
  C   C39       1.0  0.15193  0.56506  0.22144  1.0000
  C   C40       1.0  0.15193  0.43493  0.77856  1.0000
  C   C41       1.0  0.73921  0.89076  0.66241  1.0000
  C   C42       1.0  0.73920  0.10924  0.33759  1.0000
  C   C43       1.0  0.26079  0.60924  0.16241  1.0000
  C   C44       1.0  0.26079  0.39076  0.83759  1.0000
  C   C45       1.0  0.78758  0.84352  0.58220  1.0000
  C   C46       1.0  0.78757  0.15648  0.41780  1.0000
  C   C47       1.0  0.21243  0.65648  0.08220  1.0000
  C   C48       1.0  0.21242  0.34353  0.91780  1.0000
  C   C49       1.0  0.94262  0.84199  0.56392  1.0000
  C   C50       1.0  0.94262  0.15802  0.43608  1.0000
  C   C51       1.0  0.05738  0.65802  0.06392  1.0000
  C   C52       1.0  0.05739  0.34199  0.93608  1.0000
  C   C53       1.0  0.64868  0.11664  0.89054  1.0000
  C   C54       1.0  0.64869  0.88336  0.10946  1.0000
  C   C55       1.0  0.35132  0.38336  0.39054  1.0000
  C   C56       1.0  0.35132  0.61664  0.60946  1.0000
  N   N1        1.0  0.04734  0.88365  0.62146  1.0000
  N   N2        1.0  0.04734  0.11636  0.37855  1.0000
  N   N3        1.0  0.95266  0.61636  0.12146  1.0000
  N   N4        1.0  0.95266  0.38365  0.87854  1.0000
  O   O1        1.0  0.75750  0.63687  0.95912  1.0000
  O   O2        1.0  0.75750  0.36312  0.04088  1.0000
  O   O3        1.0  0.24250  0.86313  0.45912  1.0000
  O   O4        1.0  0.24250  0.13687  0.54088  1.0000
  O   O5        1.0  0.60087  0.51882  0.87483  1.0000
  O   O6        1.0  0.60087  0.48118  0.12517  1.0000
  O   O7        1.0  0.39913  0.98118  0.37484  1.0000
  O   O8        1.0  0.39913  0.01882  0.62516  1.0000
  O   O9        1.0  0.21766  0.85482  0.77351  1.0000
  O   O10       1.0  0.21766  0.14517  0.22649  1.0000
  O   O11       1.0  0.78234  0.64518  0.27352  1.0000
  O   O12       1.0  0.78234  0.35482  0.72648  1.0000
  O   O13       1.0  0.79034  0.11358  0.90138  1.0000
  O   O14       1.0  0.79034  0.88642  0.09862  1.0000
  O   O15       1.0  0.20965  0.38641  0.40138  1.0000
  O   O16       1.0  0.20967  0.61358  0.59862  1.0000
  O   O17       1.0  0.57139  0.22568  0.88836  1.0000
  O   O18       1.0  0.57139  0.77432  0.11163  1.0000
  O   O19       1.0  0.42861  0.27432  0.38837  1.0000
  O   O20       1.0  0.42862  0.72568  0.61163  1.0000
