data_image0
_chemical_formula_structural       H44Pb2C54N8O8
_chemical_formula_sum              "H44 Pb2 C54 N8 O8"
_cell_length_a       11.3992
_cell_length_b       11.4835
_cell_length_c       12.7328
_cell_angle_alpha    63.5561
_cell_angle_beta     66.4954
_cell_angle_gamma    61.1842

_space_group_name_H-M_alt    "P 1"
_space_group_IT_number       1

loop_
  _space_group_symop_operation_xyz
  'x, y, z'

loop_
  _atom_site_type_symbol
  _atom_site_label
  _atom_site_symmetry_multiplicity
  _atom_site_fract_x
  _atom_site_fract_y
  _atom_site_fract_z
  _atom_site_occupancy
  H   H1        1.0  0.50709  0.73494  0.95053  1.0000
  H   H2        1.0  0.49290  0.26507  0.04947  1.0000
  H   H3        1.0  0.33791  0.96522  0.98228  1.0000
  H   H4        1.0  0.66208  0.03479  0.01772  1.0000
  H   H5        1.0  0.08819  0.00474  0.06557  1.0000
  H   H6        1.0  0.91179  0.99527  0.93442  1.0000
  H   H7        1.0  0.00691  0.81842  0.10661  1.0000
  H   H8        1.0  0.99307  0.18159  0.89338  1.0000
  H   H9        1.0  0.64640  0.36205  0.48686  1.0000
  H   H10       1.0  0.35360  0.63794  0.51315  1.0000
  H   H11       1.0  0.50172  0.41212  0.68117  1.0000
  H   H12       1.0  0.49828  0.58788  0.31884  1.0000
  H   H13       1.0  0.57740  0.50429  0.77563  1.0000
  H   H14       1.0  0.42260  0.49572  0.22437  1.0000
  H   H15       1.0  0.79998  0.54311  0.67869  1.0000
  H   H16       1.0  0.20001  0.45690  0.32131  1.0000
  H   H17       1.0  0.35768  0.07743  0.06232  1.0000
  H   H18       1.0  0.64231  0.92256  0.93769  1.0000
  H   H19       1.0  0.55627  0.85901  0.12723  1.0000
  H   H20       1.0  0.44373  0.14098  0.87277  1.0000
  H   H21       1.0  0.38626  0.90068  0.48320  1.0000
  H   H22       1.0  0.61376  0.09932  0.51680  1.0000
  H   H23       1.0  0.19264  0.11571  0.40386  1.0000
  H   H24       1.0  0.80736  0.88429  0.59614  1.0000
  H   H25       1.0  0.65658  0.66866  0.30039  1.0000
  H   H26       1.0  0.34342  0.33133  0.69961  1.0000
  H   H27       1.0  0.59640  0.69254  0.44385  1.0000
  H   H28       1.0  0.40360  0.30746  0.55615  1.0000
  H   H29       1.0  0.83355  0.71142  0.31394  1.0000
  H   H30       1.0  0.16646  0.28858  0.68606  1.0000
  H   H31       1.0  0.74158  0.87178  0.21875  1.0000
  H   H32       1.0  0.25841  0.12822  0.78125  1.0000
  H   H33       1.0  0.72706  0.79703  0.48532  1.0000
  H   H34       1.0  0.27294  0.20298  0.51467  1.0000
  H   H35       1.0  0.59881  0.94514  0.41397  1.0000
  H   H36       1.0  0.40119  0.05486  0.58603  1.0000
  H   H37       1.0  0.64311  0.15276  0.26149  1.0000
  H   H38       1.0  0.35689  0.84724  0.73851  1.0000
  H   H39       1.0  0.78745  0.29408  0.18693  1.0000
  H   H40       1.0  0.21256  0.70593  0.81308  1.0000
  H   H41       1.0  0.10363  0.95167  0.33523  1.0000
  H   H42       1.0  0.89638  0.04833  0.66477  1.0000
  H   H43       1.0  0.97014  0.79757  0.42141  1.0000
  H   H44       1.0  0.02986  0.20242  0.57858  1.0000
  Pb  Pb1       1.0  0.07122  0.32847  0.14098  1.0000
  Pb  Pb2       1.0  0.92880  0.67151  0.85903  1.0000
  C   C1        1.0  0.15715  0.56333  0.08020  1.0000
  C   C2        1.0  0.84284  0.43668  0.91979  1.0000
  C   C3        1.0  0.20868  0.67465  0.05216  1.0000
  C   C4        1.0  0.79131  0.32535  0.94784  1.0000
  C   C5        1.0  0.35035  0.65121  0.01083  1.0000
  C   C6        1.0  0.64964  0.34880  0.98916  1.0000
  C   C7        1.0  0.39695  0.75578  0.98603  1.0000
  C   C8        1.0  0.60304  0.24423  0.01397  1.0000
  C   C9        1.0  0.30197  0.88300  0.00429  1.0000
  C   C10       1.0  0.69802  0.11701  0.99570  1.0000
  C   C11       1.0  0.16170  0.90604  0.04916  1.0000
  C   C12       1.0  0.83828  0.09397  0.95083  1.0000
  C   C13       1.0  0.11588  0.80235  0.07198  1.0000
  C   C14       1.0  0.88411  0.19766  0.92801  1.0000
  C   C15       1.0  0.88540  0.39552  0.35672  1.0000
  C   C16       1.0  0.11460  0.60448  0.64329  1.0000
  C   C17       1.0  0.80363  0.42227  0.47499  1.0000
  C   C18       1.0  0.19637  0.57773  0.52502  1.0000
  C   C19       1.0  0.67979  0.39949  0.53099  1.0000
  C   C20       1.0  0.32021  0.60051  0.46902  1.0000
  C   C21       1.0  0.59941  0.42748  0.63930  1.0000
  C   C22       1.0  0.40059  0.57252  0.36070  1.0000
  C   C23       1.0  0.64213  0.47954  0.69250  1.0000
  C   C24       1.0  0.35787  0.52047  0.30751  1.0000
  C   C25       1.0  0.76629  0.50068  0.63922  1.0000
  C   C26       1.0  0.23371  0.49932  0.36078  1.0000
  C   C27       1.0  0.84809  0.47139  0.53074  1.0000
  C   C28       1.0  0.15191  0.52862  0.46927  1.0000
  C   C29       1.0  0.36857  0.03494  0.15499  1.0000
  C   C30       1.0  0.63143  0.96505  0.84501  1.0000
  C   C31       1.0  0.47936  0.91488  0.19076  1.0000
  C   C32       1.0  0.52064  0.08511  0.80924  1.0000
  C   C33       1.0  0.49190  0.86504  0.30971  1.0000
  C   C34       1.0  0.50810  0.13496  0.69028  1.0000
  C   C35       1.0  0.38536  0.93724  0.38836  1.0000
  C   C36       1.0  0.61465  0.06275  0.61164  1.0000
  C   C37       1.0  0.27692  0.05645  0.34558  1.0000
  C   C38       1.0  0.72309  0.94354  0.65443  1.0000
  C   C39       1.0  0.61890  0.74617  0.34612  1.0000
  C   C40       1.0  0.38110  0.25383  0.65388  1.0000
  C   C41       1.0  0.73415  0.80000  0.31204  1.0000
  C   C42       1.0  0.26586  0.20000  0.68796  1.0000
  C   C43       1.0  0.70792  0.87546  0.39772  1.0000
  C   C44       1.0  0.29208  0.12454  0.60227  1.0000
  C   C45       1.0  0.79447  0.96211  0.34839  1.0000
  C   C46       1.0  0.20554  0.03789  0.65161  1.0000
  C   C47       1.0  0.74478  0.10372  0.28036  1.0000
  C   C48       1.0  0.25522  0.89629  0.71963  1.0000
  C   C49       1.0  0.82551  0.18285  0.23740  1.0000
  C   C50       1.0  0.17449  0.81716  0.76260  1.0000
  C   C51       1.0  0.00084  0.99291  0.32068  1.0000
  C   C52       1.0  0.99917  0.00708  0.67932  1.0000
  C   C53       1.0  0.92643  0.90647  0.36785  1.0000
  C   C54       1.0  0.07358  0.09353  0.63215  1.0000
  N   N1        1.0  0.44498  0.52619  0.98324  1.0000
  N   N2        1.0  0.55501  0.47382  0.01676  1.0000
  N   N3        1.0  0.96715  0.50607  0.46681  1.0000
  N   N4        1.0  0.03285  0.49394  0.53320  1.0000
  N   N5        1.0  0.26946  0.10605  0.22995  1.0000
  N   N6        1.0  0.73055  0.89395  0.77005  1.0000
  N   N7        1.0  0.95194  0.12909  0.25676  1.0000
  N   N8        1.0  0.04807  0.87091  0.74325  1.0000
  O   O1        1.0  0.23383  0.43542  0.12013  1.0000
  O   O2        1.0  0.76617  0.56458  0.87987  1.0000
  O   O3        1.0  0.03840  0.60251  0.06401  1.0000
  O   O4        1.0  0.96159  0.39749  0.93599  1.0000
  O   O5        1.0  0.01572  0.32546  0.34460  1.0000
  O   O6        1.0  0.98428  0.67454  0.65540  1.0000
  O   O7        1.0  0.82357  0.44090  0.27480  1.0000
  O   O8        1.0  0.17643  0.55909  0.72521  1.0000
