data_image0
_chemical_formula_structural       ZnH18PtC18N6O2
_chemical_formula_sum              "Zn1 H18 Pt1 C18 N6 O2"
_cell_length_a       8.14885
_cell_length_b       8.20994
_cell_length_c       9.02903
_cell_angle_alpha    105.777
_cell_angle_beta     115.21
_cell_angle_gamma    99.507

_space_group_name_H-M_alt    "P 1"
_space_group_IT_number       1

loop_
  _space_group_symop_operation_xyz
  'x, y, z'

loop_
  _atom_site_type_symbol
  _atom_site_label
  _atom_site_symmetry_multiplicity
  _atom_site_fract_x
  _atom_site_fract_y
  _atom_site_fract_z
  _atom_site_occupancy
  Zn  Zn1       1.0  1.00000  0.50000  0.50000  1.0000
  H   H1        1.0  0.67313  0.21967  0.39451  1.0000
  H   H2        1.0  0.32687  0.78033  0.60549  1.0000
  H   H3        1.0  0.75017  0.12549  0.62653  1.0000
  H   H4        1.0  0.24983  0.87452  0.37347  1.0000
  H   H5        1.0  0.88725  0.06716  0.52331  1.0000
  H   H6        1.0  0.11275  0.93284  0.47669  1.0000
  H   H7        1.0  0.38755  0.51266  0.54884  1.0000
  H   H8        1.0  0.61246  0.48734  0.45116  1.0000
  H   H9        1.0  0.02933  0.42014  0.83624  1.0000
  H   H10       1.0  0.97067  0.57986  0.16376  1.0000
  H   H11       1.0  0.06456  0.22152  0.86680  1.0000
  H   H12       1.0  0.93544  0.77849  0.13320  1.0000
  H   H13       1.0  0.67043  0.42368  0.70733  1.0000
  H   H14       1.0  0.32957  0.57632  0.29267  1.0000
  H   H15       1.0  0.36520  0.20017  0.93469  1.0000
  H   H16       1.0  0.63480  0.79983  0.06531  1.0000
  H   H17       1.0  0.65760  0.26103  0.90621  1.0000
  H   H18       1.0  0.34240  0.73897  0.09379  1.0000
  Pt  Pt1       1.0  0.00000  1.00000  0.00000  1.0000
  C   C1        1.0  0.28124  0.07459  0.15388  1.0000
  C   C2        1.0  0.71874  0.92540  0.84612  1.0000
  C   C3        1.0  0.01430  0.80060  0.82997  1.0000
  C   C4        1.0  0.98570  0.19939  0.17003  1.0000
  C   C5        1.0  0.86374  0.18087  0.60119  1.0000
  C   C6        1.0  0.13626  0.81913  0.39881  1.0000
  C   C7        1.0  0.38978  0.44455  0.63724  1.0000
  C   C8        1.0  0.61022  0.55544  0.36276  1.0000
  C   C9        1.0  0.22442  0.32837  0.76079  1.0000
  C   C10       1.0  0.77557  0.67163  0.23920  1.0000
  C   C11       1.0  0.04705  0.29282  0.77666  1.0000
  C   C12       1.0  0.95295  0.70718  0.22334  1.0000
  C   C13       1.0  0.54679  0.39409  0.72578  1.0000
  C   C14       1.0  0.45321  0.60591  0.27422  1.0000
  C   C15       1.0  0.37573  0.27042  0.85099  1.0000
  C   C16       1.0  0.62427  0.72958  0.14901  1.0000
  C   C17       1.0  0.53917  0.30473  0.83484  1.0000
  C   C18       1.0  0.46083  0.69527  0.16516  1.0000
  N   N1        1.0  0.44786  0.11692  0.24144  1.0000
  N   N2        1.0  0.55216  0.88308  0.75857  1.0000
  N   N3        1.0  0.02342  0.68217  0.73011  1.0000
  N   N4        1.0  0.97657  0.31783  0.26989  1.0000
  N   N5        1.0  0.23283  0.41495  0.65480  1.0000
  N   N6        1.0  0.76717  0.58505  0.34520  1.0000
  O   O1        1.0  0.80301  0.29089  0.50326  1.0000
  O   O2        1.0  0.19699  0.70911  0.49674  1.0000
