data_image0
_chemical_formula_structural       Cd2H36Pt2C36N12O4
_chemical_formula_sum              "Cd2 H36 Pt2 C36 N12 O4"
_cell_length_a       8.89826
_cell_length_b       10.4301
_cell_length_c       10.7064
_cell_angle_alpha    93.9773
_cell_angle_beta     89.9998
_cell_angle_gamma    89.9999

_space_group_name_H-M_alt    "P 1"
_space_group_IT_number       1

loop_
  _space_group_symop_operation_xyz
  'x, y, z'

loop_
  _atom_site_type_symbol
  _atom_site_label
  _atom_site_symmetry_multiplicity
  _atom_site_fract_x
  _atom_site_fract_y
  _atom_site_fract_z
  _atom_site_occupancy
  Cd  Cd1       1.0  0.00000  0.00000  0.00000  1.0000
  Cd  Cd2       1.0  0.50000  0.50000  0.50000  1.0000
  H   H1        1.0  0.93086  0.94210  0.25920  1.0000
  H   H2        1.0  0.43086  0.55790  0.24080  1.0000
  H   H3        1.0  0.06914  0.05790  0.74080  1.0000
  H   H4        1.0  0.56914  0.44209  0.75920  1.0000
  H   H5        1.0  0.16511  0.83687  0.27234  1.0000
  H   H6        1.0  0.66511  0.66312  0.22766  1.0000
  H   H7        1.0  0.83489  0.16312  0.72766  1.0000
  H   H8        1.0  0.33489  0.33687  0.77234  1.0000
  H   H9        1.0  0.15871  0.98252  0.37098  1.0000
  H   H10       1.0  0.65871  0.51747  0.12902  1.0000
  H   H11       1.0  0.84129  0.01747  0.62902  1.0000
  H   H12       1.0  0.34129  0.48252  0.87098  1.0000
  H   H13       1.0  0.20216  0.84230  0.80492  1.0000
  H   H14       1.0  0.70216  0.65770  0.69508  1.0000
  H   H15       1.0  0.79785  0.15770  0.19508  1.0000
  H   H16       1.0  0.29784  0.34230  0.30492  1.0000
  H   H17       1.0  0.26384  0.09486  0.18144  1.0000
  H   H18       1.0  0.76384  0.40514  0.31856  1.0000
  H   H19       1.0  0.73616  0.90514  0.81856  1.0000
  H   H20       1.0  0.23616  0.59486  0.68144  1.0000
  H   H21       1.0  0.38701  0.00233  0.26879  1.0000
  H   H22       1.0  0.88701  0.49766  0.23121  1.0000
  H   H23       1.0  0.61299  0.99766  0.73121  1.0000
  H   H24       1.0  0.11299  0.50234  0.76879  1.0000
  H   H25       1.0  0.44257  0.71923  0.78325  1.0000
  H   H26       1.0  0.94257  0.78076  0.71675  1.0000
  H   H27       1.0  0.55743  0.28077  0.21674  1.0000
  H   H28       1.0  0.05743  0.21923  0.28326  1.0000
  H   H29       1.0  0.54872  0.85932  0.16201  1.0000
  H   H30       1.0  0.04871  0.64068  0.33799  1.0000
  H   H31       1.0  0.45129  0.14068  0.83799  1.0000
  H   H32       1.0  0.95128  0.35932  0.66201  1.0000
  H   H33       1.0  0.62008  0.72710  0.96764  1.0000
  H   H34       1.0  0.12007  0.77290  0.53236  1.0000
  H   H35       1.0  0.37993  0.27290  0.03236  1.0000
  H   H36       1.0  0.87993  0.22710  0.46764  1.0000
  Pt  Pt1       1.0  1.00000  0.50000  1.00000  1.0000
  Pt  Pt2       1.0  0.50000  0.00000  0.50000  1.0000
  C   C1        1.0  0.82406  0.44095  0.89852  1.0000
  C   C2        1.0  0.32406  0.05905  0.60149  1.0000
  C   C3        1.0  0.17593  0.55905  0.10148  1.0000
  C   C4        1.0  0.67593  0.94095  0.39851  1.0000
  C   C5        1.0  0.94135  0.68030  0.98314  1.0000
  C   C6        1.0  0.44135  0.81969  0.51687  1.0000
  C   C7        1.0  0.05865  0.31969  0.01686  1.0000
  C   C8        1.0  0.55865  0.18031  0.48314  1.0000
  C   C9        1.0  0.15724  0.94241  0.27299  1.0000
  C   C10       1.0  0.65724  0.55758  0.22700  1.0000
  C   C11       1.0  0.84276  0.05758  0.72700  1.0000
  C   C12       1.0  0.34276  0.44242  0.77300  1.0000
  C   C13       1.0  0.28192  0.84241  0.88225  1.0000
  C   C14       1.0  0.78193  0.65759  0.61775  1.0000
  C   C15       1.0  0.71808  0.15760  0.11774  1.0000
  C   C16       1.0  0.21808  0.34240  0.38225  1.0000
  C   C17       1.0  0.33702  0.91822  0.08692  1.0000
  C   C18       1.0  0.83702  0.58178  0.41308  1.0000
  C   C19       1.0  0.66298  0.08178  0.91308  1.0000
  C   C20       1.0  0.16298  0.41822  0.58692  1.0000
  C   C21       1.0  0.29101  0.99617  0.20390  1.0000
  C   C22       1.0  0.79101  0.50383  0.29610  1.0000
  C   C23       1.0  0.70899  0.00382  0.79610  1.0000
  C   C24       1.0  0.20899  0.49617  0.70390  1.0000
  C   C25       1.0  0.41599  0.77437  0.87051  1.0000
  C   C26       1.0  0.91599  0.72563  0.62949  1.0000
  C   C27       1.0  0.58402  0.22563  0.12949  1.0000
  C   C28       1.0  0.08401  0.27437  0.37051  1.0000
  C   C29       1.0  0.47405  0.85218  0.08117  1.0000
  C   C30       1.0  0.97405  0.64782  0.41883  1.0000
  C   C31       1.0  0.52595  0.14782  0.91883  1.0000
  C   C32       1.0  0.02595  0.35218  0.58117  1.0000
  C   C33       1.0  0.51357  0.77888  0.97260  1.0000
  C   C34       1.0  0.01358  0.72111  0.52740  1.0000
  C   C35       1.0  0.48643  0.22112  0.02740  1.0000
  C   C36       1.0  0.98643  0.27888  0.47260  1.0000
  N   N1        1.0  0.72142  0.40729  0.83604  1.0000
  N   N2        1.0  0.22142  0.09271  0.66396  1.0000
  N   N3        1.0  0.27858  0.59271  0.16395  1.0000
  N   N4        1.0  0.77857  0.90729  0.33604  1.0000
  N   N5        1.0  0.90863  0.78787  0.97243  1.0000
  N   N6        1.0  0.40863  0.71214  0.52757  1.0000
  N   N7        1.0  0.09137  0.21214  0.02757  1.0000
  N   N8        1.0  0.59137  0.28787  0.47243  1.0000
  N   N9        1.0  0.24249  0.91234  0.98764  1.0000
  N   N10       1.0  0.74249  0.58766  0.51236  1.0000
  N   N11       1.0  0.75751  0.08766  0.01236  1.0000
  N   N12       1.0  0.25751  0.41234  0.48764  1.0000
  O   O1        1.0  0.01966  0.97940  0.21522  1.0000
  O   O2        1.0  0.51966  0.52060  0.28478  1.0000
  O   O3        1.0  0.98034  0.02060  0.78478  1.0000
  O   O4        1.0  0.48034  0.47940  0.71522  1.0000
