data_image0
_chemical_formula_structural       CuH18PtC18N6O2
_chemical_formula_sum              "Cu1 H18 Pt1 C18 N6 O2"
_cell_length_a       8.16291
_cell_length_b       8.31845
_cell_length_c       8.92898
_cell_angle_alpha    116.299
_cell_angle_beta     107.643
_cell_angle_gamma    95.8791

_space_group_name_H-M_alt    "P 1"
_space_group_IT_number       1

loop_
  _space_group_symop_operation_xyz
  'x, y, z'

loop_
  _atom_site_type_symbol
  _atom_site_label
  _atom_site_symmetry_multiplicity
  _atom_site_fract_x
  _atom_site_fract_y
  _atom_site_fract_z
  _atom_site_occupancy
  Cu  Cu1       1.0  0.50000  1.00000  0.50000  1.0000
  H   H1        1.0  0.20311  0.66771  0.39922  1.0000
  H   H2        1.0  0.79689  0.33229  0.60079  1.0000
  H   H3        1.0  0.13529  0.77007  0.65847  1.0000
  H   H4        1.0  0.86471  0.22993  0.34153  1.0000
  H   H5        1.0  0.05954  0.89495  0.54557  1.0000
  H   H6        1.0  0.94046  0.10505  0.45443  1.0000
  H   H7        1.0  0.24850  0.08282  0.89302  1.0000
  H   H8        1.0  0.75150  0.91718  0.10698  1.0000
  H   H9        1.0  0.43490  0.02523  0.83971  1.0000
  H   H10       1.0  0.56509  0.97477  0.16029  1.0000
  H   H11       1.0  0.20138  0.36352  0.93781  1.0000
  H   H12       1.0  0.79862  0.63648  0.06219  1.0000
  H   H13       1.0  0.24736  0.64005  0.89835  1.0000
  H   H14       1.0  0.75264  0.35996  0.10165  1.0000
  H   H15       1.0  0.40427  0.63869  0.69229  1.0000
  H   H16       1.0  0.59573  0.36131  0.30771  1.0000
  H   H17       1.0  0.50375  0.35744  0.53847  1.0000
  H   H18       1.0  0.49625  0.64256  0.46153  1.0000
  Pt  Pt1       1.0  0.00000  0.00000  1.00000  1.0000
  C   C1        1.0  0.07600  0.27572  0.15144  1.0000
  C   C2        1.0  0.92400  0.72428  0.84856  1.0000
  C   C3        1.0  0.20094  0.98410  0.17791  1.0000
  C   C4        1.0  0.79906  0.01590  0.82209  1.0000
  C   C5        1.0  0.18049  0.86874  0.61828  1.0000
  C   C6        1.0  0.81951  0.13126  0.38172  1.0000
  C   C7        1.0  0.30473  0.05001  0.78883  1.0000
  C   C8        1.0  0.69527  0.94999  0.21117  1.0000
  C   C9        1.0  0.33074  0.21561  0.76251  1.0000
  C   C10       1.0  0.66926  0.78438  0.23749  1.0000
  C   C11       1.0  0.26867  0.36745  0.85064  1.0000
  C   C12       1.0  0.73133  0.63256  0.14936  1.0000
  C   C13       1.0  0.29507  0.52220  0.82866  1.0000
  C   C14       1.0  0.70493  0.47780  0.17134  1.0000
  C   C15       1.0  0.38154  0.52219  0.71599  1.0000
  C   C16       1.0  0.61846  0.47782  0.28401  1.0000
  C   C17       1.0  0.43728  0.36646  0.62956  1.0000
  C   C18       1.0  0.56271  0.63353  0.37044  1.0000
  N   N1        1.0  0.11809  0.43886  0.23720  1.0000
  N   N2        1.0  0.88191  0.56115  0.76281  1.0000
  N   N3        1.0  0.32115  0.97628  0.28383  1.0000
  N   N4        1.0  0.67885  0.02372  0.71617  1.0000
  N   N5        1.0  0.41380  0.21778  0.65281  1.0000
  N   N6        1.0  0.58620  0.78222  0.34719  1.0000
  O   O1        1.0  0.27637  0.79342  0.50633  1.0000
  O   O2        1.0  0.72364  0.20658  0.49368  1.0000
