data_image0
_chemical_formula_structural       Cu4H36C20N4O20
_chemical_formula_sum              "Cu4 H36 C20 N4 O20"
_cell_length_a       6.94432
_cell_length_b       9.94984
_cell_length_c       11.3788
_cell_angle_alpha    90.001
_cell_angle_beta     90.0001
_cell_angle_gamma    90.0017

_space_group_name_H-M_alt    "P 1"
_space_group_IT_number       1

loop_
  _space_group_symop_operation_xyz
  'x, y, z'

loop_
  _atom_site_type_symbol
  _atom_site_label
  _atom_site_symmetry_multiplicity
  _atom_site_fract_x
  _atom_site_fract_y
  _atom_site_fract_z
  _atom_site_occupancy
  Cu  Cu1       1.0  0.61985  0.05044  0.98180  1.0000
  Cu  Cu2       1.0  0.88014  0.94957  0.48181  1.0000
  Cu  Cu3       1.0  0.11985  0.44959  0.01819  1.0000
  Cu  Cu4       1.0  0.38015  0.55041  0.51820  1.0000
  H   H1        1.0  0.71955  0.29316  0.22441  1.0000
  H   H2        1.0  0.78043  0.70684  0.72440  1.0000
  H   H3        1.0  0.21957  0.20686  0.77559  1.0000
  H   H4        1.0  0.28043  0.79314  0.27560  1.0000
  H   H5        1.0  0.77122  0.81208  0.04668  1.0000
  H   H6        1.0  0.72878  0.18794  0.54667  1.0000
  H   H7        1.0  0.27121  0.68796  0.95331  1.0000
  H   H8        1.0  0.22879  0.31204  0.45331  1.0000
  H   H9        1.0  0.59410  0.81353  0.94755  1.0000
  H   H10       1.0  0.90589  0.18647  0.44754  1.0000
  H   H11       1.0  0.09412  0.68650  0.05244  1.0000
  H   H12       1.0  0.40589  0.31351  0.55245  1.0000
  H   H13       1.0  0.73243  0.02962  0.20288  1.0000
  H   H14       1.0  0.76758  0.97037  0.70289  1.0000
  H   H15       1.0  0.23245  0.47039  0.79711  1.0000
  H   H16       1.0  0.26758  0.52959  0.29711  1.0000
  H   H17       1.0  0.85921  0.13435  0.11716  1.0000
  H   H18       1.0  0.64078  0.86567  0.61716  1.0000
  H   H19       1.0  0.35921  0.36568  0.88284  1.0000
  H   H20       1.0  0.14080  0.63431  0.38284  1.0000
  H   H21       1.0  0.53655  0.13624  0.35250  1.0000
  H   H22       1.0  0.96345  0.86375  0.85251  1.0000
  H   H23       1.0  0.03654  0.36376  0.64749  1.0000
  H   H24       1.0  0.46347  0.63624  0.14749  1.0000
  H   H25       1.0  0.41035  0.28327  0.31032  1.0000
  H   H26       1.0  0.08964  0.71671  0.81031  1.0000
  H   H27       1.0  0.91037  0.21671  0.68968  1.0000
  H   H28       1.0  0.58962  0.78328  0.18968  1.0000
  H   H29       1.0  0.33967  0.99911  0.21301  1.0000
  H   H30       1.0  0.16032  0.00087  0.71302  1.0000
  H   H31       1.0  0.83967  0.50087  0.78701  1.0000
  H   H32       1.0  0.66035  0.49913  0.28699  1.0000
  H   H33       1.0  0.23346  0.14756  0.15459  1.0000
  H   H34       1.0  0.26652  0.85244  0.65460  1.0000
  H   H35       1.0  0.73345  0.35240  0.84541  1.0000
  H   H36       1.0  0.76656  0.64761  0.34540  1.0000
  C   C1        1.0  0.51569  0.29344  0.08430  1.0000
  C   C2        1.0  0.98429  0.70657  0.58429  1.0000
  C   C3        1.0  0.01572  0.20659  0.91571  1.0000
  C   C4        1.0  0.48429  0.79341  0.41571  1.0000
  C   C5        1.0  0.61618  0.22181  0.18582  1.0000
  C   C6        1.0  0.88381  0.77819  0.68582  1.0000
  C   C7        1.0  0.11619  0.27820  0.81419  1.0000
  C   C8        1.0  0.38382  0.72180  0.31419  1.0000
  C   C9        1.0  0.46564  0.18668  0.27858  1.0000
  C   C10       1.0  0.03435  0.81331  0.77858  1.0000
  C   C11       1.0  0.96564  0.31332  0.72142  1.0000
  C   C12       1.0  0.53436  0.68668  0.22142  1.0000
  C   C13       1.0  0.29635  0.10221  0.23438  1.0000
  C   C14       1.0  0.20364  0.89778  0.73439  1.0000
  C   C15       1.0  0.79635  0.39777  0.76562  1.0000
  C   C16       1.0  0.70366  0.60224  0.26561  1.0000
  C   C17       1.0  0.13575  0.09920  0.32462  1.0000
  C   C18       1.0  0.36423  0.90080  0.82462  1.0000
  C   C19       1.0  0.63576  0.40079  0.67538  1.0000
  C   C20       1.0  0.86426  0.59922  0.17538  1.0000
  N   N1        1.0  0.72280  0.10375  0.14067  1.0000
  N   N2        1.0  0.77719  0.89625  0.64068  1.0000
  N   N3        1.0  0.22281  0.39627  0.85933  1.0000
  N   N4        1.0  0.27720  0.60372  0.35933  1.0000
  O   O1        1.0  0.70927  0.86344  0.98149  1.0000
  O   O2        1.0  0.79073  0.13656  0.48149  1.0000
  O   O3        1.0  0.20926  0.63659  0.01850  1.0000
  O   O4        1.0  0.29074  0.36341  0.51850  1.0000
  O   O5        1.0  0.51970  0.23576  0.98176  1.0000
  O   O6        1.0  0.98030  0.76425  0.48175  1.0000
  O   O7        1.0  0.01971  0.26428  0.01825  1.0000
  O   O8        1.0  0.48031  0.73573  0.51825  1.0000
  O   O9        1.0  0.42759  0.40050  0.10414  1.0000
  O   O10       1.0  0.07240  0.59950  0.60413  1.0000
  O   O11       1.0  0.92761  0.09950  0.89588  1.0000
  O   O12       1.0  0.57241  0.90051  0.39587  1.0000
  O   O13       1.0  0.04926  0.98729  0.34251  1.0000
  O   O14       1.0  0.45073  0.01270  0.84251  1.0000
  O   O15       1.0  0.54927  0.51269  0.65749  1.0000
  O   O16       1.0  0.95074  0.48733  0.15748  1.0000
  O   O17       1.0  0.09208  0.20930  0.37571  1.0000
  O   O18       1.0  0.40792  0.79070  0.87571  1.0000
  O   O19       1.0  0.59208  0.29068  0.62428  1.0000
  O   O20       1.0  0.90793  0.70934  0.12428  1.0000
