data_image0
_chemical_formula_structural       ZnH9C4S4N9O4
_chemical_formula_sum              "Zn1 H9 C4 S4 N9 O4"
_cell_length_a       7.669
_cell_length_b       7.7225
_cell_length_c       7.92943
_cell_angle_alpha    89.8378
_cell_angle_beta     62.0008
_cell_angle_gamma    65.6153

_space_group_name_H-M_alt    "P 1"
_space_group_IT_number       1

loop_
  _space_group_symop_operation_xyz
  'x, y, z'

loop_
  _atom_site_type_symbol
  _atom_site_label
  _atom_site_symmetry_multiplicity
  _atom_site_fract_x
  _atom_site_fract_y
  _atom_site_fract_z
  _atom_site_occupancy
  Zn  Zn1       1.0  0.84079  0.47036  0.77505  1.0000
  H   H1        1.0  0.63320  0.79050  0.04796  1.0000
  H   H2        1.0  0.48716  0.79394  0.94493  1.0000
  H   H3        1.0  0.48987  0.67129  0.11361  1.0000
  H   H4        1.0  0.13113  0.14670  0.41961  1.0000
  H   H5        1.0  0.12370  0.11574  0.20353  1.0000
  H   H6        1.0  0.16509  0.43138  0.42320  1.0000
  H   H7        1.0  0.11030  0.73030  0.20314  1.0000
  H   H8        1.0  0.03913  0.74499  0.02058  1.0000
  H   H9        1.0  0.95687  0.09276  0.81267  1.0000
  C   C1        1.0  0.82822  0.31794  0.43523  1.0000
  C   C2        1.0  0.44427  0.53121  0.54136  1.0000
  C   C3        1.0  0.77802  0.86904  0.30466  1.0000
  C   C4        1.0  0.42150  0.04572  0.59816  1.0000
  S   S1        1.0  0.67180  0.36476  0.32135  1.0000
  S   S2        1.0  0.17663  0.66007  0.56456  1.0000
  S   S3        1.0  0.69163  0.92997  0.55351  1.0000
  S   S4        1.0  0.18889  0.16311  0.84142  1.0000
  N   N1        1.0  0.59000  0.70442  0.99168  1.0000
  N   N2        1.0  0.70469  0.42803  0.62004  1.0000
  N   N3        1.0  0.48664  0.54785  0.67919  1.0000
  N   N4        1.0  0.04369  0.18959  0.34712  1.0000
  N   N5        1.0  0.08724  0.51201  0.56273  1.0000
  N   N6        1.0  0.60824  0.93651  0.27230  1.0000
  N   N7        1.0  0.40661  0.03602  0.44128  1.0000
  N   N8        1.0  0.99263  0.76350  0.16538  1.0000
  N   N9        1.0  0.97349  0.21487  0.83412  1.0000
  O   O1        1.0  0.22871  0.73544  0.38589  1.0000
  O   O2        1.0  0.03304  0.80017  0.75411  1.0000
  O   O3        1.0  0.18816  0.34091  0.90104  1.0000
  O   O4        1.0  0.23146  0.01242  0.95148  1.0000
