data_image0
_chemical_formula_structural       Er4H28C56N8O32
_chemical_formula_sum              "Er4 H28 C56 N8 O32"
_cell_length_a       8.34476
_cell_length_b       12.1532
_cell_length_c       13.3812
_cell_angle_alpha    102.078
_cell_angle_beta     90.0001
_cell_angle_gamma    90.0001

_space_group_name_H-M_alt    "P 1"
_space_group_IT_number       1

loop_
  _space_group_symop_operation_xyz
  'x, y, z'

loop_
  _atom_site_type_symbol
  _atom_site_label
  _atom_site_symmetry_multiplicity
  _atom_site_fract_x
  _atom_site_fract_y
  _atom_site_fract_z
  _atom_site_occupancy
  Er  Er1       1.0  0.27243  0.80208  0.68286  1.0000
  Er  Er2       1.0  0.77244  0.19793  0.81714  1.0000
  Er  Er3       1.0  0.72757  0.19791  0.31714  1.0000
  Er  Er4       1.0  0.22757  0.80208  0.18286  1.0000
  H   H1        1.0  0.80946  0.47715  0.62436  1.0000
  H   H2        1.0  0.30948  0.52286  0.87566  1.0000
  H   H3        1.0  0.19053  0.52285  0.37566  1.0000
  H   H4        1.0  0.69054  0.47715  0.12434  1.0000
  H   H5        1.0  0.98702  0.30712  0.58958  1.0000
  H   H6        1.0  0.48704  0.69288  0.91043  1.0000
  H   H7        1.0  0.01297  0.69288  0.41043  1.0000
  H   H8        1.0  0.51298  0.30712  0.08957  1.0000
  H   H9        1.0  0.28808  0.33596  0.59264  1.0000
  H   H10       1.0  0.78810  0.66403  0.90735  1.0000
  H   H11       1.0  0.71191  0.66403  0.40736  1.0000
  H   H12       1.0  0.21191  0.33596  0.09264  1.0000
  H   H13       1.0  0.59281  0.84487  0.33427  1.0000
  H   H14       1.0  0.09280  0.15512  0.16573  1.0000
  H   H15       1.0  0.40720  0.15513  0.66574  1.0000
  H   H16       1.0  0.90721  0.84489  0.83426  1.0000
  H   H17       1.0  0.84959  0.91856  0.42062  1.0000
  H   H18       1.0  0.34959  0.08143  0.07938  1.0000
  H   H19       1.0  0.15041  0.08144  0.57939  1.0000
  H   H20       1.0  0.65042  0.91857  0.92061  1.0000
  H   H21       1.0  0.85680  0.97390  0.61265  1.0000
  H   H22       1.0  0.35681  0.02611  0.88735  1.0000
  H   H23       1.0  0.14318  0.02611  0.38736  1.0000
  H   H24       1.0  0.64319  0.97388  0.11264  1.0000
  H   H25       1.0  0.59943  0.66049  0.66076  1.0000
  H   H26       1.0  0.09944  0.33951  0.83923  1.0000
  H   H27       1.0  0.40056  0.33951  0.33924  1.0000
  H   H28       1.0  0.90056  0.66050  0.16076  1.0000
  C   C1        1.0  0.00946  0.59230  0.64488  1.0000
  C   C2        1.0  0.50947  0.40771  0.85512  1.0000
  C   C3        1.0  0.99053  0.40770  0.35512  1.0000
  C   C4        1.0  0.49054  0.59230  0.14488  1.0000
  C   C5        1.0  0.93971  0.48538  0.62532  1.0000
  C   C6        1.0  0.43973  0.51463  0.87469  1.0000
  C   C7        1.0  0.06028  0.51462  0.37469  1.0000
  C   C8        1.0  0.56029  0.48538  0.12531  1.0000
  C   C9        1.0  0.03949  0.39101  0.60636  1.0000
  C   C10       1.0  0.53951  0.60899  0.89364  1.0000
  C   C11       1.0  0.96049  0.60898  0.39365  1.0000
  C   C12       1.0  0.46050  0.39101  0.10636  1.0000
  C   C13       1.0  0.20493  0.40637  0.60727  1.0000
  C   C14       1.0  0.70494  0.59363  0.89273  1.0000
  C   C15       1.0  0.79507  0.59362  0.39274  1.0000
  C   C16       1.0  0.29507  0.40638  0.10727  1.0000
  C   C17       1.0  0.26458  0.51594  0.62767  1.0000
  C   C18       1.0  0.76459  0.48406  0.87232  1.0000
  C   C19       1.0  0.73541  0.48405  0.37233  1.0000
  C   C20       1.0  0.23541  0.51594  0.12768  1.0000
  C   C21       1.0  0.91451  0.70074  0.66642  1.0000
  C   C22       1.0  0.41452  0.29926  0.83358  1.0000
  C   C23       1.0  0.08547  0.29925  0.33358  1.0000
  C   C24       1.0  0.58549  0.70074  0.16642  1.0000
  C   C25       1.0  0.44062  0.53714  0.62976  1.0000
  C   C26       1.0  0.94063  0.46286  0.87023  1.0000
  C   C27       1.0  0.55937  0.46286  0.37024  1.0000
  C   C28       1.0  0.05937  0.53714  0.12977  1.0000
  C   C29       1.0  0.47565  0.84120  0.47733  1.0000
  C   C30       1.0  0.97565  0.15880  0.02267  1.0000
  C   C31       1.0  0.52435  0.15880  0.52267  1.0000
  C   C32       1.0  0.02436  0.84120  0.97733  1.0000
  C   C33       1.0  0.60390  0.86208  0.41716  1.0000
  C   C34       1.0  0.10390  0.13791  0.08284  1.0000
  C   C35       1.0  0.39610  0.13791  0.58284  1.0000
  C   C36       1.0  0.89611  0.86210  0.91716  1.0000
  C   C37       1.0  0.74557  0.90585  0.46580  1.0000
  C   C38       1.0  0.24557  0.09414  0.03420  1.0000
  C   C39       1.0  0.25443  0.09414  0.53420  1.0000
  C   C40       1.0  0.75444  0.90586  0.96580  1.0000
  C   C41       1.0  0.75137  0.93529  0.57195  1.0000
  C   C42       1.0  0.25138  0.06472  0.92805  1.0000
  C   C43       1.0  0.24862  0.06472  0.42805  1.0000
  C   C44       1.0  0.74863  0.93528  0.07195  1.0000
  C   C45       1.0  0.61640  0.91353  0.62610  1.0000
  C   C46       1.0  0.11641  0.08648  0.87390  1.0000
  C   C47       1.0  0.38359  0.08647  0.37391  1.0000
  C   C48       1.0  0.88360  0.91352  0.12609  1.0000
  C   C49       1.0  0.31566  0.79216  0.43829  1.0000
  C   C50       1.0  0.81566  0.20785  0.06171  1.0000
  C   C51       1.0  0.68434  0.20784  0.56171  1.0000
  C   C52       1.0  0.18435  0.79216  0.93829  1.0000
  C   C53       1.0  0.60191  0.94339  0.74017  1.0000
  C   C54       1.0  0.10192  0.05661  0.75983  1.0000
  C   C55       1.0  0.39807  0.05661  0.25983  1.0000
  C   C56       1.0  0.89807  0.94338  0.24017  1.0000
  N   N1        1.0  0.16924  0.60688  0.64635  1.0000
  N   N2        1.0  0.66924  0.39312  0.85365  1.0000
  N   N3        1.0  0.83075  0.39311  0.35365  1.0000
  N   N4        1.0  0.33076  0.60688  0.14635  1.0000
  N   N5        1.0  0.48500  0.86404  0.57987  1.0000
  N   N6        1.0  0.98501  0.13597  0.92013  1.0000
  N   N7        1.0  0.51499  0.13596  0.42013  1.0000
  N   N8        1.0  0.01500  0.86404  0.07987  1.0000
  O   O1        1.0  0.99620  0.79091  0.67595  1.0000
  O   O2        1.0  0.49620  0.20909  0.82406  1.0000
  O   O3        1.0  0.00380  0.20908  0.32406  1.0000
  O   O4        1.0  0.50380  0.79091  0.17594  1.0000
  O   O5        1.0  0.76470  0.69810  0.67693  1.0000
  O   O6        1.0  0.26471  0.30191  0.82307  1.0000
  O   O7        1.0  0.23529  0.30190  0.32308  1.0000
  O   O8        1.0  0.73530  0.69811  0.17693  1.0000
  O   O9        1.0  0.47572  0.64800  0.65535  1.0000
  O   O10       1.0  0.97572  0.35200  0.84463  1.0000
  O   O11       1.0  0.52427  0.35200  0.34464  1.0000
  O   O12       1.0  0.02428  0.64800  0.15536  1.0000
  O   O13       1.0  0.54159  0.46266  0.61122  1.0000
  O   O14       1.0  0.04160  0.53733  0.88877  1.0000
  O   O15       1.0  0.45840  0.53734  0.38877  1.0000
  O   O16       1.0  0.95840  0.46266  0.11123  1.0000
  O   O17       1.0  0.22344  0.76727  0.50609  1.0000
  O   O18       1.0  0.72344  0.23274  0.99391  1.0000
  O   O19       1.0  0.77656  0.23273  0.49390  1.0000
  O   O20       1.0  0.27657  0.76727  0.00609  1.0000
  O   O21       1.0  0.28153  0.78006  0.34444  1.0000
  O   O22       1.0  0.78153  0.21994  0.15555  1.0000
  O   O23       1.0  0.71847  0.21995  0.65556  1.0000
  O   O24       1.0  0.21848  0.78006  0.84444  1.0000
  O   O25       1.0  0.49442  0.89236  0.77999  1.0000
  O   O26       1.0  0.99442  0.10765  0.72001  1.0000
  O   O27       1.0  0.50557  0.10764  0.22001  1.0000
  O   O28       1.0  0.00557  0.89235  0.27998  1.0000
  O   O29       1.0  0.69436  0.01876  0.78924  1.0000
  O   O30       1.0  0.19436  0.98126  0.71076  1.0000
  O   O31       1.0  0.30562  0.98126  0.21076  1.0000
  O   O32       1.0  0.80562  0.01874  0.28923  1.0000
