data_image0
_chemical_formula_structural       Tb4H28C56N8O32
_chemical_formula_sum              "Tb4 H28 C56 N8 O32"
_cell_length_a       8.36233
_cell_length_b       12.2293
_cell_length_c       13.4876
_cell_angle_alpha    102.08
_cell_angle_beta     90.0002
_cell_angle_gamma    89.9999

_space_group_name_H-M_alt    "P 1"
_space_group_IT_number       1

loop_
  _space_group_symop_operation_xyz
  'x, y, z'

loop_
  _atom_site_type_symbol
  _atom_site_label
  _atom_site_symmetry_multiplicity
  _atom_site_fract_x
  _atom_site_fract_y
  _atom_site_fract_z
  _atom_site_occupancy
  Tb  Tb1       1.0  0.22775  0.30100  0.68321  1.0000
  Tb  Tb2       1.0  0.72775  0.69900  0.81679  1.0000
  Tb  Tb3       1.0  0.77225  0.69901  0.31679  1.0000
  Tb  Tb4       1.0  0.27226  0.30100  0.18321  1.0000
  H   H1        1.0  0.21714  0.83483  0.59271  1.0000
  H   H2        1.0  0.71713  0.16516  0.90729  1.0000
  H   H3        1.0  0.78287  0.16517  0.40730  1.0000
  H   H4        1.0  0.28286  0.83483  0.09270  1.0000
  H   H5        1.0  0.51786  0.80750  0.58998  1.0000
  H   H6        1.0  0.01785  0.19250  0.91003  1.0000
  H   H7        1.0  0.48215  0.19250  0.41002  1.0000
  H   H8        1.0  0.98214  0.80750  0.08997  1.0000
  H   H9        1.0  0.69366  0.97687  0.62428  1.0000
  H   H10       1.0  0.19366  0.02312  0.87572  1.0000
  H   H11       1.0  0.30635  0.02313  0.37572  1.0000
  H   H12       1.0  0.80634  0.97688  0.12428  1.0000
  H   H13       1.0  0.90519  0.34605  0.33621  1.0000
  H   H14       1.0  0.40518  0.65395  0.16379  1.0000
  H   H15       1.0  0.09481  0.65395  0.66379  1.0000
  H   H16       1.0  0.59482  0.34605  0.83621  1.0000
  H   H17       1.0  0.65017  0.42195  0.42205  1.0000
  H   H18       1.0  0.15016  0.57805  0.07795  1.0000
  H   H19       1.0  0.34983  0.57805  0.57795  1.0000
  H   H20       1.0  0.84984  0.42194  0.92205  1.0000
  H   H21       1.0  0.64283  0.47502  0.61284  1.0000
  H   H22       1.0  0.14283  0.52498  0.88716  1.0000
  H   H23       1.0  0.35717  0.52498  0.38716  1.0000
  H   H24       1.0  0.85718  0.47502  0.11284  1.0000
  H   H25       1.0  0.90204  0.15584  0.65961  1.0000
  H   H26       1.0  0.40204  0.84415  0.84039  1.0000
  H   H27       1.0  0.09796  0.84416  0.34039  1.0000
  H   H28       1.0  0.59796  0.15584  0.15961  1.0000
  C   C1        1.0  0.23905  0.01381  0.62738  1.0000
  C   C2        1.0  0.73905  0.98619  0.87262  1.0000
  C   C3        1.0  0.76095  0.98619  0.37263  1.0000
  C   C4        1.0  0.26095  0.01381  0.12738  1.0000
  C   C5        1.0  0.29953  0.90517  0.60724  1.0000
  C   C6        1.0  0.79953  0.09482  0.89276  1.0000
  C   C7        1.0  0.70047  0.09483  0.39276  1.0000
  C   C8        1.0  0.20047  0.90517  0.10724  1.0000
  C   C9        1.0  0.46474  0.89058  0.60655  1.0000
  C   C10       1.0  0.96474  0.10942  0.89345  1.0000
  C   C11       1.0  0.53526  0.10942  0.39345  1.0000
  C   C12       1.0  0.03526  0.89058  0.10655  1.0000
  C   C13       1.0  0.56365  0.98469  0.62525  1.0000
  C   C14       1.0  0.06365  0.01531  0.87475  1.0000
  C   C15       1.0  0.43635  0.01531  0.37475  1.0000
  C   C16       1.0  0.93635  0.98469  0.12525  1.0000
  C   C17       1.0  0.49325  0.09068  0.64453  1.0000
  C   C18       1.0  0.99325  0.90931  0.85547  1.0000
  C   C19       1.0  0.50675  0.90932  0.35547  1.0000
  C   C20       1.0  0.00676  0.09069  0.14453  1.0000
  C   C21       1.0  0.06285  0.03382  0.62923  1.0000
  C   C22       1.0  0.56284  0.96618  0.87077  1.0000
  C   C23       1.0  0.93715  0.96618  0.37077  1.0000
  C   C24       1.0  0.43716  0.03381  0.12923  1.0000
  C   C25       1.0  0.58834  0.19852  0.66555  1.0000
  C   C26       1.0  0.08833  0.80148  0.83445  1.0000
  C   C27       1.0  0.41166  0.80148  0.33445  1.0000
  C   C28       1.0  0.91167  0.19852  0.16555  1.0000
  C   C29       1.0  0.02169  0.34128  0.47808  1.0000
  C   C30       1.0  0.52168  0.65872  0.02192  1.0000
  C   C31       1.0  0.97831  0.65872  0.52192  1.0000
  C   C32       1.0  0.47832  0.34128  0.97808  1.0000
  C   C33       1.0  0.89418  0.36327  0.41849  1.0000
  C   C34       1.0  0.39417  0.63673  0.08152  1.0000
  C   C35       1.0  0.10582  0.63673  0.58151  1.0000
  C   C36       1.0  0.60583  0.36326  0.91849  1.0000
  C   C37       1.0  0.75338  0.40787  0.46687  1.0000
  C   C38       1.0  0.25338  0.59213  0.03313  1.0000
  C   C39       1.0  0.24662  0.59213  0.53313  1.0000
  C   C40       1.0  0.74663  0.40787  0.96687  1.0000
  C   C41       1.0  0.74763  0.43616  0.57228  1.0000
  C   C42       1.0  0.24762  0.56384  0.92772  1.0000
  C   C43       1.0  0.25237  0.56383  0.42772  1.0000
  C   C44       1.0  0.75237  0.43616  0.07228  1.0000
  C   C45       1.0  0.88158  0.41294  0.62595  1.0000
  C   C46       1.0  0.38158  0.58706  0.87405  1.0000
  C   C47       1.0  0.11841  0.58706  0.37405  1.0000
  C   C48       1.0  0.61843  0.41295  0.12595  1.0000
  C   C49       1.0  0.18108  0.29198  0.43896  1.0000
  C   C50       1.0  0.68108  0.70803  0.06105  1.0000
  C   C51       1.0  0.81892  0.70803  0.56105  1.0000
  C   C52       1.0  0.31892  0.29197  0.93896  1.0000
  C   C53       1.0  0.89577  0.44187  0.73933  1.0000
  C   C54       1.0  0.39577  0.55813  0.76068  1.0000
  C   C55       1.0  0.10423  0.55813  0.26067  1.0000
  C   C56       1.0  0.60424  0.44187  0.23933  1.0000
  N   N1        1.0  0.33365  0.10448  0.64596  1.0000
  N   N2        1.0  0.83365  0.89551  0.85404  1.0000
  N   N3        1.0  0.66635  0.89552  0.35404  1.0000
  N   N4        1.0  0.16636  0.10448  0.14596  1.0000
  N   N5        1.0  0.01222  0.36341  0.57978  1.0000
  N   N6        1.0  0.51222  0.63659  0.92022  1.0000
  N   N7        1.0  0.98777  0.63659  0.42022  1.0000
  N   N8        1.0  0.48778  0.36341  0.07978  1.0000
  O   O1        1.0  0.50731  0.28836  0.67541  1.0000
  O   O2        1.0  0.00731  0.71163  0.82459  1.0000
  O   O3        1.0  0.49269  0.71164  0.32458  1.0000
  O   O4        1.0  0.99270  0.28837  0.17542  1.0000
  O   O5        1.0  0.73807  0.19566  0.67475  1.0000
  O   O6        1.0  0.23807  0.80433  0.82524  1.0000
  O   O7        1.0  0.26193  0.80434  0.32525  1.0000
  O   O8        1.0  0.76193  0.19567  0.17475  1.0000
  O   O9        1.0  0.02574  0.14363  0.65483  1.0000
  O   O10       1.0  0.52574  0.85636  0.84517  1.0000
  O   O11       1.0  0.97426  0.85637  0.34517  1.0000
  O   O12       1.0  0.47427  0.14363  0.15483  1.0000
  O   O13       1.0  0.96360  0.95883  0.61035  1.0000
  O   O14       1.0  0.46360  0.04116  0.88964  1.0000
  O   O15       1.0  0.03640  0.04116  0.38965  1.0000
  O   O16       1.0  0.53640  0.95883  0.11035  1.0000
  O   O17       1.0  0.27400  0.26676  0.50553  1.0000
  O   O18       1.0  0.77399  0.73324  0.99447  1.0000
  O   O19       1.0  0.72601  0.73325  0.49447  1.0000
  O   O20       1.0  0.22601  0.26675  0.00553  1.0000
  O   O21       1.0  0.21417  0.28014  0.34575  1.0000
  O   O22       1.0  0.71416  0.71986  0.15425  1.0000
  O   O23       1.0  0.78583  0.71986  0.65425  1.0000
  O   O24       1.0  0.28583  0.28014  0.84575  1.0000
  O   O25       1.0  0.00195  0.39060  0.77915  1.0000
  O   O26       1.0  0.50195  0.60940  0.72086  1.0000
  O   O27       1.0  0.99805  0.60941  0.22085  1.0000
  O   O28       1.0  0.49806  0.39060  0.27915  1.0000
  O   O29       1.0  0.80432  0.51732  0.78802  1.0000
  O   O30       1.0  0.30432  0.48268  0.71197  1.0000
  O   O31       1.0  0.19567  0.48268  0.21197  1.0000
  O   O32       1.0  0.69568  0.51732  0.28802  1.0000
