data_image0
_chemical_formula_structural       Gd4H28C56N8O32
_chemical_formula_sum              "Gd4 H28 C56 N8 O32"
_cell_length_a       8.35672
_cell_length_b       12.2717
_cell_length_c       13.5269
_cell_angle_alpha    102.064
_cell_angle_beta     90.0001
_cell_angle_gamma    89.9999

_space_group_name_H-M_alt    "P 1"
_space_group_IT_number       1

loop_
  _space_group_symop_operation_xyz
  'x, y, z'

loop_
  _atom_site_type_symbol
  _atom_site_label
  _atom_site_symmetry_multiplicity
  _atom_site_fract_x
  _atom_site_fract_y
  _atom_site_fract_z
  _atom_site_occupancy
  Gd  Gd1       1.0  0.22821  0.30037  0.68371  1.0000
  Gd  Gd2       1.0  0.72820  0.69963  0.81630  1.0000
  Gd  Gd3       1.0  0.77179  0.69963  0.31630  1.0000
  Gd  Gd4       1.0  0.27180  0.30037  0.18371  1.0000
  H   H1        1.0  0.64275  0.47668  0.61370  1.0000
  H   H2        1.0  0.14275  0.52332  0.88630  1.0000
  H   H3        1.0  0.35725  0.52331  0.38630  1.0000
  H   H4        1.0  0.85725  0.47669  0.11371  1.0000
  H   H5        1.0  0.65008  0.42443  0.42344  1.0000
  H   H6        1.0  0.15008  0.57557  0.07656  1.0000
  H   H7        1.0  0.34991  0.57557  0.57657  1.0000
  H   H8        1.0  0.84992  0.42443  0.92344  1.0000
  H   H9        1.0  0.90402  0.34668  0.33761  1.0000
  H   H10       1.0  0.40403  0.65332  0.16240  1.0000
  H   H11       1.0  0.09597  0.65332  0.66240  1.0000
  H   H12       1.0  0.59598  0.34668  0.83761  1.0000
  H   H13       1.0  0.90362  0.15495  0.65973  1.0000
  H   H14       1.0  0.40361  0.84504  0.84027  1.0000
  H   H15       1.0  0.09639  0.84505  0.34027  1.0000
  H   H16       1.0  0.59639  0.15495  0.15972  1.0000
  H   H17       1.0  0.69638  0.97679  0.62338  1.0000
  H   H18       1.0  0.19638  0.02320  0.87661  1.0000
  H   H19       1.0  0.30363  0.02321  0.37660  1.0000
  H   H20       1.0  0.80362  0.97680  0.12339  1.0000
  H   H21       1.0  0.21959  0.83499  0.59324  1.0000
  H   H22       1.0  0.71959  0.16500  0.90674  1.0000
  H   H23       1.0  0.78041  0.16501  0.40675  1.0000
  H   H24       1.0  0.28040  0.83500  0.09326  1.0000
  H   H25       1.0  0.52064  0.80808  0.58962  1.0000
  H   H26       1.0  0.02063  0.19191  0.91036  1.0000
  H   H27       1.0  0.47937  0.19192  0.41037  1.0000
  H   H28       1.0  0.97936  0.80809  0.08964  1.0000
  C   C1        1.0  0.17932  0.29161  0.43956  1.0000
  C   C2        1.0  0.67933  0.70839  0.06044  1.0000
  C   C3        1.0  0.82067  0.70839  0.56045  1.0000
  C   C4        1.0  0.32067  0.29161  0.93956  1.0000
  C   C5        1.0  0.02043  0.34137  0.47899  1.0000
  C   C6        1.0  0.52043  0.65862  0.02101  1.0000
  C   C7        1.0  0.97956  0.65863  0.52102  1.0000
  C   C8        1.0  0.47957  0.34138  0.97899  1.0000
  C   C9        1.0  0.88089  0.41323  0.62663  1.0000
  C   C10       1.0  0.38089  0.58676  0.87338  1.0000
  C   C11       1.0  0.11910  0.58677  0.37338  1.0000
  C   C12       1.0  0.61911  0.41324  0.12663  1.0000
  C   C13       1.0  0.74726  0.43739  0.57321  1.0000
  C   C14       1.0  0.24726  0.56260  0.92679  1.0000
  C   C15       1.0  0.25273  0.56260  0.42679  1.0000
  C   C16       1.0  0.75274  0.43740  0.07322  1.0000
  C   C17       1.0  0.75294  0.40948  0.46810  1.0000
  C   C18       1.0  0.25294  0.59051  0.03191  1.0000
  C   C19       1.0  0.24705  0.59051  0.53191  1.0000
  C   C20       1.0  0.74706  0.40949  0.96810  1.0000
  C   C21       1.0  0.89317  0.36404  0.41966  1.0000
  C   C22       1.0  0.39317  0.63595  0.08034  1.0000
  C   C23       1.0  0.10683  0.63595  0.58034  1.0000
  C   C24       1.0  0.60683  0.36405  0.91966  1.0000
  C   C25       1.0  0.89506  0.44178  0.73973  1.0000
  C   C26       1.0  0.39506  0.55822  0.76028  1.0000
  C   C27       1.0  0.10494  0.55822  0.26028  1.0000
  C   C28       1.0  0.60493  0.44178  0.23973  1.0000
  C   C29       1.0  0.06471  0.03332  0.63009  1.0000
  C   C30       1.0  0.56470  0.96668  0.86991  1.0000
  C   C31       1.0  0.93530  0.96668  0.36991  1.0000
  C   C32       1.0  0.43529  0.03333  0.13009  1.0000
  C   C33       1.0  0.59064  0.19794  0.66537  1.0000
  C   C34       1.0  0.09063  0.80206  0.83463  1.0000
  C   C35       1.0  0.40936  0.80206  0.33462  1.0000
  C   C36       1.0  0.90937  0.19795  0.16537  1.0000
  C   C37       1.0  0.56624  0.98469  0.62476  1.0000
  C   C38       1.0  0.06623  0.01531  0.87523  1.0000
  C   C39       1.0  0.43377  0.01531  0.37523  1.0000
  C   C40       1.0  0.93377  0.98470  0.12476  1.0000
  C   C41       1.0  0.30187  0.90525  0.60760  1.0000
  C   C42       1.0  0.80187  0.09475  0.89238  1.0000
  C   C43       1.0  0.69813  0.09475  0.39239  1.0000
  C   C44       1.0  0.19813  0.90525  0.10762  1.0000
  C   C45       1.0  0.49564  0.09029  0.64432  1.0000
  C   C46       1.0  0.99564  0.90970  0.85567  1.0000
  C   C47       1.0  0.50436  0.90971  0.35567  1.0000
  C   C48       1.0  0.00436  0.09030  0.14432  1.0000
  C   C49       1.0  0.24118  0.01349  0.62789  1.0000
  C   C50       1.0  0.74118  0.98651  0.87210  1.0000
  C   C51       1.0  0.75882  0.98651  0.37210  1.0000
  C   C52       1.0  0.25882  0.01349  0.12790  1.0000
  C   C53       1.0  0.46732  0.89087  0.60640  1.0000
  C   C54       1.0  0.96732  0.10913  0.89359  1.0000
  C   C55       1.0  0.53268  0.10913  0.39359  1.0000
  C   C56       1.0  0.03267  0.89088  0.10641  1.0000
  N   N1        1.0  0.01114  0.36335  0.58038  1.0000
  N   N2        1.0  0.51114  0.63665  0.91962  1.0000
  N   N3        1.0  0.98886  0.63665  0.41962  1.0000
  N   N4        1.0  0.48886  0.36335  0.08038  1.0000
  N   N5        1.0  0.33589  0.10386  0.64618  1.0000
  N   N6        1.0  0.83589  0.89614  0.85382  1.0000
  N   N7        1.0  0.66411  0.89614  0.35382  1.0000
  N   N8        1.0  0.16411  0.10387  0.14618  1.0000
  O   O1        1.0  0.21188  0.28000  0.34659  1.0000
  O   O2        1.0  0.71188  0.72000  0.15342  1.0000
  O   O3        1.0  0.78811  0.72001  0.65341  1.0000
  O   O4        1.0  0.28812  0.27999  0.84659  1.0000
  O   O5        1.0  0.27246  0.26583  0.50555  1.0000
  O   O6        1.0  0.77246  0.73416  0.99446  1.0000
  O   O7        1.0  0.72754  0.73417  0.49445  1.0000
  O   O8        1.0  0.22755  0.26583  0.00554  1.0000
  O   O9        1.0  0.80407  0.51733  0.78819  1.0000
  O   O10       1.0  0.30408  0.48266  0.71181  1.0000
  O   O11       1.0  0.19593  0.48267  0.21181  1.0000
  O   O12       1.0  0.69592  0.51734  0.28820  1.0000
  O   O13       1.0  0.00072  0.39031  0.77950  1.0000
  O   O14       1.0  0.50071  0.60969  0.72051  1.0000
  O   O15       1.0  0.99928  0.60969  0.22051  1.0000
  O   O16       1.0  0.49928  0.39031  0.27950  1.0000
  O   O17       1.0  0.02743  0.14271  0.65509  1.0000
  O   O18       1.0  0.52743  0.85728  0.84491  1.0000
  O   O19       1.0  0.97257  0.85729  0.34491  1.0000
  O   O20       1.0  0.47257  0.14272  0.15509  1.0000
  O   O21       1.0  0.96537  0.95855  0.61190  1.0000
  O   O22       1.0  0.46537  0.04144  0.88809  1.0000
  O   O23       1.0  0.03463  0.04144  0.38809  1.0000
  O   O24       1.0  0.53463  0.95855  0.11190  1.0000
  O   O25       1.0  0.50955  0.28742  0.67516  1.0000
  O   O26       1.0  0.00955  0.71258  0.82484  1.0000
  O   O27       1.0  0.49045  0.71258  0.32484  1.0000
  O   O28       1.0  0.99045  0.28743  0.17516  1.0000
  O   O29       1.0  0.74044  0.19517  0.67459  1.0000
  O   O30       1.0  0.24045  0.80482  0.82541  1.0000
  O   O31       1.0  0.25956  0.80483  0.32540  1.0000
  O   O32       1.0  0.75956  0.19518  0.17458  1.0000
