data_image0
_chemical_formula_structural       Pr4H28C56N8O32
_chemical_formula_sum              "Pr4 H28 C56 N8 O32"
_cell_length_a       8.39704
_cell_length_b       12.4168
_cell_length_c       13.797
_cell_angle_alpha    102.346
_cell_angle_beta     90
_cell_angle_gamma    90.0001

_space_group_name_H-M_alt    "P 1"
_space_group_IT_number       1

loop_
  _space_group_symop_operation_xyz
  'x, y, z'

loop_
  _atom_site_type_symbol
  _atom_site_label
  _atom_site_symmetry_multiplicity
  _atom_site_fract_x
  _atom_site_fract_y
  _atom_site_fract_z
  _atom_site_occupancy
  Pr  Pr1       1.0  0.22735  0.70382  0.31738  1.0000
  Pr  Pr2       1.0  0.72735  0.29618  0.18262  1.0000
  Pr  Pr3       1.0  0.77265  0.29618  0.68262  1.0000
  Pr  Pr4       1.0  0.27265  0.70381  0.81738  1.0000
  H   H1        1.0  0.69809  0.03141  0.37872  1.0000
  H   H2        1.0  0.19807  0.96860  0.12128  1.0000
  H   H3        1.0  0.30192  0.96860  0.62128  1.0000
  H   H4        1.0  0.80193  0.03140  0.87872  1.0000
  H   H5        1.0  0.52358  0.19799  0.41143  1.0000
  H   H6        1.0  0.02356  0.80202  0.08857  1.0000
  H   H7        1.0  0.47643  0.80201  0.58857  1.0000
  H   H8        1.0  0.97644  0.19798  0.91143  1.0000
  H   H9        1.0  0.22383  0.17152  0.40794  1.0000
  H   H10       1.0  0.72382  0.82849  0.09206  1.0000
  H   H11       1.0  0.77617  0.82848  0.59206  1.0000
  H   H12       1.0  0.27618  0.17151  0.90794  1.0000
  H   H13       1.0  0.89666  0.64926  0.65826  1.0000
  H   H14       1.0  0.39666  0.35072  0.84173  1.0000
  H   H15       1.0  0.10333  0.35074  0.34174  1.0000
  H   H16       1.0  0.60333  0.64927  0.15827  1.0000
  H   H17       1.0  0.64660  0.56876  0.57319  1.0000
  H   H18       1.0  0.14660  0.43123  0.92681  1.0000
  H   H19       1.0  0.35339  0.43124  0.42681  1.0000
  H   H20       1.0  0.85340  0.56877  0.07319  1.0000
  H   H21       1.0  0.63833  0.52176  0.38577  1.0000
  H   H22       1.0  0.13832  0.47824  0.11423  1.0000
  H   H23       1.0  0.36167  0.47824  0.61423  1.0000
  H   H24       1.0  0.86168  0.52176  0.88577  1.0000
  H   H25       1.0  0.90506  0.85803  0.34365  1.0000
  H   H26       1.0  0.40504  0.14197  0.15636  1.0000
  H   H27       1.0  0.09495  0.14197  0.65635  1.0000
  H   H28       1.0  0.59496  0.85802  0.84364  1.0000
  C   C1        1.0  0.49840  0.91881  0.35861  1.0000
  C   C2        1.0  0.99838  0.08120  0.14139  1.0000
  C   C3        1.0  0.50161  0.08119  0.64139  1.0000
  C   C4        1.0  0.00162  0.91880  0.85861  1.0000
  C   C5        1.0  0.56866  0.02335  0.37744  1.0000
  C   C6        1.0  0.06864  0.97666  0.12256  1.0000
  C   C7        1.0  0.43135  0.97665  0.62256  1.0000
  C   C8        1.0  0.93135  0.02334  0.87744  1.0000
  C   C9        1.0  0.47026  0.11619  0.39517  1.0000
  C   C10       1.0  0.97024  0.88382  0.10483  1.0000
  C   C11       1.0  0.52975  0.88382  0.60483  1.0000
  C   C12       1.0  0.02976  0.11618  0.89517  1.0000
  C   C13       1.0  0.30572  0.10211  0.39413  1.0000
  C   C14       1.0  0.80570  0.89790  0.10587  1.0000
  C   C15       1.0  0.69429  0.89790  0.60586  1.0000
  C   C16       1.0  0.19430  0.10210  0.89413  1.0000
  C   C17       1.0  0.24503  0.99509  0.37453  1.0000
  C   C18       1.0  0.74502  0.00492  0.12547  1.0000
  C   C19       1.0  0.75497  0.00492  0.62547  1.0000
  C   C20       1.0  0.25498  0.99508  0.87453  1.0000
  C   C21       1.0  0.59489  0.81271  0.33869  1.0000
  C   C22       1.0  0.09487  0.18730  0.16131  1.0000
  C   C23       1.0  0.40512  0.18730  0.66130  1.0000
  C   C24       1.0  0.90513  0.81270  0.83869  1.0000
  C   C25       1.0  0.06881  0.97685  0.37273  1.0000
  C   C26       1.0  0.56881  0.02317  0.12728  1.0000
  C   C27       1.0  0.93119  0.02316  0.62727  1.0000
  C   C28       1.0  0.43119  0.97683  0.87273  1.0000
  C   C29       1.0  0.01177  0.65760  0.52008  1.0000
  C   C30       1.0  0.51176  0.34240  0.97991  1.0000
  C   C31       1.0  0.98823  0.34241  0.47992  1.0000
  C   C32       1.0  0.48823  0.65759  0.02009  1.0000
  C   C33       1.0  0.88604  0.63247  0.57766  1.0000
  C   C34       1.0  0.38604  0.36752  0.92234  1.0000
  C   C35       1.0  0.11395  0.36754  0.42234  1.0000
  C   C36       1.0  0.61396  0.63247  0.07766  1.0000
  C   C37       1.0  0.74762  0.58606  0.52944  1.0000
  C   C38       1.0  0.24761  0.41393  0.97056  1.0000
  C   C39       1.0  0.25238  0.41394  0.47056  1.0000
  C   C40       1.0  0.75238  0.58607  0.02944  1.0000
  C   C41       1.0  0.74169  0.56109  0.42612  1.0000
  C   C42       1.0  0.24169  0.43891  0.07388  1.0000
  C   C43       1.0  0.25831  0.43891  0.57388  1.0000
  C   C44       1.0  0.75831  0.56109  0.92612  1.0000
  C   C45       1.0  0.87335  0.58822  0.37426  1.0000
  C   C46       1.0  0.37334  0.41178  0.12574  1.0000
  C   C47       1.0  0.12665  0.41177  0.62574  1.0000
  C   C48       1.0  0.62666  0.58822  0.87426  1.0000
  C   C49       1.0  0.16907  0.70727  0.56063  1.0000
  C   C50       1.0  0.66907  0.29273  0.93938  1.0000
  C   C51       1.0  0.83092  0.29273  0.43937  1.0000
  C   C52       1.0  0.33092  0.70727  0.06062  1.0000
  C   C53       1.0  0.88678  0.56179  0.26278  1.0000
  C   C54       1.0  0.38678  0.43821  0.23722  1.0000
  C   C55       1.0  0.11322  0.43821  0.73722  1.0000
  C   C56       1.0  0.61322  0.56179  0.76278  1.0000
  N   N1        1.0  0.33925  0.90559  0.35692  1.0000
  N   N2        1.0  0.83924  0.09442  0.14308  1.0000
  N   N3        1.0  0.66075  0.09441  0.64308  1.0000
  N   N4        1.0  0.16076  0.90558  0.85692  1.0000
  N   N5        1.0  0.00227  0.63782  0.42063  1.0000
  N   N6        1.0  0.50226  0.36218  0.07937  1.0000
  N   N7        1.0  0.99773  0.36218  0.57938  1.0000
  N   N8        1.0  0.49773  0.63781  0.92063  1.0000
  O   O1        1.0  0.51674  0.72332  0.33024  1.0000
  O   O2        1.0  0.01673  0.27668  0.16975  1.0000
  O   O3        1.0  0.48326  0.27668  0.66975  1.0000
  O   O4        1.0  0.98327  0.72331  0.83025  1.0000
  O   O5        1.0  0.74386  0.81735  0.32977  1.0000
  O   O6        1.0  0.24385  0.18266  0.17024  1.0000
  O   O7        1.0  0.25615  0.18265  0.67023  1.0000
  O   O8        1.0  0.75615  0.81734  0.82976  1.0000
  O   O9        1.0  0.97178  0.05192  0.39188  1.0000
  O   O10       1.0  0.47177  0.94809  0.10813  1.0000
  O   O11       1.0  0.02823  0.94808  0.60812  1.0000
  O   O12       1.0  0.52823  0.05191  0.89188  1.0000
  O   O13       1.0  0.26454  0.73346  0.49788  1.0000
  O   O14       1.0  0.76454  0.26654  0.00212  1.0000
  O   O15       1.0  0.73545  0.26654  0.50212  1.0000
  O   O16       1.0  0.23546  0.73346  0.99788  1.0000
  O   O17       1.0  0.19827  0.71807  0.65210  1.0000
  O   O18       1.0  0.69827  0.28193  0.84789  1.0000
  O   O19       1.0  0.80172  0.28193  0.34790  1.0000
  O   O20       1.0  0.30172  0.71807  0.15211  1.0000
  O   O21       1.0  0.98922  0.61449  0.22374  1.0000
  O   O22       1.0  0.48921  0.38552  0.27626  1.0000
  O   O23       1.0  0.01078  0.38552  0.77626  1.0000
  O   O24       1.0  0.51079  0.61448  0.72374  1.0000
  O   O25       1.0  0.79833  0.48573  0.21482  1.0000
  O   O26       1.0  0.29832  0.51427  0.28518  1.0000
  O   O27       1.0  0.20167  0.51427  0.78518  1.0000
  O   O28       1.0  0.70168  0.48573  0.71482  1.0000
  O   O29       1.0  0.02875  0.86923  0.34731  1.0000
  O   O30       1.0  0.52873  0.13079  0.15269  1.0000
  O   O31       1.0  0.97126  0.13077  0.65268  1.0000
  O   O32       1.0  0.47127  0.86921  0.84731  1.0000
