data_image0
_chemical_formula_structural       Zn4H32C48N12Cl4O4
_chemical_formula_sum              "Zn4 H32 C48 N12 Cl4 O4"
_cell_length_a       7.25628
_cell_length_b       10.9685
_cell_length_c       15.7962
_cell_angle_alpha    85.6527
_cell_angle_beta     76.7089
_cell_angle_gamma    70.7158

_space_group_name_H-M_alt    "P 1"
_space_group_IT_number       1

loop_
  _space_group_symop_operation_xyz
  'x, y, z'

loop_
  _atom_site_type_symbol
  _atom_site_label
  _atom_site_symmetry_multiplicity
  _atom_site_fract_x
  _atom_site_fract_y
  _atom_site_fract_z
  _atom_site_occupancy
  Zn  Zn1       1.0  0.32144  0.66704  0.89302  1.0000
  Zn  Zn2       1.0  0.88111  0.33298  0.10698  1.0000
  Zn  Zn3       1.0  0.96469  0.16713  0.60691  1.0000
  Zn  Zn4       1.0  0.73848  0.83285  0.39303  1.0000
  H   H1        1.0  0.27289  0.88276  0.03807  1.0000
  H   H2        1.0  0.19274  0.11734  0.96204  1.0000
  H   H3        1.0  0.06168  0.38268  0.46188  1.0000
  H   H4        1.0  0.90475  0.61745  0.53810  1.0000
  H   H5        1.0  0.25175  0.94977  0.18700  1.0000
  H   H6        1.0  0.38793  0.05019  0.81318  1.0000
  H   H7        1.0  0.19035  0.44963  0.31306  1.0000
  H   H8        1.0  0.95101  0.55049  0.68692  1.0000
  H   H9        1.0  0.82277  0.53105  0.83537  1.0000
  H   H10       1.0  0.18842  0.46887  0.16497  1.0000
  H   H11       1.0  0.40756  0.03083  0.66469  1.0000
  H   H12       1.0  0.10321  0.96918  0.33517  1.0000
  H   H13       1.0  0.62031  0.24424  0.99660  1.0000
  H   H14       1.0  0.86219  0.75562  0.00333  1.0000
  H   H15       1.0  0.36756  0.74398  0.50309  1.0000
  H   H16       1.0  0.61540  0.25594  0.49697  1.0000
  H   H17       1.0  0.42034  0.79483  0.29124  1.0000
  H   H18       1.0  0.50629  0.20500  0.70891  1.0000
  H   H19       1.0  0.46286  0.29461  0.20874  1.0000
  H   H20       1.0  0.96478  0.70539  0.79122  1.0000
  H   H21       1.0  0.61384  0.56712  0.24832  1.0000
  H   H22       1.0  0.42932  0.43282  0.75167  1.0000
  H   H23       1.0  0.61261  0.06671  0.25155  1.0000
  H   H24       1.0  0.93088  0.93312  0.74833  1.0000
  H   H25       1.0  0.00112  0.35905  0.72053  1.0000
  H   H26       1.0  0.07963  0.64097  0.27975  1.0000
  H   H27       1.0  0.47058  0.85883  0.77948  1.0000
  H   H28       1.0  0.10886  0.14116  0.22029  1.0000
  H   H29       1.0  0.79834  0.08711  0.87332  1.0000
  H   H30       1.0  0.75958  0.91292  0.12653  1.0000
  H   H31       1.0  0.42186  0.58681  0.62635  1.0000
  H   H32       1.0  0.63575  0.41315  0.37370  1.0000
  C   C1        1.0  0.70555  0.40223  0.92580  1.0000
  C   C2        1.0  0.03393  0.59771  0.07429  1.0000
  C   C3        1.0  0.38141  0.90201  0.57406  1.0000
  C   C4        1.0  0.85784  0.09794  0.42584  1.0000
  C   C5        1.0  0.34830  0.81469  0.08291  1.0000
  C   C6        1.0  0.24499  0.18540  0.91715  1.0000
  C   C7        1.0  0.18195  0.31453  0.41705  1.0000
  C   C8        1.0  0.91202  0.68560  0.58295  1.0000
  C   C9        1.0  0.33697  0.85074  0.16698  1.0000
  C   C10       1.0  0.35406  0.14926  0.83313  1.0000
  C   C11       1.0  0.25516  0.35054  0.33302  1.0000
  C   C12       1.0  0.93706  0.64958  0.66697  1.0000
  C   C13       1.0  0.45794  0.68631  0.05897  1.0000
  C   C14       1.0  0.20268  0.31378  0.94105  1.0000
  C   C15       1.0  0.26732  0.18611  0.44094  1.0000
  C   C16       1.0  0.89347  0.81399  0.55903  1.0000
  C   C17       1.0  0.81183  0.43446  0.84639  1.0000
  C   C18       1.0  0.09237  0.56549  0.15380  1.0000
  C   C19       1.0  0.40784  0.93422  0.65356  1.0000
  C   C20       1.0  0.99585  0.06577  0.34631  1.0000
  C   C21       1.0  0.69986  0.27535  0.93649  1.0000
  C   C22       1.0  0.91238  0.72460  0.06350  1.0000
  C   C23       1.0  0.38671  0.77509  0.56326  1.0000
  C   C24       1.0  0.72551  0.22483  0.43672  1.0000
  C   C25       1.0  0.43001  0.76247  0.22625  1.0000
  C   C26       1.0  0.41834  0.23749  0.77384  1.0000
  C   C27       1.0  0.40728  0.26222  0.27369  1.0000
  C   C28       1.0  0.94196  0.73781  0.72627  1.0000
  C   C29       1.0  0.53727  0.63424  0.20347  1.0000
  C   C30       1.0  0.37467  0.36578  0.79652  1.0000
  C   C31       1.0  0.49127  0.13391  0.29639  1.0000
  C   C32       1.0  0.92111  0.86605  0.70352  1.0000
  C   C33       1.0  0.54953  0.59665  0.11904  1.0000
  C   C34       1.0  0.26501  0.40340  0.88095  1.0000
  C   C35       1.0  0.41890  0.09640  0.38083  1.0000
  C   C36       1.0  0.89577  0.90360  0.61910  1.0000
  C   C37       1.0  0.61354  0.49945  0.99500  1.0000
  C   C38       1.0  0.10827  0.50052  0.00506  1.0000
  C   C39       1.0  0.35872  0.99925  0.50487  1.0000
  C   C40       1.0  0.86302  0.00072  0.49502  1.0000
  C   C41       1.0  0.90956  0.34264  0.78197  1.0000
  C   C42       1.0  0.03369  0.65738  0.21819  1.0000
  C   C43       1.0  0.44086  0.84240  0.71796  1.0000
  C   C44       1.0  0.00143  0.15761  0.28189  1.0000
  C   C45       1.0  0.79563  0.18687  0.86978  1.0000
  C   C46       1.0  0.85282  0.81316  0.13016  1.0000
  C   C47       1.0  0.41551  0.68659  0.62996  1.0000
  C   C48       1.0  0.73253  0.31335  0.37003  1.0000
  N   N1        1.0  0.50077  0.62213  0.98065  1.0000
  N   N2        1.0  0.10336  0.37791  0.01939  1.0000
  N   N3        1.0  0.23170  0.12197  0.51924  1.0000
  N   N4        1.0  0.87242  0.87810  0.48072  1.0000
  N   N5        1.0  0.64627  0.47836  0.07685  1.0000
  N   N6        1.0  0.20167  0.52164  0.92319  1.0000
  N   N7        1.0  0.47325  0.97810  0.42300  1.0000
  N   N8        1.0  0.87465  0.02184  0.57687  1.0000
  N   N9        1.0  0.89885  0.22120  0.79373  1.0000
  N   N10       1.0  0.91383  0.77887  0.20629  1.0000
  N   N11       1.0  0.44219  0.72093  0.70611  1.0000
  N   N12       1.0  0.86952  0.27905  0.29382  1.0000
  Cl  Cl1       1.0  0.11913  0.87089  0.89729  1.0000
  Cl  Cl2       1.0  0.88688  0.12908  0.10266  1.0000
  Cl  Cl3       1.0  0.76703  0.37109  0.60277  1.0000
  Cl  Cl4       1.0  0.74018  0.62892  0.39731  1.0000
  O   O1        1.0  0.99432  0.13225  0.73203  1.0000
  O   O2        1.0  0.85858  0.86786  0.26798  1.0000
  O   O3        1.0  0.47569  0.63199  0.76782  1.0000
  O   O4        1.0  0.87567  0.36800  0.23210  1.0000
