data_image0
_chemical_formula_structural       Cu4H32C48N12O4
_chemical_formula_sum              "Cu4 H32 C48 N12 O4"
_cell_length_a       4.75757
_cell_length_b       11.3927
_cell_length_c       18.2386
_cell_angle_alpha    90.0005
_cell_angle_beta     91.221
_cell_angle_gamma    90.0024

_space_group_name_H-M_alt    "P 1"
_space_group_IT_number       1

loop_
  _space_group_symop_operation_xyz
  'x, y, z'

loop_
  _atom_site_type_symbol
  _atom_site_label
  _atom_site_symmetry_multiplicity
  _atom_site_fract_x
  _atom_site_fract_y
  _atom_site_fract_z
  _atom_site_occupancy
  Cu  Cu1       1.0  0.19947  0.33825  0.75162  1.0000
  Cu  Cu2       1.0  0.30049  0.83825  0.74839  1.0000
  Cu  Cu3       1.0  0.80053  0.66175  0.24838  1.0000
  Cu  Cu4       1.0  0.69952  0.16175  0.25161  1.0000
  H   H1        1.0  0.67349  0.34518  0.64027  1.0000
  H   H2        1.0  0.82647  0.84516  0.85972  1.0000
  H   H3        1.0  0.32652  0.65483  0.35972  1.0000
  H   H4        1.0  0.17354  0.15484  0.14028  1.0000
  H   H5        1.0  0.68050  0.28312  0.86180  1.0000
  H   H6        1.0  0.81944  0.78315  0.63821  1.0000
  H   H7        1.0  0.31950  0.71688  0.13820  1.0000
  H   H8        1.0  0.18058  0.21686  0.36179  1.0000
  H   H9        1.0  0.38344  0.74447  0.88074  1.0000
  H   H10       1.0  0.11656  0.24449  0.61926  1.0000
  H   H11       1.0  0.61654  0.25552  0.11926  1.0000
  H   H12       1.0  0.88345  0.75551  0.38074  1.0000
  H   H13       1.0  0.83199  0.46091  0.81483  1.0000
  H   H14       1.0  0.66795  0.96094  0.68519  1.0000
  H   H15       1.0  0.16801  0.53907  0.18517  1.0000
  H   H16       1.0  0.33206  0.03906  0.31481  1.0000
  H   H17       1.0  0.02118  0.43859  0.55702  1.0000
  H   H18       1.0  0.47876  0.93854  0.94297  1.0000
  H   H19       1.0  0.97884  0.56143  0.44298  1.0000
  H   H20       1.0  0.52123  0.06146  0.05702  1.0000
  H   H21       1.0  0.40803  0.15485  0.94246  1.0000
  H   H22       1.0  0.09192  0.65490  0.55754  1.0000
  H   H23       1.0  0.59196  0.84515  0.05753  1.0000
  H   H24       1.0  0.90811  0.34511  0.44246  1.0000
  H   H25       1.0  0.11985  0.75652  0.99841  1.0000
  H   H26       1.0  0.38018  0.25652  0.50159  1.0000
  H   H27       1.0  0.88013  0.24347  0.00159  1.0000
  H   H28       1.0  0.61984  0.74349  0.49840  1.0000
  H   H29       1.0  0.58801  0.48401  0.93521  1.0000
  H   H30       1.0  0.91195  0.98402  0.56480  1.0000
  H   H31       1.0  0.41197  0.51598  0.06479  1.0000
  H   H32       1.0  0.08806  0.01599  0.43520  1.0000
  C   C1        1.0  0.29196  0.59074  0.77039  1.0000
  C   C2        1.0  0.20799  0.09074  0.72961  1.0000
  C   C3        1.0  0.70802  0.40926  0.22961  1.0000
  C   C4        1.0  0.79202  0.90925  0.27038  1.0000
  C   C5        1.0  0.55080  0.51299  0.68546  1.0000
  C   C6        1.0  0.94917  0.01297  0.81454  1.0000
  C   C7        1.0  0.44921  0.48702  0.31454  1.0000
  C   C8        1.0  0.05084  0.98703  0.18545  1.0000
  C   C9        1.0  0.90757  0.13647  0.81441  1.0000
  C   C10       1.0  0.59238  0.63649  0.68560  1.0000
  C   C11       1.0  0.09243  0.86352  0.18559  1.0000
  C   C12       1.0  0.40762  0.36352  0.31440  1.0000
  C   C13       1.0  0.12829  0.60215  0.83657  1.0000
  C   C14       1.0  0.37166  0.10216  0.66344  1.0000
  C   C15       1.0  0.87169  0.39784  0.16343  1.0000
  C   C16       1.0  0.62835  0.89783  0.33656  1.0000
  C   C17       1.0  0.70383  0.43990  0.63925  1.0000
  C   C18       1.0  0.79613  0.93987  0.86075  1.0000
  C   C19       1.0  0.29618  0.56011  0.36075  1.0000
  C   C20       1.0  0.20387  0.06012  0.13925  1.0000
  C   C21       1.0  0.71557  0.18867  0.86148  1.0000
  C   C22       1.0  0.78439  0.68870  0.63853  1.0000
  C   C23       1.0  0.28442  0.81133  0.13851  1.0000
  C   C24       1.0  0.21563  0.31131  0.36147  1.0000
  C   C25       1.0  0.20592  0.68624  0.88970  1.0000
  C   C26       1.0  0.29406  0.18626  0.61031  1.0000
  C   C27       1.0  0.79406  0.31374  0.11031  1.0000
  C   C28       1.0  0.70594  0.81375  0.38969  1.0000
  C   C29       1.0  0.90438  0.52770  0.85370  1.0000
  C   C30       1.0  0.59559  0.02772  0.64631  1.0000
  C   C31       1.0  0.09562  0.47229  0.14630  1.0000
  C   C32       1.0  0.40442  0.97228  0.35369  1.0000
  C   C33       1.0  0.89530  0.49277  0.59297  1.0000
  C   C34       1.0  0.60465  0.99273  0.90703  1.0000
  C   C35       1.0  0.10472  0.50724  0.40703  1.0000
  C   C36       1.0  0.39535  0.00727  0.09296  1.0000
  C   C37       1.0  0.56449  0.11535  0.90730  1.0000
  C   C38       1.0  0.93546  0.61539  0.59271  1.0000
  C   C39       1.0  0.43552  0.88465  0.09270  1.0000
  C   C40       1.0  0.06456  0.38462  0.40730  1.0000
  C   C41       1.0  0.06590  0.69491  0.95484  1.0000
  C   C42       1.0  0.43408  0.19492  0.54517  1.0000
  C   C43       1.0  0.93406  0.30508  0.04516  1.0000
  C   C44       1.0  0.56592  0.80509  0.45483  1.0000
  C   C45       1.0  0.76428  0.53896  0.91884  1.0000
  C   C46       1.0  0.73569  0.03898  0.58118  1.0000
  C   C47       1.0  0.23570  0.46103  0.08116  1.0000
  C   C48       1.0  0.26432  0.96103  0.41882  1.0000
  N   N1        1.0  0.35660  0.48631  0.73874  1.0000
  N   N2        1.0  0.14335  0.98631  0.76127  1.0000
  N   N3        1.0  0.64339  0.51369  0.26126  1.0000
  N   N4        1.0  0.85666  0.01369  0.23873  1.0000
  N   N5        1.0  0.07528  0.18383  0.76071  1.0000
  N   N6        1.0  0.42466  0.68384  0.73931  1.0000
  N   N7        1.0  0.92472  0.81617  0.23929  1.0000
  N   N8        1.0  0.57534  0.31616  0.26070  1.0000
  N   N9        1.0  0.84267  0.62303  0.96923  1.0000
  N   N10       1.0  0.65730  0.12303  0.53077  1.0000
  N   N11       1.0  0.15729  0.37696  0.03077  1.0000
  N   N12       1.0  0.34271  0.87697  0.46922  1.0000
  O   O1        1.0  0.70816  0.63514  0.02991  1.0000
  O   O2        1.0  0.79182  0.13512  0.47010  1.0000
  O   O3        1.0  0.29180  0.36486  0.97009  1.0000
  O   O4        1.0  0.20820  0.86488  0.52990  1.0000
