data_image0
_chemical_formula_structural       H32Rh4C32N4O16
_chemical_formula_sum              "H32 Rh4 C32 N4 O16"
_cell_length_a       8.07389
_cell_length_b       11.9748
_cell_length_c       14.5598
_cell_angle_alpha    65.1803
_cell_angle_beta     73.6455
_cell_angle_gamma    70.1169

_space_group_name_H-M_alt    "P 1"
_space_group_IT_number       1

loop_
  _space_group_symop_operation_xyz
  'x, y, z'

loop_
  _atom_site_type_symbol
  _atom_site_label
  _atom_site_symmetry_multiplicity
  _atom_site_fract_x
  _atom_site_fract_y
  _atom_site_fract_z
  _atom_site_occupancy
  H   H1        1.0  0.44288  0.28161  0.20335  1.0000
  H   H2        1.0  0.92872  0.21847  0.29666  1.0000
  H   H3        1.0  0.55713  0.71839  0.79665  1.0000
  H   H4        1.0  0.07128  0.78153  0.70334  1.0000
  H   H5        1.0  0.49546  0.43110  0.13419  1.0000
  H   H6        1.0  0.06208  0.06889  0.36552  1.0000
  H   H7        1.0  0.50455  0.56890  0.86581  1.0000
  H   H8        1.0  0.93790  0.93111  0.63449  1.0000
  H   H9        1.0  0.57254  0.31409  0.07647  1.0000
  H   H10       1.0  0.96274  0.18568  0.42342  1.0000
  H   H11       1.0  0.42746  0.68591  0.92353  1.0000
  H   H12       1.0  0.03725  0.81433  0.57657  1.0000
  H   H13       1.0  0.86586  0.12918  0.05238  1.0000
  H   H14       1.0  0.04558  0.37104  0.44842  1.0000
  H   H15       1.0  0.13413  0.87082  0.94762  1.0000
  H   H16       1.0  0.95441  0.62897  0.55159  1.0000
  H   H17       1.0  0.82133  0.12366  0.18283  1.0000
  H   H18       1.0  0.12676  0.37644  0.31801  1.0000
  H   H19       1.0  0.17867  0.87634  0.81716  1.0000
  H   H20       1.0  0.87323  0.62356  0.68199  1.0000
  H   H21       1.0  0.04283  0.06975  0.12298  1.0000
  H   H22       1.0  0.23436  0.43013  0.37731  1.0000
  H   H23       1.0  0.95716  0.93025  0.87701  1.0000
  H   H24       1.0  0.76563  0.56987  0.62269  1.0000
  H   H25       1.0  0.41563  0.67825  0.56355  1.0000
  H   H26       1.0  0.65649  0.82161  0.93621  1.0000
  H   H27       1.0  0.58439  0.32174  0.43645  1.0000
  H   H28       1.0  0.34353  0.17840  0.06378  1.0000
  H   H29       1.0  0.58337  0.70461  0.39022  1.0000
  H   H30       1.0  0.67736  0.79487  0.10976  1.0000
  H   H31       1.0  0.41665  0.29539  0.60978  1.0000
  H   H32       1.0  0.32264  0.20514  0.89023  1.0000
  Rh  Rh1       1.0  0.08483  0.48400  0.92148  1.0000
  Rh  Rh2       1.0  0.48902  0.01593  0.57888  1.0000
  Rh  Rh3       1.0  0.91517  0.51600  0.07852  1.0000
  Rh  Rh4       1.0  0.51097  0.98408  0.42112  1.0000
  C   C1        1.0  0.94442  0.27169  0.07013  1.0000
  C   C2        1.0  0.28539  0.22833  0.43024  1.0000
  C   C3        1.0  0.05559  0.72830  0.92987  1.0000
  C   C4        1.0  0.71460  0.77167  0.56977  1.0000
  C   C5        1.0  0.29393  0.40588  0.08134  1.0000
  C   C6        1.0  0.78158  0.09398  0.41857  1.0000
  C   C7        1.0  0.70608  0.59411  0.91866  1.0000
  C   C8        1.0  0.21841  0.90603  0.58144  1.0000
  C   C9        1.0  0.68908  0.52832  0.30051  1.0000
  C   C10       1.0  0.51858  0.97137  0.19913  1.0000
  C   C11       1.0  0.31093  0.47168  0.69949  1.0000
  C   C12       1.0  0.48142  0.02863  0.80087  1.0000
  C   C13       1.0  0.59411  0.51505  0.40093  1.0000
  C   C14       1.0  0.51000  0.98477  0.09864  1.0000
  C   C15       1.0  0.40590  0.48495  0.59907  1.0000
  C   C16       1.0  0.48999  0.01522  0.90136  1.0000
  C   C17       1.0  0.46197  0.35410  0.12659  1.0000
  C   C18       1.0  0.94331  0.14581  0.37326  1.0000
  C   C19       1.0  0.53803  0.64590  0.87341  1.0000
  C   C20       1.0  0.05669  0.85419  0.62674  1.0000
  C   C21       1.0  0.91443  0.14083  0.11029  1.0000
  C   C22       1.0  0.16424  0.35926  0.39030  1.0000
  C   C23       1.0  0.08557  0.85917  0.88970  1.0000
  C   C24       1.0  0.83575  0.64075  0.60970  1.0000
  C   C25       1.0  0.54703  0.39974  0.46410  1.0000
  C   C26       1.0  0.41137  0.10043  0.03596  1.0000
  C   C27       1.0  0.45298  0.60025  0.53590  1.0000
  C   C28       1.0  0.58863  0.89957  0.96404  1.0000
  C   C29       1.0  0.45351  0.38445  0.56244  1.0000
  C   C30       1.0  0.40097  0.11597  0.93759  1.0000
  C   C31       1.0  0.54650  0.61555  0.43756  1.0000
  C   C32       1.0  0.59903  0.88403  0.06241  1.0000
  N   N1        1.0  0.76725  0.53582  0.21802  1.0000
  N   N2        1.0  0.52320  0.96418  0.28100  1.0000
  N   N3        1.0  0.23276  0.46419  0.78198  1.0000
  N   N4        1.0  0.47680  0.03582  0.71899  1.0000
  O   O1        1.0  0.03488  0.30812  0.97997  1.0000
  O   O2        1.0  0.32120  0.19172  0.52035  1.0000
  O   O3        1.0  0.96512  0.69188  0.02002  1.0000
  O   O4        1.0  0.67879  0.80828  0.47966  1.0000
  O   O5        1.0  0.30790  0.41043  0.98981  1.0000
  O   O6        1.0  0.70739  0.08932  0.51010  1.0000
  O   O7        1.0  0.69210  0.58955  0.01020  1.0000
  O   O8        1.0  0.29261  0.91068  0.48990  1.0000
  O   O9        1.0  0.12075  0.66329  0.87117  1.0000
  O   O10       1.0  0.65460  0.83644  0.62866  1.0000
  O   O11       1.0  0.87926  0.33671  0.12882  1.0000
  O   O12       1.0  0.34539  0.16356  0.37135  1.0000
  O   O13       1.0  0.85183  0.55843  0.86285  1.0000
  O   O14       1.0  0.27155  0.94151  0.63737  1.0000
  O   O15       1.0  0.14817  0.44157  0.13715  1.0000
  O   O16       1.0  0.72843  0.05850  0.36263  1.0000
