data_image0
_chemical_formula_structural       Zn2H16C16O8
_chemical_formula_sum              "Zn2 H16 C16 O8"
_cell_length_a       4.87312
_cell_length_b       6.71144
_cell_length_c       12.9632
_cell_angle_alpha    98.8517
_cell_angle_beta     100.077
_cell_angle_gamma    95.3876

_space_group_name_H-M_alt    "P 1"
_space_group_IT_number       1

loop_
  _space_group_symop_operation_xyz
  'x, y, z'

loop_
  _atom_site_type_symbol
  _atom_site_label
  _atom_site_symmetry_multiplicity
  _atom_site_fract_x
  _atom_site_fract_y
  _atom_site_fract_z
  _atom_site_occupancy
  Zn  Zn1       1.0  0.75931  0.69792  0.07886  1.0000
  Zn  Zn2       1.0  0.24069  0.30208  0.92114  1.0000
  H   H1        1.0  0.03827  0.09916  0.19958  1.0000
  H   H2        1.0  0.96173  0.90085  0.80042  1.0000
  H   H3        1.0  0.65258  0.26088  0.29855  1.0000
  H   H4        1.0  0.34743  0.73912  0.70145  1.0000
  H   H5        1.0  0.47510  0.57850  0.34924  1.0000
  H   H6        1.0  0.52491  0.42150  0.65077  1.0000
  H   H7        1.0  0.13598  0.48963  0.27362  1.0000
  H   H8        1.0  0.86403  0.51037  0.72638  1.0000
  H   H9        1.0  0.20204  0.48511  0.48167  1.0000
  H   H10       1.0  0.79798  0.51489  0.51833  1.0000
  H   H11       1.0  0.14602  0.13149  0.49949  1.0000
  H   H12       1.0  0.85398  0.86851  0.50051  1.0000
  H   H13       1.0  0.06300  0.87991  0.32962  1.0000
  H   H14       1.0  0.93698  0.12009  0.67037  1.0000
  H   H15       1.0  0.43027  0.93585  0.36939  1.0000
  H   H16       1.0  0.56972  0.06415  0.63060  1.0000
  C   C1        1.0  0.34663  0.90963  0.16208  1.0000
  C   C2        1.0  0.65337  0.09037  0.83793  1.0000
  C   C3        1.0  0.48212  0.35003  0.15287  1.0000
  C   C4        1.0  0.51788  0.64997  0.84712  1.0000
  C   C5        1.0  0.25126  0.07599  0.23577  1.0000
  C   C6        1.0  0.74874  0.92401  0.76423  1.0000
  C   C7        1.0  0.44320  0.27744  0.25518  1.0000
  C   C8        1.0  0.55680  0.72256  0.74481  1.0000
  C   C9        1.0  0.31909  0.44266  0.32279  1.0000
  C   C10       1.0  0.68093  0.55734  0.67721  1.0000
  C   C11       1.0  0.23408  0.36938  0.41737  1.0000
  C   C12       1.0  0.76593  0.63061  0.58264  1.0000
  C   C13       1.0  0.20175  0.17318  0.42686  1.0000
  C   C14       1.0  0.79825  0.82683  0.57314  1.0000
  C   C15       1.0  0.23776  0.00327  0.34229  1.0000
  C   C16       1.0  0.76223  0.99673  0.65771  1.0000
  O   O1        1.0  0.60788  0.92577  0.15821  1.0000
  O   O2        1.0  0.39211  0.07424  0.84179  1.0000
  O   O3        1.0  0.17737  0.75608  0.11082  1.0000
  O   O4        1.0  0.82263  0.24392  0.88918  1.0000
  O   O5        1.0  0.29347  0.28264  0.07083  1.0000
  O   O6        1.0  0.70653  0.71735  0.92917  1.0000
  O   O7        1.0  0.69631  0.47872  0.15864  1.0000
  O   O8        1.0  0.30369  0.52128  0.84135  1.0000
