data_image0
_chemical_formula_structural       Nd2H16C18O18
_chemical_formula_sum              "Nd2 H16 C18 O18"
_cell_length_a       7.81765
_cell_length_b       8.52312
_cell_length_c       9.69708
_cell_angle_alpha    68.3685
_cell_angle_beta     76.5578
_cell_angle_gamma    76.2231

_space_group_name_H-M_alt    "P 1"
_space_group_IT_number       1

loop_
  _space_group_symop_operation_xyz
  'x, y, z'

loop_
  _atom_site_type_symbol
  _atom_site_label
  _atom_site_symmetry_multiplicity
  _atom_site_fract_x
  _atom_site_fract_y
  _atom_site_fract_z
  _atom_site_occupancy
  Nd  Nd1       1.0  0.25206  0.27509  0.45241  1.0000
  Nd  Nd2       1.0  0.74794  0.72491  0.54759  1.0000
  H   H1        1.0  0.01298  0.31330  0.23093  1.0000
  H   H2        1.0  0.98703  0.68669  0.76907  1.0000
  H   H3        1.0  0.88712  0.38699  0.35883  1.0000
  H   H4        1.0  0.11289  0.61301  0.64116  1.0000
  H   H5        1.0  0.84254  0.59759  0.02220  1.0000
  H   H6        1.0  0.15747  0.40241  0.97780  1.0000
  H   H7        1.0  0.68745  0.74222  0.19111  1.0000
  H   H8        1.0  0.31255  0.25778  0.80888  1.0000
  H   H9        1.0  0.99021  0.97616  0.75928  1.0000
  H   H10       1.0  0.00980  0.02385  0.24071  1.0000
  H   H11       1.0  0.63658  0.29198  0.00203  1.0000
  H   H12       1.0  0.36341  0.70802  0.99797  1.0000
  H   H13       1.0  0.32689  0.91497  0.48267  1.0000
  H   H14       1.0  0.67310  0.08503  0.51733  1.0000
  H   H15       1.0  0.13042  0.88682  0.57016  1.0000
  H   H16       1.0  0.86958  0.11317  0.42984  1.0000
  C   C1        1.0  0.52993  0.03156  0.25207  1.0000
  C   C2        1.0  0.47006  0.96844  0.74794  1.0000
  C   C3        1.0  0.65027  0.01853  0.11088  1.0000
  C   C4        1.0  0.34973  0.98147  0.88910  1.0000
  C   C5        1.0  0.72265  0.85608  0.09920  1.0000
  C   C6        1.0  0.27735  0.14392  0.90080  1.0000
  C   C7        1.0  0.84128  0.84175  0.97145  1.0000
  C   C8        1.0  0.15871  0.15824  0.02857  1.0000
  C   C9        1.0  0.89336  0.98661  0.85732  1.0000
  C   C10       1.0  0.10664  0.01341  0.14268  1.0000
  C   C11       1.0  0.81927  0.14877  0.86843  1.0000
  C   C12       1.0  0.18073  0.85123  0.13158  1.0000
  C   C13       1.0  0.69500  0.16560  0.99405  1.0000
  C   C14       1.0  0.30498  0.83440  0.00596  1.0000
  C   C15       1.0  0.87395  0.30370  0.74280  1.0000
  C   C16       1.0  0.12605  0.69631  0.25721  1.0000
  C   C17       1.0  0.42504  0.52776  0.55872  1.0000
  C   C18       1.0  0.57498  0.47223  0.44127  1.0000
  O   O1        1.0  0.42519  0.17065  0.24958  1.0000
  O   O2        1.0  0.57479  0.82935  0.75042  1.0000
  O   O3        1.0  0.20985  0.97375  0.52083  1.0000
  O   O4        1.0  0.79015  0.02623  0.47918  1.0000
  O   O5        1.0  0.53939  0.89817  0.37100  1.0000
  O   O6        1.0  0.46061  0.10183  0.62901  1.0000
  O   O7        1.0  0.98284  0.29072  0.34075  1.0000
  O   O8        1.0  0.01717  0.70927  0.65925  1.0000
  O   O9        1.0  0.91508  0.68317  0.95522  1.0000
  O   O10       1.0  0.08492  0.31684  0.04477  1.0000
  O   O11       1.0  0.99901  0.27987  0.63797  1.0000
  O   O12       1.0  0.00100  0.72015  0.36205  1.0000
  O   O13       1.0  0.79159  0.45033  0.74584  1.0000
  O   O14       1.0  0.20840  0.54968  0.25417  1.0000
  O   O15       1.0  0.27604  0.47868  0.57871  1.0000
  O   O16       1.0  0.72398  0.52131  0.42128  1.0000
  O   O17       1.0  0.45761  0.61568  0.62558  1.0000
  O   O18       1.0  0.54239  0.38432  0.37441  1.0000
