data_image0
_chemical_formula_structural       Pr2H16C18O18
_chemical_formula_sum              "Pr2 H16 C18 O18"
_cell_length_a       7.8456
_cell_length_b       8.56474
_cell_length_c       9.69802
_cell_angle_alpha    68.3667
_cell_angle_beta     76.8001
_cell_angle_gamma    76.1617

_space_group_name_H-M_alt    "P 1"
_space_group_IT_number       1

loop_
  _space_group_symop_operation_xyz
  'x, y, z'

loop_
  _atom_site_type_symbol
  _atom_site_label
  _atom_site_symmetry_multiplicity
  _atom_site_fract_x
  _atom_site_fract_y
  _atom_site_fract_z
  _atom_site_occupancy
  Pr  Pr1       1.0  0.25104  0.27466  0.45247  1.0000
  Pr  Pr2       1.0  0.74895  0.72535  0.54753  1.0000
  H   H1        1.0  0.00980  0.31326  0.23032  1.0000
  H   H2        1.0  0.99020  0.68674  0.76968  1.0000
  H   H3        1.0  0.88418  0.38789  0.35726  1.0000
  H   H4        1.0  0.11583  0.61211  0.64274  1.0000
  H   H5        1.0  0.83882  0.60150  0.01949  1.0000
  H   H6        1.0  0.16118  0.39849  0.98051  1.0000
  H   H7        1.0  0.68569  0.74453  0.18938  1.0000
  H   H8        1.0  0.31431  0.25546  0.81062  1.0000
  H   H9        1.0  0.98730  0.97760  0.75921  1.0000
  H   H10       1.0  0.01270  0.02240  0.24079  1.0000
  H   H11       1.0  0.63762  0.29172  0.00250  1.0000
  H   H12       1.0  0.36237  0.70827  0.99750  1.0000
  H   H13       1.0  0.32653  0.91515  0.48045  1.0000
  H   H14       1.0  0.67347  0.08485  0.51955  1.0000
  H   H15       1.0  0.13245  0.88507  0.57014  1.0000
  H   H16       1.0  0.86755  0.11493  0.42985  1.0000
  C   C1        1.0  0.52927  0.03252  0.25053  1.0000
  C   C2        1.0  0.47073  0.96749  0.74947  1.0000
  C   C3        1.0  0.64989  0.01956  0.11016  1.0000
  C   C4        1.0  0.35010  0.98043  0.88984  1.0000
  C   C5        1.0  0.72143  0.85789  0.09818  1.0000
  C   C6        1.0  0.27856  0.14211  0.90182  1.0000
  C   C7        1.0  0.83956  0.84358  0.97085  1.0000
  C   C8        1.0  0.16043  0.15642  0.02915  1.0000
  C   C9        1.0  0.89169  0.98785  0.85741  1.0000
  C   C10       1.0  0.10831  0.01215  0.14259  1.0000
  C   C11       1.0  0.81888  0.14930  0.86898  1.0000
  C   C12       1.0  0.18112  0.85070  0.13102  1.0000
  C   C13       1.0  0.69515  0.16599  0.99419  1.0000
  C   C14       1.0  0.30484  0.83401  0.00581  1.0000
  C   C15       1.0  0.87371  0.30368  0.74433  1.0000
  C   C16       1.0  0.12630  0.69632  0.25567  1.0000
  C   C17       1.0  0.42556  0.52772  0.55872  1.0000
  C   C18       1.0  0.57443  0.47228  0.44128  1.0000
  O   O1        1.0  0.42483  0.17116  0.24746  1.0000
  O   O2        1.0  0.57519  0.82885  0.75255  1.0000
  O   O3        1.0  0.20974  0.97276  0.51907  1.0000
  O   O4        1.0  0.79026  0.02724  0.48093  1.0000
  O   O5        1.0  0.53832  0.89973  0.36949  1.0000
  O   O6        1.0  0.46169  0.10027  0.63050  1.0000
  O   O7        1.0  0.97930  0.29170  0.33985  1.0000
  O   O8        1.0  0.02070  0.70830  0.66015  1.0000
  O   O9        1.0  0.91267  0.68571  0.95447  1.0000
  O   O10       1.0  0.08733  0.31429  0.04553  1.0000
  O   O11       1.0  0.99768  0.28024  0.63940  1.0000
  O   O12       1.0  0.00232  0.71975  0.36061  1.0000
  O   O13       1.0  0.79281  0.44967  0.74827  1.0000
  O   O14       1.0  0.20720  0.55033  0.25173  1.0000
  O   O15       1.0  0.27744  0.47810  0.57972  1.0000
  O   O16       1.0  0.72256  0.52190  0.42028  1.0000
  O   O17       1.0  0.45811  0.61616  0.62468  1.0000
  O   O18       1.0  0.54189  0.38384  0.37533  1.0000
