data_image0
_chemical_formula_structural       Sm2H16C18O18
_chemical_formula_sum              "Sm2 H16 C18 O18"
_cell_length_a       7.75361
_cell_length_b       8.46801
_cell_length_c       9.68717
_cell_angle_alpha    68.3388
_cell_angle_beta     76.366
_cell_angle_gamma    76.2794

_space_group_name_H-M_alt    "P 1"
_space_group_IT_number       1

loop_
  _space_group_symop_operation_xyz
  'x, y, z'

loop_
  _atom_site_type_symbol
  _atom_site_label
  _atom_site_symmetry_multiplicity
  _atom_site_fract_x
  _atom_site_fract_y
  _atom_site_fract_z
  _atom_site_occupancy
  Sm  Sm1       1.0  0.25296  0.27479  0.45363  1.0000
  Sm  Sm2       1.0  0.74704  0.72521  0.54636  1.0000
  H   H1        1.0  0.01857  0.31309  0.23188  1.0000
  H   H2        1.0  0.98142  0.68691  0.76812  1.0000
  H   H3        1.0  0.89126  0.38620  0.36021  1.0000
  H   H4        1.0  0.10873  0.61380  0.63979  1.0000
  H   H5        1.0  0.84265  0.59436  0.02424  1.0000
  H   H6        1.0  0.15735  0.40563  0.97577  1.0000
  H   H7        1.0  0.68606  0.74106  0.19252  1.0000
  H   H8        1.0  0.31395  0.25894  0.80748  1.0000
  H   H9        1.0  0.99137  0.97545  0.75888  1.0000
  H   H10       1.0  0.00865  0.02454  0.24112  1.0000
  H   H11       1.0  0.63546  0.29428  0.00177  1.0000
  H   H12       1.0  0.36454  0.70571  0.99822  1.0000
  H   H13       1.0  0.32710  0.91527  0.48588  1.0000
  H   H14       1.0  0.67290  0.08472  0.51412  1.0000
  H   H15       1.0  0.12707  0.88963  0.57048  1.0000
  H   H16       1.0  0.87292  0.11037  0.42952  1.0000
  C   C1        1.0  0.52983  0.03203  0.25405  1.0000
  C   C2        1.0  0.47017  0.96798  0.74594  1.0000
  C   C3        1.0  0.64948  0.01919  0.11172  1.0000
  C   C4        1.0  0.35052  0.98082  0.88828  1.0000
  C   C5        1.0  0.72140  0.85552  0.10006  1.0000
  C   C6        1.0  0.27860  0.14449  0.89993  1.0000
  C   C7        1.0  0.84059  0.84065  0.97185  1.0000
  C   C8        1.0  0.15941  0.15934  0.02815  1.0000
  C   C9        1.0  0.89337  0.98628  0.85707  1.0000
  C   C10       1.0  0.10664  0.01372  0.14293  1.0000
  C   C11       1.0  0.81887  0.14973  0.86763  1.0000
  C   C12       1.0  0.18114  0.85027  0.13238  1.0000
  C   C13       1.0  0.69405  0.16709  0.99387  1.0000
  C   C14       1.0  0.30596  0.83292  0.00612  1.0000
  C   C15       1.0  0.87386  0.30488  0.74038  1.0000
  C   C16       1.0  0.12614  0.69512  0.25962  1.0000
  C   C17       1.0  0.42422  0.52787  0.55868  1.0000
  C   C18       1.0  0.57578  0.47212  0.44130  1.0000
  O   O1        1.0  0.42458  0.17172  0.25278  1.0000
  O   O2        1.0  0.57541  0.82828  0.74722  1.0000
  O   O3        1.0  0.20926  0.97567  0.52312  1.0000
  O   O4        1.0  0.79073  0.02433  0.47688  1.0000
  O   O5        1.0  0.54069  0.89766  0.37292  1.0000
  O   O6        1.0  0.45931  0.10235  0.62708  1.0000
  O   O7        1.0  0.98761  0.28937  0.34203  1.0000
  O   O8        1.0  0.01238  0.71063  0.65798  1.0000
  O   O9        1.0  0.91461  0.68109  0.95558  1.0000
  O   O10       1.0  0.08539  0.31891  0.04443  1.0000
  O   O11       1.0  0.00088  0.27983  0.63614  1.0000
  O   O12       1.0  0.99912  0.72017  0.36386  1.0000
  O   O13       1.0  0.78992  0.45266  0.74177  1.0000
  O   O14       1.0  0.21006  0.54734  0.25823  1.0000
  O   O15       1.0  0.27412  0.47793  0.57889  1.0000
  O   O16       1.0  0.72589  0.52207  0.42112  1.0000
  O   O17       1.0  0.45664  0.61693  0.62521  1.0000
  O   O18       1.0  0.54334  0.38307  0.37479  1.0000
