data_image0
_chemical_formula_structural       Zn4H32C44N24O8
_chemical_formula_sum              "Zn4 H32 C44 N24 O8"
_cell_length_a       9.01379
_cell_length_b       10.1665
_cell_length_c       18.7134
_cell_angle_alpha    90.0002
_cell_angle_beta     90.0004
_cell_angle_gamma    90.0001

_space_group_name_H-M_alt    "P 1"
_space_group_IT_number       1

loop_
  _space_group_symop_operation_xyz
  'x, y, z'

loop_
  _atom_site_type_symbol
  _atom_site_label
  _atom_site_symmetry_multiplicity
  _atom_site_fract_x
  _atom_site_fract_y
  _atom_site_fract_z
  _atom_site_occupancy
  Zn  Zn1       1.0  0.86752  0.98524  0.40248  1.0000
  Zn  Zn2       1.0  0.36752  0.01476  0.59752  1.0000
  Zn  Zn3       1.0  0.86752  0.51476  0.90248  1.0000
  Zn  Zn4       1.0  0.36752  0.48524  0.09752  1.0000
  H   H1        1.0  0.18116  0.05271  0.46646  1.0000
  H   H2        1.0  0.68116  0.94729  0.53354  1.0000
  H   H3        1.0  0.18116  0.44729  0.96647  1.0000
  H   H4        1.0  0.68116  0.55271  0.03354  1.0000
  H   H5        1.0  0.74831  0.62023  0.60635  1.0000
  H   H6        1.0  0.24831  0.37977  0.39366  1.0000
  H   H7        1.0  0.74831  0.87977  0.10635  1.0000
  H   H8        1.0  0.24831  0.12023  0.89365  1.0000
  H   H9        1.0  0.16004  0.67824  0.73558  1.0000
  H   H10       1.0  0.66004  0.32176  0.26442  1.0000
  H   H11       1.0  0.16004  0.82176  0.23558  1.0000
  H   H12       1.0  0.66004  0.17824  0.76442  1.0000
  H   H13       1.0  0.27719  0.78887  0.68919  1.0000
  H   H14       1.0  0.77718  0.21113  0.31082  1.0000
  H   H15       1.0  0.27719  0.71113  0.18919  1.0000
  H   H16       1.0  0.77719  0.28887  0.81081  1.0000
  H   H17       1.0  0.01356  0.32897  0.28935  1.0000
  H   H18       1.0  0.51357  0.67102  0.71065  1.0000
  H   H19       1.0  0.01356  0.17103  0.78934  1.0000
  H   H20       1.0  0.51356  0.82897  0.21065  1.0000
  H   H21       1.0  0.13862  0.48865  0.20653  1.0000
  H   H22       1.0  0.63863  0.51134  0.79346  1.0000
  H   H23       1.0  0.13863  0.01135  0.70653  1.0000
  H   H24       1.0  0.63862  0.98865  0.29347  1.0000
  H   H25       1.0  0.41473  0.19775  0.12630  1.0000
  H   H26       1.0  0.91474  0.80224  0.87370  1.0000
  H   H27       1.0  0.41473  0.30225  0.62630  1.0000
  H   H28       1.0  0.91474  0.69776  0.37371  1.0000
  H   H29       1.0  0.30029  0.02632  0.20714  1.0000
  H   H30       1.0  0.80030  0.97368  0.79286  1.0000
  H   H31       1.0  0.30029  0.47369  0.70714  1.0000
  H   H32       1.0  0.80030  0.52631  0.29286  1.0000
  C   C1        1.0  0.12831  0.97492  0.49727  1.0000
  C   C2        1.0  0.62831  0.02508  0.50273  1.0000
  C   C3        1.0  0.12831  0.52508  0.99727  1.0000
  C   C4        1.0  0.62831  0.47492  0.00273  1.0000
  C   C5        1.0  0.84504  0.68346  0.59806  1.0000
  C   C6        1.0  0.34503  0.31654  0.40194  1.0000
  C   C7        1.0  0.84504  0.81655  0.09806  1.0000
  C   C8        1.0  0.34504  0.18346  0.90194  1.0000
  C   C9        1.0  0.07348  0.75126  0.64255  1.0000
  C   C10       1.0  0.57348  0.24874  0.35745  1.0000
  C   C11       1.0  0.07348  0.74874  0.14255  1.0000
  C   C12       1.0  0.57348  0.25127  0.85745  1.0000
  C   C13       1.0  0.08433  0.83462  0.58199  1.0000
  C   C14       1.0  0.58432  0.16538  0.41801  1.0000
  C   C15       1.0  0.08433  0.66539  0.08199  1.0000
  C   C16       1.0  0.58433  0.33462  0.91801  1.0000
  C   C17       1.0  0.96527  0.83275  0.53329  1.0000
  C   C18       1.0  0.46527  0.16725  0.46671  1.0000
  C   C19       1.0  0.96527  0.66726  0.03329  1.0000
  C   C20       1.0  0.46527  0.33275  0.96671  1.0000
  C   C21       1.0  0.07572  0.06768  0.30302  1.0000
  C   C22       1.0  0.57572  0.93231  0.69698  1.0000
  C   C23       1.0  0.07571  0.43232  0.80301  1.0000
  C   C24       1.0  0.57572  0.56767  0.19699  1.0000
  C   C25       1.0  0.10167  0.29696  0.25363  1.0000
  C   C26       1.0  0.60167  0.70304  0.74636  1.0000
  C   C27       1.0  0.10167  0.20304  0.75363  1.0000
  C   C28       1.0  0.60166  0.79696  0.24637  1.0000
  C   C29       1.0  0.14764  0.16566  0.25372  1.0000
  C   C30       1.0  0.64765  0.83434  0.74628  1.0000
  C   C31       1.0  0.14765  0.33434  0.75372  1.0000
  C   C32       1.0  0.64765  0.66566  0.24628  1.0000
  C   C33       1.0  0.17070  0.38515  0.20804  1.0000
  C   C34       1.0  0.67071  0.61485  0.79195  1.0000
  C   C35       1.0  0.17070  0.11485  0.70804  1.0000
  C   C36       1.0  0.67070  0.88515  0.29196  1.0000
  C   C37       1.0  0.32577  0.22182  0.16353  1.0000
  C   C38       1.0  0.82578  0.77818  0.83647  1.0000
  C   C39       1.0  0.32578  0.27818  0.66353  1.0000
  C   C40       1.0  0.82578  0.72182  0.33647  1.0000
  C   C41       1.0  0.26246  0.12799  0.20802  1.0000
  C   C42       1.0  0.76247  0.87201  0.79198  1.0000
  C   C43       1.0  0.26246  0.37201  0.70802  1.0000
  C   C44       1.0  0.76246  0.62799  0.29198  1.0000
  N   N1        1.0  0.99571  0.92232  0.47987  1.0000
  N   N2        1.0  0.49572  0.07768  0.52013  1.0000
  N   N3        1.0  0.99571  0.57768  0.97987  1.0000
  N   N4        1.0  0.49572  0.42233  0.02013  1.0000
  N   N5        1.0  0.84240  0.75813  0.53907  1.0000
  N   N6        1.0  0.34240  0.24186  0.46094  1.0000
  N   N7        1.0  0.84240  0.74187  0.03906  1.0000
  N   N8        1.0  0.34240  0.25814  0.96093  1.0000
  N   N9        1.0  0.18724  0.92630  0.55778  1.0000
  N   N10       1.0  0.68724  0.07370  0.44222  1.0000
  N   N11       1.0  0.18724  0.57370  0.05778  1.0000
  N   N12       1.0  0.68724  0.42631  0.94222  1.0000
  N   N13       1.0  0.95011  0.67602  0.64876  1.0000
  N   N14       1.0  0.45010  0.32398  0.35124  1.0000
  N   N15       1.0  0.95010  0.82398  0.14876  1.0000
  N   N16       1.0  0.45010  0.17603  0.85124  1.0000
  N   N17       1.0  0.17619  0.74497  0.69519  1.0000
  N   N18       1.0  0.67618  0.25502  0.30481  1.0000
  N   N19       1.0  0.17619  0.75503  0.19519  1.0000
  N   N20       1.0  0.67618  0.24498  0.80481  1.0000
  N   N21       1.0  0.28009  0.34777  0.16347  1.0000
  N   N22       1.0  0.78010  0.65223  0.83653  1.0000
  N   N23       1.0  0.28009  0.15223  0.66347  1.0000
  N   N24       1.0  0.78009  0.84777  0.33653  1.0000
  O   O1        1.0  0.96210  0.11401  0.33788  1.0000
  O   O2        1.0  0.46210  0.88599  0.66212  1.0000
  O   O3        1.0  0.96210  0.38599  0.83788  1.0000
  O   O4        1.0  0.46210  0.61400  0.16212  1.0000
  O   O5        1.0  0.12614  0.95410  0.30893  1.0000
  O   O6        1.0  0.62614  0.04590  0.69107  1.0000
  O   O7        1.0  0.12613  0.54590  0.80893  1.0000
  O   O8        1.0  0.62614  0.45410  0.19107  1.0000
