data_image0
_chemical_formula_structural       Cd4H20C32S4N12O12
_chemical_formula_sum              "Cd4 H20 C32 S4 N12 O12"
_cell_length_a       6.71441
_cell_length_b       11.8027
_cell_length_c       12.2765
_cell_angle_alpha    90.0001
_cell_angle_beta     89.9999
_cell_angle_gamma    102.048

_space_group_name_H-M_alt    "P 1"
_space_group_IT_number       1

loop_
  _space_group_symop_operation_xyz
  'x, y, z'

loop_
  _atom_site_type_symbol
  _atom_site_label
  _atom_site_symmetry_multiplicity
  _atom_site_fract_x
  _atom_site_fract_y
  _atom_site_fract_z
  _atom_site_occupancy
  Cd  Cd1       1.0  0.21761  0.95257  0.57404  1.0000
  Cd  Cd2       1.0  0.28239  0.04743  0.07404  1.0000
  Cd  Cd3       1.0  0.78239  0.04743  0.42596  1.0000
  Cd  Cd4       1.0  0.71761  0.95257  0.92596  1.0000
  H   H1        1.0  0.77776  0.54397  0.44365  1.0000
  H   H2        1.0  0.72224  0.45603  0.94366  1.0000
  H   H3        1.0  0.22224  0.45603  0.55635  1.0000
  H   H4        1.0  0.27776  0.54397  0.05635  1.0000
  H   H5        1.0  0.97002  0.74596  0.42898  1.0000
  H   H6        1.0  0.52999  0.25404  0.92898  1.0000
  H   H7        1.0  0.02999  0.25404  0.57102  1.0000
  H   H8        1.0  0.47001  0.74596  0.07102  1.0000
  H   H9        1.0  0.03576  0.77750  0.76457  1.0000
  H   H10       1.0  0.46424  0.22250  0.26457  1.0000
  H   H11       1.0  0.96424  0.22250  0.23543  1.0000
  H   H12       1.0  0.53576  0.77750  0.73543  1.0000
  H   H13       1.0  0.84175  0.57605  0.79446  1.0000
  H   H14       1.0  0.65825  0.42395  0.29447  1.0000
  H   H15       1.0  0.15825  0.42395  0.20554  1.0000
  H   H16       1.0  0.34174  0.57605  0.70554  1.0000
  H   H17       1.0  0.22496  0.08119  0.80118  1.0000
  H   H18       1.0  0.27505  0.91881  0.30118  1.0000
  H   H19       1.0  0.77504  0.91881  0.19882  1.0000
  H   H20       1.0  0.72496  0.08119  0.69882  1.0000
  C   C1        1.0  0.79324  0.54172  0.62135  1.0000
  C   C2        1.0  0.70676  0.45828  0.12136  1.0000
  C   C3        1.0  0.20676  0.45828  0.37865  1.0000
  C   C4        1.0  0.29324  0.54172  0.87865  1.0000
  C   C5        1.0  0.83103  0.59167  0.51748  1.0000
  C   C6        1.0  0.66897  0.40833  0.01748  1.0000
  C   C7        1.0  0.16897  0.40833  0.48252  1.0000
  C   C8        1.0  0.33103  0.59167  0.98252  1.0000
  C   C9        1.0  0.94057  0.70473  0.50848  1.0000
  C   C10       1.0  0.55943  0.29527  0.00848  1.0000
  C   C11       1.0  0.05943  0.29527  0.49152  1.0000
  C   C12       1.0  0.44057  0.70473  0.99152  1.0000
  C   C13       1.0  0.97668  0.72221  0.69577  1.0000
  C   C14       1.0  0.52332  0.27779  0.19577  1.0000
  C   C15       1.0  0.02332  0.27779  0.30423  1.0000
  C   C16       1.0  0.47668  0.72221  0.80423  1.0000
  C   C17       1.0  0.86733  0.61002  0.71213  1.0000
  C   C18       1.0  0.63267  0.38998  0.21214  1.0000
  C   C19       1.0  0.13267  0.38998  0.28787  1.0000
  C   C20       1.0  0.36733  0.61002  0.78787  1.0000
  C   C21       1.0  0.68368  0.42293  0.63346  1.0000
  C   C22       1.0  0.81632  0.57707  0.13346  1.0000
  C   C23       1.0  0.31633  0.57707  0.36654  1.0000
  C   C24       1.0  0.18368  0.42293  0.86654  1.0000
  C   C25       1.0  0.53873  0.25018  0.58104  1.0000
  C   C26       1.0  0.96127  0.74982  0.08104  1.0000
  C   C27       1.0  0.46128  0.74982  0.41896  1.0000
  C   C28       1.0  0.03873  0.25018  0.91896  1.0000
  C   C29       1.0  0.34840  0.03335  0.81123  1.0000
  C   C30       1.0  0.15160  0.96665  0.31123  1.0000
  C   C31       1.0  0.65160  0.96665  0.18878  1.0000
  C   C32       1.0  0.84840  0.03335  0.68877  1.0000
  S   S1        1.0  0.45570  0.14363  0.48785  1.0000
  S   S2        1.0  0.04430  0.85637  0.98785  1.0000
  S   S3        1.0  0.54431  0.85637  0.51215  1.0000
  S   S4        1.0  0.95569  0.14363  0.01215  1.0000
  N   N1        1.0  0.01416  0.76885  0.59585  1.0000
  N   N2        1.0  0.48584  0.23115  0.09585  1.0000
  N   N3        1.0  0.98584  0.23115  0.40415  1.0000
  N   N4        1.0  0.51416  0.76885  0.90415  1.0000
  N   N5        1.0  0.62417  0.36290  0.72178  1.0000
  N   N6        1.0  0.87583  0.63710  0.22178  1.0000
  N   N7        1.0  0.37583  0.63710  0.27822  1.0000
  N   N8        1.0  0.12417  0.36290  0.77822  1.0000
  N   N9        1.0  0.53141  0.25210  0.68877  1.0000
  N   N10       1.0  0.96860  0.74790  0.18877  1.0000
  N   N11       1.0  0.46860  0.74790  0.31123  1.0000
  N   N12       1.0  0.03140  0.25210  0.81123  1.0000
  O   O1        1.0  0.38021  0.96393  0.73842  1.0000
  O   O2        1.0  0.11979  0.03607  0.23842  1.0000
  O   O3        1.0  0.61979  0.03607  0.26158  1.0000
  O   O4        1.0  0.88021  0.96393  0.76158  1.0000
  O   O5        1.0  0.45219  0.05128  0.89943  1.0000
  O   O6        1.0  0.04781  0.94872  0.39943  1.0000
  O   O7        1.0  0.54780  0.94872  0.10057  1.0000
  O   O8        1.0  0.95219  0.05128  0.60057  1.0000
  O   O9        1.0  0.63376  0.35794  0.54088  1.0000
  O   O10       1.0  0.86623  0.64206  0.04088  1.0000
  O   O11       1.0  0.36624  0.64205  0.45912  1.0000
  O   O12       1.0  0.13376  0.35794  0.95912  1.0000
