data_image0
_chemical_formula_structural       Zn2H24C28S4N12O8
_chemical_formula_sum              "Zn2 H24 C28 S4 N12 O8"
_cell_length_a       8.95447
_cell_length_b       11.8619
_cell_length_c       11.6759
_cell_angle_alpha    89.9999
_cell_angle_beta     89.9994
_cell_angle_gamma    106.129

_space_group_name_H-M_alt    "P 1"
_space_group_IT_number       1

loop_
  _space_group_symop_operation_xyz
  'x, y, z'

loop_
  _atom_site_type_symbol
  _atom_site_label
  _atom_site_symmetry_multiplicity
  _atom_site_fract_x
  _atom_site_fract_y
  _atom_site_fract_z
  _atom_site_occupancy
  Zn  Zn1       1.0  0.00000  0.00000  0.99999  1.0000
  Zn  Zn2       1.0  0.50000  0.50000  0.50000  1.0000
  H   H1        1.0  0.77110  0.81654  0.92836  1.0000
  H   H2        1.0  0.72890  0.68346  0.42837  1.0000
  H   H3        1.0  0.22890  0.18347  0.07163  1.0000
  H   H4        1.0  0.27110  0.31653  0.57164  1.0000
  H   H5        1.0  0.93419  0.81427  0.86809  1.0000
  H   H6        1.0  0.56581  0.68573  0.36809  1.0000
  H   H7        1.0  0.06580  0.18572  0.13191  1.0000
  H   H8        1.0  0.43420  0.31427  0.63191  1.0000
  H   H9        1.0  0.87902  0.60740  0.24122  1.0000
  H   H10       1.0  0.62098  0.89259  0.74123  1.0000
  H   H11       1.0  0.12097  0.39260  0.75878  1.0000
  H   H12       1.0  0.37903  0.10741  0.25878  1.0000
  H   H13       1.0  0.81597  0.76373  0.12532  1.0000
  H   H14       1.0  0.68404  0.73626  0.62533  1.0000
  H   H15       1.0  0.18402  0.23627  0.87467  1.0000
  H   H16       1.0  0.31597  0.26373  0.37468  1.0000
  H   H17       1.0  0.27529  0.96638  0.12778  1.0000
  H   H18       1.0  0.22471  0.53362  0.62778  1.0000
  H   H19       1.0  0.72471  0.03361  0.87221  1.0000
  H   H20       1.0  0.77529  0.46638  0.37222  1.0000
  H   H21       1.0  0.35788  0.82069  0.24623  1.0000
  H   H22       1.0  0.14212  0.67931  0.74624  1.0000
  H   H23       1.0  0.64211  0.17931  0.75376  1.0000
  H   H24       1.0  0.85789  0.32069  0.25377  1.0000
  C   C1        1.0  0.12540  0.70064  0.25280  1.0000
  C   C2        1.0  0.37459  0.79935  0.75281  1.0000
  C   C3        1.0  0.87458  0.29935  0.74719  1.0000
  C   C4        1.0  0.62541  0.20065  0.24720  1.0000
  C   C5        1.0  0.97092  0.68538  0.21818  1.0000
  C   C6        1.0  0.52908  0.81461  0.71819  1.0000
  C   C7        1.0  0.02907  0.31461  0.78181  1.0000
  C   C8        1.0  0.47093  0.18539  0.28182  1.0000
  C   C9        1.0  0.93530  0.77262  0.15316  1.0000
  C   C10       1.0  0.56470  0.72737  0.65317  1.0000
  C   C11       1.0  0.06470  0.22738  0.84683  1.0000
  C   C12       1.0  0.43530  0.27262  0.34684  1.0000
  C   C13       1.0  0.19061  0.88636  0.15594  1.0000
  C   C14       1.0  0.30939  0.61364  0.65594  1.0000
  C   C15       1.0  0.80939  0.11364  0.84405  1.0000
  C   C16       1.0  0.69061  0.38636  0.34406  1.0000
  C   C17       1.0  0.23664  0.80506  0.22203  1.0000
  C   C18       1.0  0.26336  0.69493  0.72204  1.0000
  C   C19       1.0  0.76336  0.19493  0.77796  1.0000
  C   C20       1.0  0.73664  0.30507  0.27797  1.0000
  C   C21       1.0  0.17268  0.61225  0.31731  1.0000
  C   C22       1.0  0.32732  0.88776  0.81731  1.0000
  C   C23       1.0  0.82732  0.38776  0.68269  1.0000
  C   C24       1.0  0.67269  0.11225  0.18270  1.0000
  C   C25       1.0  0.15195  0.44461  0.40466  1.0000
  C   C26       1.0  0.34805  0.05540  0.90465  1.0000
  C   C27       1.0  0.84805  0.55539  0.59534  1.0000
  C   C28       1.0  0.65195  0.94461  0.09534  1.0000
  S   S1        1.0  0.06745  0.31066  0.45661  1.0000
  S   S2        1.0  0.43255  0.18935  0.95659  1.0000
  S   S3        1.0  0.93256  0.68934  0.54339  1.0000
  S   S4        1.0  0.56745  0.81067  0.04339  1.0000
  N   N1        1.0  0.04310  0.87102  0.12069  1.0000
  N   N2        1.0  0.45690  0.62898  0.62070  1.0000
  N   N3        1.0  0.95690  0.12897  0.87930  1.0000
  N   N4        1.0  0.54310  0.37103  0.37931  1.0000
  N   N5        1.0  0.31093  0.61783  0.35721  1.0000
  N   N6        1.0  0.18907  0.88218  0.85721  1.0000
  N   N7        1.0  0.68907  0.38218  0.64279  1.0000
  N   N8        1.0  0.81093  0.11782  0.14280  1.0000
  N   N9        1.0  0.29890  0.51277  0.41162  1.0000
  N   N10       1.0  0.20111  0.98724  0.91162  1.0000
  N   N11       1.0  0.70110  0.48724  0.58838  1.0000
  N   N12       1.0  0.79890  0.01277  0.08838  1.0000
  O   O1        1.0  0.06751  0.50683  0.34222  1.0000
  O   O2        1.0  0.43250  0.99317  0.84221  1.0000
  O   O3        1.0  0.93249  0.49317  0.65778  1.0000
  O   O4        1.0  0.56752  0.00683  0.15779  1.0000
  O   O5        1.0  0.86416  0.86240  0.88545  1.0000
  O   O6        1.0  0.63584  0.63760  0.38545  1.0000
  O   O7        1.0  0.13584  0.13760  0.11455  1.0000
  O   O8        1.0  0.36416  0.36240  0.61455  1.0000
