data_image0
_chemical_formula_structural       Zn6H36C56S8N24O12
_chemical_formula_sum              "Zn6 H36 C56 S8 N24 O12"
_cell_length_a       8.9404
_cell_length_b       12.7627
_cell_length_c       17.3905
_cell_angle_alpha    111.998
_cell_angle_beta     89.9849
_cell_angle_gamma    110.492

_space_group_name_H-M_alt    "P 1"
_space_group_IT_number       1

loop_
  _space_group_symop_operation_xyz
  'x, y, z'

loop_
  _atom_site_type_symbol
  _atom_site_label
  _atom_site_symmetry_multiplicity
  _atom_site_fract_x
  _atom_site_fract_y
  _atom_site_fract_z
  _atom_site_occupancy
  Zn  Zn1       1.0  0.16577  0.99997  0.74999  1.0000
  Zn  Zn2       1.0  0.83422  0.00003  0.25001  1.0000
  Zn  Zn3       1.0  0.96212  0.75673  0.58425  1.0000
  Zn  Zn4       1.0  0.20555  0.24320  0.91586  1.0000
  Zn  Zn5       1.0  0.03788  0.24327  0.41575  1.0000
  Zn  Zn6       1.0  0.79445  0.75680  0.08414  1.0000
  H   H1        1.0  0.96480  0.03851  0.84074  1.0000
  H   H2        1.0  0.92613  0.96157  0.65947  1.0000
  H   H3        1.0  0.03519  0.96149  0.15926  1.0000
  H   H4        1.0  0.07387  0.03843  0.34053  1.0000
  H   H5        1.0  0.55510  0.27157  0.41133  1.0000
  H   H6        1.0  0.28357  0.72795  0.08867  1.0000
  H   H7        1.0  0.44489  0.72843  0.58867  1.0000
  H   H8        1.0  0.71644  0.27205  0.91133  1.0000
  H   H9        1.0  0.36094  0.06797  0.31426  1.0000
  H   H10       1.0  0.29301  0.93172  0.18561  1.0000
  H   H11       1.0  0.63905  0.93203  0.68574  1.0000
  H   H12       1.0  0.70699  0.06828  0.81438  1.0000
  H   H13       1.0  0.18845  0.21637  0.17608  1.0000
  H   H14       1.0  0.97230  0.78384  0.32408  1.0000
  H   H15       1.0  0.81155  0.78363  0.82392  1.0000
  H   H16       1.0  0.02770  0.21616  0.67591  1.0000
  H   H17       1.0  0.37973  0.42676  0.26556  1.0000
  H   H18       1.0  0.95340  0.57334  0.23481  1.0000
  H   H19       1.0  0.62026  0.57324  0.73444  1.0000
  H   H20       1.0  0.04661  0.42666  0.76519  1.0000
  H   H21       1.0  0.62705  0.98142  0.93422  1.0000
  H   H22       1.0  0.64616  0.01839  0.56557  1.0000
  H   H23       1.0  0.37295  0.01857  0.06577  1.0000
  H   H24       1.0  0.35384  0.98161  0.43443  1.0000
  H   H25       1.0  0.78985  0.95212  0.03656  1.0000
  H   H26       1.0  0.83810  0.04783  0.46314  1.0000
  H   H27       1.0  0.21016  0.04788  0.96344  1.0000
  H   H28       1.0  0.16190  0.95217  0.53686  1.0000
  H   H29       1.0  0.45854  0.60308  0.98265  1.0000
  H   H30       1.0  0.85529  0.39687  0.51726  1.0000
  H   H31       1.0  0.54147  0.39692  0.01735  1.0000
  H   H32       1.0  0.14470  0.60313  0.48274  1.0000
  H   H33       1.0  0.28396  0.61428  0.87633  1.0000
  H   H34       1.0  0.66968  0.38553  0.62367  1.0000
  H   H35       1.0  0.71604  0.38572  0.12367  1.0000
  H   H36       1.0  0.33031  0.61447  0.37633  1.0000
  C   C1        1.0  0.59500  0.48719  0.40068  1.0000
  C   C2        1.0  0.10810  0.51263  0.09961  1.0000
  C   C3        1.0  0.40499  0.51281  0.59932  1.0000
  C   C4        1.0  0.89191  0.48737  0.90039  1.0000
  C   C5        1.0  0.71785  0.68604  0.44472  1.0000
  C   C6        1.0  0.03207  0.31377  0.05554  1.0000
  C   C7        1.0  0.28215  0.31396  0.55528  1.0000
  C   C8        1.0  0.96793  0.68623  0.94446  1.0000
  C   C9        1.0  0.48398  0.36651  0.34607  1.0000
  C   C10       1.0  0.11774  0.63333  0.15416  1.0000
  C   C11       1.0  0.51602  0.63349  0.65393  1.0000
  C   C12       1.0  0.88227  0.36667  0.84584  1.0000
  C   C13       1.0  0.47706  0.26313  0.35950  1.0000
  C   C14       1.0  0.21404  0.73659  0.14055  1.0000
  C   C15       1.0  0.52293  0.73688  0.64050  1.0000
  C   C16       1.0  0.78597  0.26341  0.85945  1.0000
  C   C17       1.0  0.36829  0.14962  0.30513  1.0000
  C   C18       1.0  0.21871  0.85016  0.19482  1.0000
  C   C19       1.0  0.63171  0.85038  0.69487  1.0000
  C   C20       1.0  0.78130  0.14985  0.80518  1.0000
  C   C21       1.0  0.27308  0.23163  0.22825  1.0000
  C   C22       1.0  0.04161  0.76842  0.27188  1.0000
  C   C23       1.0  0.72692  0.76837  0.77175  1.0000
  C   C24       1.0  0.95840  0.23158  0.72812  1.0000
  C   C25       1.0  0.37933  0.34955  0.27853  1.0000
  C   C26       1.0  0.03007  0.65047  0.22173  1.0000
  C   C27       1.0  0.62067  0.65045  0.72147  1.0000
  C   C28       1.0  0.96994  0.34953  0.77827  1.0000
  C   C29       1.0  0.34724  0.80914  0.83437  1.0000
  C   C30       1.0  0.53816  0.19062  0.66547  1.0000
  C   C31       1.0  0.65277  0.19086  0.16563  1.0000
  C   C32       1.0  0.46183  0.80938  0.33453  1.0000
  C   C33       1.0  0.15639  0.74693  0.73172  1.0000
  C   C34       1.0  0.40938  0.25285  0.76812  1.0000
  C   C35       1.0  0.84361  0.25307  0.26828  1.0000
  C   C36       1.0  0.59062  0.74715  0.23188  1.0000
  C   C37       1.0  0.44286  0.79890  0.89631  1.0000
  C   C38       1.0  0.64421  0.20091  0.60359  1.0000
  C   C39       1.0  0.55714  0.20110  0.10369  1.0000
  C   C40       1.0  0.35578  0.79909  0.39641  1.0000
  C   C41       1.0  0.58520  0.89645  0.94322  1.0000
  C   C42       1.0  0.68920  0.10343  0.55665  1.0000
  C   C43       1.0  0.41481  0.10355  0.05678  1.0000
  C   C44       1.0  0.31080  0.89657  0.44335  1.0000
  C   C45       1.0  0.67614  0.88126  0.99985  1.0000
  C   C46       1.0  0.79523  0.11867  0.49997  1.0000
  C   C47       1.0  0.32386  0.11874  0.00015  1.0000
  C   C48       1.0  0.20476  0.88133  0.50003  1.0000
  C   C49       1.0  0.49207  0.68433  0.96896  1.0000
  C   C50       1.0  0.80779  0.31560  0.53093  1.0000
  C   C51       1.0  0.50793  0.31568  0.03104  1.0000
  C   C52       1.0  0.19221  0.68439  0.46907  1.0000
  C   C53       1.0  0.39515  0.69108  0.91020  1.0000
  C   C54       1.0  0.70418  0.30877  0.58975  1.0000
  C   C55       1.0  0.60485  0.30892  0.08980  1.0000
  C   C56       1.0  0.29581  0.69123  0.41025  1.0000
  S   S1        1.0  0.77548  0.82635  0.44893  1.0000
  S   S2        1.0  0.94960  0.17355  0.05147  1.0000
  S   S3        1.0  0.22451  0.17365  0.55107  1.0000
  S   S4        1.0  0.05041  0.82645  0.94853  1.0000
  S   S5        1.0  0.99941  0.64406  0.65583  1.0000
  S   S6        1.0  0.35524  0.35570  0.84409  1.0000
  S   S7        1.0  0.00059  0.35594  0.34417  1.0000
  S   S8        1.0  0.64476  0.64430  0.15591  1.0000
  N   N1        1.0  0.77001  0.64550  0.49663  1.0000
  N   N2        1.0  0.12447  0.35424  0.00351  1.0000
  N   N3        1.0  0.22999  0.35450  0.50337  1.0000
  N   N4        1.0  0.87553  0.64576  0.99649  1.0000
  N   N5        1.0  0.69379  0.52073  0.46850  1.0000
  N   N6        1.0  0.17305  0.47903  0.03166  1.0000
  N   N7        1.0  0.30621  0.47927  0.53150  1.0000
  N   N8        1.0  0.82695  0.52097  0.96834  1.0000
  N   N9        1.0  0.26681  0.13223  0.24013  1.0000
  N   N10       1.0  0.13466  0.86771  0.25986  1.0000
  N   N11       1.0  0.73319  0.86777  0.75987  1.0000
  N   N12       1.0  0.86534  0.13229  0.74014  1.0000
  N   N13       1.0  0.23224  0.86812  0.75944  1.0000
  N   N14       1.0  0.36408  0.13165  0.74040  1.0000
  N   N15       1.0  0.76776  0.13188  0.24056  1.0000
  N   N16       1.0  0.63591  0.86835  0.25960  1.0000
  N   N17       1.0  0.35455  0.90684  0.82408  1.0000
  N   N18       1.0  0.44778  0.09292  0.67575  1.0000
  N   N19       1.0  0.64545  0.09317  0.17592  1.0000
  N   N20       1.0  0.55222  0.90707  0.32425  1.0000
  N   N21       1.0  0.63098  0.77710  0.01226  1.0000
  N   N22       1.0  0.85403  0.22287  0.48757  1.0000
  N   N23       1.0  0.36902  0.22290  0.98774  1.0000
  N   N24       1.0  0.14596  0.77713  0.51243  1.0000
  O   O1        1.0  0.60247  0.58434  0.38199  1.0000
  O   O2        1.0  0.01854  0.41552  0.11836  1.0000
  O   O3        1.0  0.39753  0.41566  0.61801  1.0000
  O   O4        1.0  0.98146  0.58448  0.88164  1.0000
  O   O5        1.0  0.22845  0.70561  0.77771  1.0000
  O   O6        1.0  0.52278  0.29416  0.72213  1.0000
  O   O7        1.0  0.77155  0.29439  0.22229  1.0000
  O   O8        1.0  0.47721  0.70584  0.27787  1.0000
  O   O9        1.0  0.08287  0.07141  0.85136  1.0000
  O   O10       1.0  0.01123  0.92857  0.64876  1.0000
  O   O11       1.0  0.91712  0.92858  0.14864  1.0000
  O   O12       1.0  0.98877  0.07143  0.35124  1.0000
