data_image0
_chemical_formula_structural       Cd4H32C56S8N24O8
_chemical_formula_sum              "Cd4 H32 C56 S8 N24 O8"
_cell_length_a       10.8108
_cell_length_b       10.5922
_cell_length_c       17.4926
_cell_angle_alpha    89.9998
_cell_angle_beta     89.9989
_cell_angle_gamma    92.5472

_space_group_name_H-M_alt    "P 1"
_space_group_IT_number       1

loop_
  _space_group_symop_operation_xyz
  'x, y, z'

loop_
  _atom_site_type_symbol
  _atom_site_label
  _atom_site_symmetry_multiplicity
  _atom_site_fract_x
  _atom_site_fract_y
  _atom_site_fract_z
  _atom_site_occupancy
  Cd  Cd1       1.0  0.16085  0.24754  0.25189  1.0000
  Cd  Cd2       1.0  0.33915  0.75247  0.75188  1.0000
  Cd  Cd3       1.0  0.83915  0.75247  0.74811  1.0000
  Cd  Cd4       1.0  0.66085  0.24754  0.24811  1.0000
  H   H1        1.0  0.73131  0.97400  0.84516  1.0000
  H   H2        1.0  0.76870  0.02603  0.34517  1.0000
  H   H3        1.0  0.26869  0.02600  0.15484  1.0000
  H   H4        1.0  0.23130  0.97397  0.65482  1.0000
  H   H5        1.0  0.72162  0.06689  0.97602  1.0000
  H   H6        1.0  0.77838  0.93312  0.47602  1.0000
  H   H7        1.0  0.27837  0.93310  0.02399  1.0000
  H   H8        1.0  0.22161  0.06685  0.52396  1.0000
  H   H9        1.0  0.97599  0.78777  0.05001  1.0000
  H   H10       1.0  0.52397  0.21220  0.55001  1.0000
  H   H11       1.0  0.02399  0.21221  0.95000  1.0000
  H   H12       1.0  0.47601  0.78775  0.44997  1.0000
  H   H13       1.0  0.97154  0.70323  0.91584  1.0000
  H   H14       1.0  0.52843  0.29676  0.41585  1.0000
  H   H15       1.0  0.02846  0.29677  0.08416  1.0000
  H   H16       1.0  0.47156  0.70321  0.58414  1.0000
  H   H17       1.0  0.00442  0.78673  0.58971  1.0000
  H   H18       1.0  0.49557  0.21330  0.08972  1.0000
  H   H19       1.0  0.99560  0.21327  0.41031  1.0000
  H   H20       1.0  0.50442  0.78672  0.91028  1.0000
  H   H21       1.0  0.01674  0.69899  0.45665  1.0000
  H   H22       1.0  0.48325  0.30104  0.95666  1.0000
  H   H23       1.0  0.98329  0.30100  0.54336  1.0000
  H   H24       1.0  0.51675  0.69900  0.04335  1.0000
  H   H25       1.0  0.69193  0.46212  0.50944  1.0000
  H   H26       1.0  0.80808  0.53789  0.00944  1.0000
  H   H27       1.0  0.30809  0.53787  0.49057  1.0000
  H   H28       1.0  0.19193  0.46214  0.99056  1.0000
  H   H29       1.0  0.69249  0.55945  0.63948  1.0000
  H   H30       1.0  0.80752  0.44055  0.13949  1.0000
  H   H31       1.0  0.30752  0.44055  0.36052  1.0000
  H   H32       1.0  0.19249  0.55946  0.86051  1.0000
  C   C1        1.0  0.78338  0.93448  0.89206  1.0000
  C   C2        1.0  0.71663  0.06555  0.39206  1.0000
  C   C3        1.0  0.21662  0.06553  0.10795  1.0000
  C   C4        1.0  0.28336  0.93443  0.60793  1.0000
  C   C5        1.0  0.77755  0.98589  0.96476  1.0000
  C   C6        1.0  0.72245  0.01412  0.46476  1.0000
  C   C7        1.0  0.22244  0.01410  0.03525  1.0000
  C   C8        1.0  0.27754  0.98585  0.53522  1.0000
  C   C9        1.0  0.84786  0.93400  0.02349  1.0000
  C   C10       1.0  0.65215  0.06602  0.52349  1.0000
  C   C11       1.0  0.15214  0.06600  0.97652  1.0000
  C   C12       1.0  0.34783  0.93395  0.47648  1.0000
  C   C13       1.0  0.91965  0.83054  0.00621  1.0000
  C   C14       1.0  0.58033  0.16945  0.50622  1.0000
  C   C15       1.0  0.08034  0.16945  0.99379  1.0000
  C   C16       1.0  0.41964  0.83050  0.49376  1.0000
  C   C17       1.0  0.91766  0.78382  0.93187  1.0000
  C   C18       1.0  0.58232  0.21618  0.43188  1.0000
  C   C19       1.0  0.08233  0.21617  0.06813  1.0000
  C   C20       1.0  0.41767  0.78379  0.56810  1.0000
  C   C21       1.0  0.84729  0.99186  0.09846  1.0000
  C   C22       1.0  0.65271  0.00816  0.59846  1.0000
  C   C23       1.0  0.15271  0.00814  0.90155  1.0000
  C   C24       1.0  0.34728  0.99182  0.40152  1.0000
  C   C25       1.0  0.90989  0.04655  0.21288  1.0000
  C   C26       1.0  0.59010  0.95346  0.71288  1.0000
  C   C27       1.0  0.09010  0.95346  0.78712  1.0000
  C   C28       1.0  0.40990  0.04655  0.28710  1.0000
  C   C29       1.0  0.93711  0.71446  0.56936  1.0000
  C   C30       1.0  0.56289  0.28556  0.06937  1.0000
  C   C31       1.0  0.06291  0.28553  0.43065  1.0000
  C   C32       1.0  0.43712  0.71446  0.93063  1.0000
  C   C33       1.0  0.94366  0.66588  0.49559  1.0000
  C   C34       1.0  0.55634  0.33416  0.99559  1.0000
  C   C35       1.0  0.05636  0.33412  0.50442  1.0000
  C   C36       1.0  0.44367  0.66586  0.00440  1.0000
  C   C37       1.0  0.85514  0.57237  0.47286  1.0000
  C   C38       1.0  0.64485  0.42765  0.97286  1.0000
  C   C39       1.0  0.14488  0.42763  0.52715  1.0000
  C   C40       1.0  0.35516  0.57237  0.02714  1.0000
  C   C41       1.0  0.76235  0.53413  0.52532  1.0000
  C   C42       1.0  0.73765  0.46589  0.02533  1.0000
  C   C43       1.0  0.23766  0.46587  0.47469  1.0000
  C   C44       1.0  0.26236  0.53413  0.97468  1.0000
  C   C45       1.0  0.76368  0.58731  0.59770  1.0000
  C   C46       1.0  0.73631  0.41270  0.09771  1.0000
  C   C47       1.0  0.23633  0.41269  0.40230  1.0000
  C   C48       1.0  0.26369  0.58731  0.90229  1.0000
  C   C49       1.0  0.85789  0.51112  0.39895  1.0000
  C   C50       1.0  0.64211  0.48889  0.89895  1.0000
  C   C51       1.0  0.14211  0.48888  0.60106  1.0000
  C   C52       1.0  0.35790  0.51113  0.10105  1.0000
  C   C53       1.0  0.92526  0.45123  0.28760  1.0000
  C   C54       1.0  0.57475  0.54876  0.78760  1.0000
  C   C55       1.0  0.07474  0.54878  0.71241  1.0000
  C   C56       1.0  0.42526  0.45125  0.21240  1.0000
  S   S1        1.0  0.00073  0.05037  0.29099  1.0000
  S   S2        1.0  0.49925  0.94962  0.79099  1.0000
  S   S3        1.0  0.99926  0.94964  0.70901  1.0000
  S   S4        1.0  0.50074  0.05038  0.20900  1.0000
  S   S5        1.0  0.02053  0.44557  0.21178  1.0000
  S   S6        1.0  0.47947  0.55441  0.71178  1.0000
  S   S7        1.0  0.97947  0.55444  0.78823  1.0000
  S   S8        1.0  0.52054  0.44559  0.28823  1.0000
  N   N1        1.0  0.85151  0.83475  0.87557  1.0000
  N   N2        1.0  0.64848  0.16528  0.37557  1.0000
  N   N3        1.0  0.14849  0.16526  0.12443  1.0000
  N   N4        1.0  0.35151  0.83471  0.62441  1.0000
  N   N5        1.0  0.77246  0.07703  0.12213  1.0000
  N   N6        1.0  0.72754  0.92298  0.62214  1.0000
  N   N7        1.0  0.22753  0.92297  0.87787  1.0000
  N   N8        1.0  0.27246  0.07701  0.37785  1.0000
  N   N9        1.0  0.81090  0.11148  0.19443  1.0000
  N   N10       1.0  0.68909  0.88852  0.69443  1.0000
  N   N11       1.0  0.18909  0.88853  0.80557  1.0000
  N   N12       1.0  0.31092  0.11148  0.30556  1.0000
  N   N13       1.0  0.84989  0.67539  0.61988  1.0000
  N   N14       1.0  0.65010  0.32462  0.11989  1.0000
  N   N15       1.0  0.15012  0.32461  0.38012  1.0000
  N   N16       1.0  0.34991  0.67539  0.88011  1.0000
  N   N17       1.0  0.77681  0.42625  0.37343  1.0000
  N   N18       1.0  0.72319  0.57376  0.87343  1.0000
  N   N19       1.0  0.22319  0.57376  0.62659  1.0000
  N   N20       1.0  0.27682  0.42626  0.12657  1.0000
  N   N21       1.0  0.81847  0.38825  0.30328  1.0000
  N   N22       1.0  0.68154  0.61175  0.80328  1.0000
  N   N23       1.0  0.18154  0.61176  0.69673  1.0000
  N   N24       1.0  0.31846  0.38827  0.19672  1.0000
  O   O1        1.0  0.93465  0.96562  0.15203  1.0000
  O   O2        1.0  0.56535  0.03440  0.65204  1.0000
  O   O3        1.0  0.06534  0.03439  0.84797  1.0000
  O   O4        1.0  0.43463  0.96558  0.34795  1.0000
  O   O5        1.0  0.95322  0.53336  0.34863  1.0000
  O   O6        1.0  0.54678  0.46664  0.84864  1.0000
  O   O7        1.0  0.04678  0.46665  0.65138  1.0000
  O   O8        1.0  0.45323  0.53338  0.15136  1.0000
