data_image0
_chemical_formula_structural       Cd2H48C24N4O8
_chemical_formula_sum              "Cd2 H48 C24 N4 O8"
_cell_length_a       4.98826
_cell_length_b       9.87406
_cell_length_c       14.6472
_cell_angle_alpha    103.072
_cell_angle_beta     89.9996
_cell_angle_gamma    90.0005

_space_group_name_H-M_alt    "P 1"
_space_group_IT_number       1

loop_
  _space_group_symop_operation_xyz
  'x, y, z'

loop_
  _atom_site_type_symbol
  _atom_site_label
  _atom_site_symmetry_multiplicity
  _atom_site_fract_x
  _atom_site_fract_y
  _atom_site_fract_z
  _atom_site_occupancy
  Cd  Cd1       1.0  0.40847  0.25304  0.50356  1.0000
  Cd  Cd2       1.0  0.90845  0.74695  0.49644  1.0000
  H   H1        1.0  0.74953  0.34000  0.65981  1.0000
  H   H2        1.0  0.24953  0.65999  0.34019  1.0000
  H   H3        1.0  0.81500  0.42891  0.58072  1.0000
  H   H4        1.0  0.31500  0.57108  0.41928  1.0000
  H   H5        1.0  0.53249  0.44005  0.79578  1.0000
  H   H6        1.0  0.03248  0.55996  0.20423  1.0000
  H   H7        1.0  0.25156  0.37519  0.72580  1.0000
  H   H8        1.0  0.75155  0.62481  0.27421  1.0000
  H   H9        1.0  0.03308  0.60961  0.77434  1.0000
  H   H10       1.0  0.53308  0.39039  0.22566  1.0000
  H   H11       1.0  0.92519  0.58911  0.93579  1.0000
  H   H12       1.0  0.42520  0.41090  0.06421  1.0000
  H   H13       1.0  0.21853  0.48905  0.93973  1.0000
  H   H14       1.0  0.71854  0.51096  0.06027  1.0000
  H   H15       1.0  0.95435  0.42032  0.86173  1.0000
  H   H16       1.0  0.45436  0.57969  0.13827  1.0000
  H   H17       1.0  0.63157  0.60375  0.69332  1.0000
  H   H18       1.0  0.13158  0.39623  0.30667  1.0000
  H   H19       1.0  0.52646  0.68375  0.90095  1.0000
  H   H20       1.0  0.02645  0.31626  0.09905  1.0000
  H   H21       1.0  0.22951  0.78500  0.91036  1.0000
  H   H22       1.0  0.72951  0.21501  0.08963  1.0000
  H   H23       1.0  0.42862  0.76194  0.80792  1.0000
  H   H24       1.0  0.92862  0.23807  0.19207  1.0000
  H   H25       1.0  0.37777  0.81462  0.23226  1.0000
  H   H26       1.0  0.87781  0.18538  0.76773  1.0000
  H   H27       1.0  0.06895  0.84707  0.29304  1.0000
  H   H28       1.0  0.56898  0.15292  0.70697  1.0000
  H   H29       1.0  0.14019  0.73490  0.08125  1.0000
  H   H30       1.0  0.64027  0.26510  0.91875  1.0000
  H   H31       1.0  0.89141  0.83964  0.04486  1.0000
  H   H32       1.0  0.39148  0.16039  0.95514  1.0000
  H   H33       1.0  0.82919  0.76277  0.14166  1.0000
  H   H34       1.0  0.32927  0.23725  0.85835  1.0000
  H   H35       1.0  0.21732  0.03260  0.05754  1.0000
  H   H36       1.0  0.71737  0.96740  0.94246  1.0000
  H   H37       1.0  0.48208  0.94377  0.10046  1.0000
  H   H38       1.0  0.98213  0.05622  0.89953  1.0000
  H   H39       1.0  0.37834  0.11049  0.16415  1.0000
  H   H40       1.0  0.87835  0.88951  0.83585  1.0000
  H   H41       1.0  0.93799  0.01391  0.19811  1.0000
  H   H42       1.0  0.43802  0.98610  0.80190  1.0000
  H   H43       1.0  0.03009  0.06748  0.41715  1.0000
  H   H44       1.0  0.53010  0.93253  0.58285  1.0000
  H   H45       1.0  0.07162  0.16969  0.34430  1.0000
  H   H46       1.0  0.57163  0.83030  0.65571  1.0000
  H   H47       1.0  0.49639  0.06972  0.29334  1.0000
  H   H48       1.0  0.99642  0.93028  0.70665  1.0000
  C   C1        1.0  0.28117  0.55567  0.60703  1.0000
  C   C2        1.0  0.78117  0.44433  0.39297  1.0000
  C   C3        1.0  0.36985  0.46991  0.75316  1.0000
  C   C4        1.0  0.86986  0.53010  0.24684  1.0000
  C   C5        1.0  0.19454  0.57915  0.81716  1.0000
  C   C6        1.0  0.69453  0.42086  0.18284  1.0000
  C   C7        1.0  0.06552  0.51585  0.89267  1.0000
  C   C8        1.0  0.56552  0.48416  0.10733  1.0000
  C   C9        1.0  0.50142  0.51263  0.66894  1.0000
  C   C10       1.0  0.00142  0.48737  0.33106  1.0000
  C   C11       1.0  0.35351  0.70987  0.86147  1.0000
  C   C12       1.0  0.85351  0.29014  0.13853  1.0000
  C   C13       1.0  0.55385  0.95726  0.39702  1.0000
  C   C14       1.0  0.05386  0.04272  0.60298  1.0000
  C   C15       1.0  0.22600  0.89529  0.25800  1.0000
  C   C16       1.0  0.72604  0.10471  0.74201  1.0000
  C   C17       1.0  0.98279  0.81243  0.10665  1.0000
  C   C18       1.0  0.48287  0.18758  0.89336  1.0000
  C   C19       1.0  0.30637  0.01102  0.12143  1.0000
  C   C20       1.0  0.80640  0.98899  0.87858  1.0000
  C   C21       1.0  0.10256  0.93986  0.17326  1.0000
  C   C22       1.0  0.60258  0.06015  0.82675  1.0000
  C   C23       1.0  0.36118  0.01104  0.32989  1.0000
  C   C24       1.0  0.86119  0.98895  0.67011  1.0000
  N   N1        1.0  0.66044  0.39465  0.61646  1.0000
  N   N2        1.0  0.16042  0.60535  0.38354  1.0000
  N   N3        1.0  0.17403  0.11426  0.38430  1.0000
  N   N4        1.0  0.67404  0.88573  0.61570  1.0000
  O   O1        1.0  0.16551  0.46014  0.54641  1.0000
  O   O2        1.0  0.66552  0.53983  0.45359  1.0000
  O   O3        1.0  0.21636  0.68282  0.62338  1.0000
  O   O4        1.0  0.71636  0.31716  0.37661  1.0000
  O   O5        1.0  0.61469  0.82946  0.37914  1.0000
  O   O6        1.0  0.11470  0.17054  0.62085  1.0000
  O   O7        1.0  0.65583  0.04843  0.46379  1.0000
  O   O8        1.0  0.15584  0.95157  0.53620  1.0000
