data_image0
_chemical_formula_structural       Cd2H40C36N4O8
_chemical_formula_sum              "Cd2 H40 C36 N4 O8"
_cell_length_a       5.12058
_cell_length_b       9.74748
_cell_length_c       16.5349
_cell_angle_alpha    97.3125
_cell_angle_beta     89.9993
_cell_angle_gamma    89.9995

_space_group_name_H-M_alt    "P 1"
_space_group_IT_number       1

loop_
  _space_group_symop_operation_xyz
  'x, y, z'

loop_
  _atom_site_type_symbol
  _atom_site_label
  _atom_site_symmetry_multiplicity
  _atom_site_fract_x
  _atom_site_fract_y
  _atom_site_fract_z
  _atom_site_occupancy
  Cd  Cd1       1.0  0.11517  0.24850  0.00864  1.0000
  Cd  Cd2       1.0  0.61519  0.75153  0.99136  1.0000
  H   H1        1.0  0.51296  0.41647  0.07441  1.0000
  H   H2        1.0  0.01297  0.58354  0.92560  1.0000
  H   H3        1.0  0.43726  0.32556  0.14802  1.0000
  H   H4        1.0  0.93729  0.67443  0.85197  1.0000
  H   H5        1.0  0.77992  0.19444  0.87087  1.0000
  H   H6        1.0  0.27992  0.80557  0.12913  1.0000
  H   H7        1.0  0.75020  0.07256  0.93043  1.0000
  H   H8        1.0  0.25020  0.92745  0.06957  1.0000
  H   H9        1.0  0.32248  0.58881  0.16150  1.0000
  H   H10       1.0  0.82247  0.41119  0.83851  1.0000
  H   H11       1.0  0.91842  0.53968  0.24015  1.0000
  H   H12       1.0  0.41843  0.46033  0.75986  1.0000
  H   H13       1.0  0.94665  0.36249  0.20294  1.0000
  H   H14       1.0  0.44667  0.63752  0.79706  1.0000
  H   H15       1.0  0.49429  0.60745  0.27770  1.0000
  H   H16       1.0  0.99431  0.39255  0.72230  1.0000
  H   H17       1.0  0.75478  0.58147  0.40111  1.0000
  H   H18       1.0  0.25479  0.41852  0.59889  1.0000
  H   H19       1.0  0.63623  0.40627  0.48976  1.0000
  H   H20       1.0  0.13621  0.59370  0.51023  1.0000
  H   H21       1.0  0.25773  0.24681  0.45176  1.0000
  H   H22       1.0  0.75770  0.75316  0.54823  1.0000
  H   H23       1.0  0.00478  0.26852  0.32617  1.0000
  H   H24       1.0  0.50477  0.73147  0.67382  1.0000
  H   H25       1.0  0.19467  0.11570  0.82376  1.0000
  H   H26       1.0  0.69465  0.88431  0.17624  1.0000
  H   H27       1.0  0.08885  0.86146  0.76352  1.0000
  H   H28       1.0  0.58878  0.13855  0.23648  1.0000
  H   H29       1.0  0.77708  0.89131  0.80896  1.0000
  H   H30       1.0  0.27702  0.10868  0.19104  1.0000
  H   H31       1.0  0.18444  0.93585  0.63619  1.0000
  H   H32       1.0  0.68440  0.06414  0.36380  1.0000
  H   H33       1.0  0.06287  0.06235  0.52111  1.0000
  H   H34       1.0  0.56284  0.93763  0.47888  1.0000
  H   H35       1.0  0.67214  0.21537  0.53130  1.0000
  H   H36       1.0  0.17212  0.78462  0.46869  1.0000
  H   H37       1.0  0.40217  0.23919  0.65825  1.0000
  H   H38       1.0  0.90215  0.76079  0.34175  1.0000
  H   H39       1.0  0.52497  0.11361  0.77254  1.0000
  H   H40       1.0  0.02494  0.88638  0.22746  1.0000
  C   C1        1.0  0.97999  0.54129  0.08917  1.0000
  C   C2        1.0  0.47998  0.45873  0.91084  1.0000
  C   C3        1.0  0.19917  0.49719  0.14477  1.0000
  C   C4        1.0  0.69917  0.50282  0.85524  1.0000
  C   C5        1.0  0.06048  0.45737  0.22081  1.0000
  C   C6        1.0  0.56050  0.54264  0.77919  1.0000
  C   C7        1.0  0.23246  0.43858  0.29267  1.0000
  C   C8        1.0  0.73246  0.56141  0.70734  1.0000
  C   C9        1.0  0.44448  0.52633  0.31481  1.0000
  C   C10       1.0  0.94450  0.47367  0.68519  1.0000
  C   C11       1.0  0.58935  0.51323  0.38480  1.0000
  C   C12       1.0  0.08936  0.48676  0.61520  1.0000
  C   C13       1.0  0.52298  0.41332  0.43462  1.0000
  C   C14       1.0  0.02298  0.58666  0.56537  1.0000
  C   C15       1.0  0.31212  0.32529  0.41338  1.0000
  C   C16       1.0  0.81210  0.67469  0.58662  1.0000
  C   C17       1.0  0.16972  0.33737  0.34265  1.0000
  C   C18       1.0  0.66972  0.66262  0.65735  1.0000
  C   C19       1.0  0.26591  0.97420  0.90712  1.0000
  C   C20       1.0  0.76590  0.02583  0.09289  1.0000
  C   C21       1.0  0.07107  0.04284  0.85240  1.0000
  C   C22       1.0  0.57105  0.95718  0.14760  1.0000
  C   C23       1.0  0.94573  0.94227  0.78408  1.0000
  C   C24       1.0  0.44568  0.05773  0.21592  1.0000
  C   C25       1.0  0.86427  0.01542  0.71306  1.0000
  C   C26       1.0  0.36424  0.98457  0.28693  1.0000
  C   C27       1.0  0.01296  0.00287  0.64125  1.0000
  C   C28       1.0  0.51292  0.99712  0.35875  1.0000
  C   C29       1.0  0.94494  0.07468  0.57648  1.0000
  C   C30       1.0  0.44493  0.92530  0.42351  1.0000
  C   C31       1.0  0.72573  0.16048  0.58221  1.0000
  C   C32       1.0  0.22571  0.83950  0.41778  1.0000
  C   C33       1.0  0.57588  0.17414  0.65319  1.0000
  C   C34       1.0  0.07587  0.82584  0.34681  1.0000
  C   C35       1.0  0.64494  0.10227  0.71774  1.0000
  C   C36       1.0  0.14491  0.89771  0.28225  1.0000
  N   N1        1.0  0.35779  0.38117  0.10567  1.0000
  N   N2        1.0  0.85781  0.61884  0.89433  1.0000
  N   N3        1.0  0.88440  0.13051  0.90333  1.0000
  N   N4        1.0  0.38439  0.86950  0.09667  1.0000
  O   O1        1.0  0.87038  0.44882  0.03874  1.0000
  O   O2        1.0  0.37038  0.55122  0.96127  1.0000
  O   O3        1.0  0.90876  0.66642  0.10165  1.0000
  O   O4        1.0  0.40873  0.33361  0.89836  1.0000
  O   O5        1.0  0.36193  0.05218  0.96770  1.0000
  O   O6        1.0  0.86194  0.94784  0.03230  1.0000
  O   O7        1.0  0.33422  0.84975  0.88676  1.0000
  O   O8        1.0  0.83421  0.15026  0.11325  1.0000
