data_image0
_chemical_formula_structural       Cu2H32C32N4O8
_chemical_formula_sum              "Cu2 H32 C32 N4 O8"
_cell_length_a       5.00012
_cell_length_b       9.53174
_cell_length_c       15.0007
_cell_angle_alpha    102.506
_cell_angle_beta     90.0007
_cell_angle_gamma    90

_space_group_name_H-M_alt    "P 1"
_space_group_IT_number       1

loop_
  _space_group_symop_operation_xyz
  'x, y, z'

loop_
  _atom_site_type_symbol
  _atom_site_label
  _atom_site_symmetry_multiplicity
  _atom_site_fract_x
  _atom_site_fract_y
  _atom_site_fract_z
  _atom_site_occupancy
  Cu  Cu1       1.0  0.17912  0.26500  0.51412  1.0000
  Cu  Cu2       1.0  0.67912  0.73500  0.48588  1.0000
  H   H1        1.0  0.97152  0.33001  0.66786  1.0000
  H   H2        1.0  0.47152  0.66999  0.33214  1.0000
  H   H3        1.0  0.74360  0.24004  0.59858  1.0000
  H   H4        1.0  0.24358  0.75993  0.40141  1.0000
  H   H5        1.0  0.84823  0.02977  0.62453  1.0000
  H   H6        1.0  0.34819  0.97021  0.37548  1.0000
  H   H7        1.0  0.39565  0.26539  0.74937  1.0000
  H   H8        1.0  0.89560  0.73461  0.25063  1.0000
  H   H9        1.0  0.70795  0.00320  0.77120  1.0000
  H   H10       1.0  0.20791  0.99681  0.22881  1.0000
  H   H11       1.0  0.54127  0.37192  0.43800  1.0000
  H   H12       1.0  0.04126  0.62807  0.56200  1.0000
  H   H13       1.0  0.53012  0.20104  0.38632  1.0000
  H   H14       1.0  0.03013  0.79896  0.61368  1.0000
  H   H15       1.0  0.10367  0.23780  0.31781  1.0000
  H   H16       1.0  0.60367  0.76220  0.68219  1.0000
  H   H17       1.0  0.67337  0.19410  0.26158  1.0000
  H   H18       1.0  0.17338  0.80591  0.73842  1.0000
  H   H19       1.0  0.90768  0.22511  0.12399  1.0000
  H   H20       1.0  0.40769  0.77490  0.87601  1.0000
  H   H21       1.0  0.76084  0.41219  0.04127  1.0000
  H   H22       1.0  0.26086  0.58781  0.95873  1.0000
  H   H23       1.0  0.36150  0.56260  0.09751  1.0000
  H   H24       1.0  0.86154  0.43740  0.90249  1.0000
  H   H25       1.0  0.11665  0.52671  0.23470  1.0000
  H   H26       1.0  0.61667  0.47328  0.76530  1.0000
  H   H27       1.0  0.47646  0.29733  0.91580  1.0000
  H   H28       1.0  0.97639  0.70269  0.08420  1.0000
  H   H29       1.0  0.17946  0.18169  0.01019  1.0000
  H   H30       1.0  0.67939  0.81834  0.98981  1.0000
  H   H31       1.0  0.78971  0.03508  0.93824  1.0000
  H   H32       1.0  0.28964  0.96495  0.06177  1.0000
  C   C1        1.0  0.26913  0.04005  0.60028  1.0000
  C   C2        1.0  0.76910  0.95993  0.39973  1.0000
  C   C3        1.0  0.01043  0.10715  0.64710  1.0000
  C   C4        1.0  0.51040  0.89285  0.35290  1.0000
  C   C5        1.0  0.04765  0.13071  0.74937  1.0000
  C   C6        1.0  0.54760  0.86929  0.25063  1.0000
  C   C7        1.0  0.26274  0.21465  0.79081  1.0000
  C   C8        1.0  0.76268  0.78536  0.20919  1.0000
  C   C9        1.0  0.87755  0.06685  0.80309  1.0000
  C   C10       1.0  0.37750  0.93316  0.19692  1.0000
  C   C11       1.0  0.03780  0.44316  0.39730  1.0000
  C   C12       1.0  0.53779  0.55684  0.60270  1.0000
  C   C13       1.0  0.23484  0.33149  0.34266  1.0000
  C   C14       1.0  0.73485  0.66851  0.65734  1.0000
  C   C15       1.0  0.38142  0.36213  0.26023  1.0000
  C   C16       1.0  0.88144  0.63786  0.73977  1.0000
  C   C17       1.0  0.60291  0.27627  0.22670  1.0000
  C   C18       1.0  0.10293  0.72373  0.77330  1.0000
  C   C19       1.0  0.73564  0.29278  0.14800  1.0000
  C   C20       1.0  0.23566  0.70723  0.85200  1.0000
  C   C21       1.0  0.65166  0.39652  0.10128  1.0000
  C   C22       1.0  0.15169  0.60348  0.89872  1.0000
  C   C23       1.0  0.42928  0.48078  0.13307  1.0000
  C   C24       1.0  0.92931  0.51922  0.86692  1.0000
  C   C25       1.0  0.29340  0.46322  0.21128  1.0000
  C   C26       1.0  0.79343  0.53677  0.78871  1.0000
  C   C27       1.0  0.30830  0.23286  0.88412  1.0000
  C   C28       1.0  0.80823  0.76715  0.11587  1.0000
  C   C29       1.0  0.13997  0.16736  0.93730  1.0000
  C   C30       1.0  0.63990  0.83266  0.06271  1.0000
  C   C31       1.0  0.92353  0.08505  0.89680  1.0000
  C   C32       1.0  0.42347  0.91496  0.10320  1.0000
  N   N1        1.0  0.94175  0.24103  0.61653  1.0000
  N   N2        1.0  0.44173  0.75895  0.38347  1.0000
  N   N3        1.0  0.41214  0.28936  0.41141  1.0000
  N   N4        1.0  0.91213  0.71064  0.58859  1.0000
  O   O1        1.0  0.39431  0.11042  0.54868  1.0000
  O   O2        1.0  0.89431  0.88957  0.45131  1.0000
  O   O3        1.0  0.34908  0.92365  0.61657  1.0000
  O   O4        1.0  0.84906  0.07636  0.38342  1.0000
  O   O5        1.0  0.95814  0.41115  0.47291  1.0000
  O   O6        1.0  0.45811  0.58886  0.52709  1.0000
  O   O7        1.0  0.95278  0.54963  0.37017  1.0000
  O   O8        1.0  0.45280  0.45036  0.62982  1.0000
