data_image0
_chemical_formula_structural       Cu4H24C18N16O6
_chemical_formula_sum              "Cu4 H24 C18 N16 O6"
_cell_length_a       8.01931
_cell_length_b       8.80787
_cell_length_c       10.6814
_cell_angle_alpha    74.463
_cell_angle_beta     76.5726
_cell_angle_gamma    75.0348

_space_group_name_H-M_alt    "P 1"
_space_group_IT_number       1

loop_
  _space_group_symop_operation_xyz
  'x, y, z'

loop_
  _atom_site_type_symbol
  _atom_site_label
  _atom_site_symmetry_multiplicity
  _atom_site_fract_x
  _atom_site_fract_y
  _atom_site_fract_z
  _atom_site_occupancy
  Cu  Cu1       1.0  0.07761  0.02434  0.83915  1.0000
  Cu  Cu2       1.0  0.92239  0.97566  0.16085  1.0000
  Cu  Cu3       1.0  0.48938  0.87471  0.66363  1.0000
  Cu  Cu4       1.0  0.51062  0.12529  0.33637  1.0000
  H   H1        1.0  0.39318  0.33749  0.89523  1.0000
  H   H2        1.0  0.60681  0.66250  0.10478  1.0000
  H   H3        1.0  0.58796  0.29560  0.77543  1.0000
  H   H4        1.0  0.41204  0.70439  0.22457  1.0000
  H   H5        1.0  0.56283  0.17032  0.93685  1.0000
  H   H6        1.0  0.43717  0.82968  0.06316  1.0000
  H   H7        1.0  0.82038  0.97111  0.75809  1.0000
  H   H8        1.0  0.17962  0.02888  0.24190  1.0000
  H   H9        1.0  0.82521  0.88049  0.91551  1.0000
  H   H10       1.0  0.17478  0.11950  0.08449  1.0000
  H   H11       1.0  0.57334  0.61774  0.58101  1.0000
  H   H12       1.0  0.42666  0.38226  0.41899  1.0000
  H   H13       1.0  0.44816  0.76124  0.48208  1.0000
  H   H14       1.0  0.55184  0.23875  0.51792  1.0000
  H   H15       1.0  0.92217  0.70385  0.73866  1.0000
  H   H16       1.0  0.07783  0.29614  0.26134  1.0000
  H   H17       1.0  0.04269  0.66486  0.86868  1.0000
  H   H18       1.0  0.95731  0.33513  0.13132  1.0000
  H   H19       1.0  0.12375  0.86731  0.58857  1.0000
  H   H20       1.0  0.87625  0.13268  0.41143  1.0000
  H   H21       1.0  0.26015  0.57440  0.60602  1.0000
  H   H22       1.0  0.73986  0.42560  0.39398  1.0000
  H   H23       1.0  0.33771  0.57298  0.75102  1.0000
  H   H24       1.0  0.66229  0.42701  0.24898  1.0000
  C   C1        1.0  0.00242  0.75362  0.78148  1.0000
  C   C2        1.0  0.99758  0.24637  0.21852  1.0000
  C   C3        1.0  0.16342  0.79380  0.68305  1.0000
  C   C4        1.0  0.83657  0.20620  0.31695  1.0000
  C   C5        1.0  0.30350  0.64726  0.65652  1.0000
  C   C6        1.0  0.69650  0.35273  0.34348  1.0000
  C   C7        1.0  0.40968  0.13649  0.81202  1.0000
  C   C8        1.0  0.59032  0.86349  0.18799  1.0000
  C   C9        1.0  0.49317  0.24306  0.85613  1.0000
  C   C10       1.0  0.50683  0.75693  0.14388  1.0000
  C   C11       1.0  0.67098  0.57674  0.88446  1.0000
  C   C12       1.0  0.32903  0.42328  0.11554  1.0000
  C   C13       1.0  0.84124  0.31717  0.92747  1.0000
  C   C14       1.0  0.15879  0.68287  0.07251  1.0000
  C   C15       1.0  0.16110  0.18137  0.51588  1.0000
  C   C16       1.0  0.83889  0.81864  0.48411  1.0000
  C   C17       1.0  0.91343  0.35148  0.60008  1.0000
  C   C18       1.0  0.08656  0.64852  0.39992  1.0000
  N   N1        1.0  0.90144  0.90373  0.82352  1.0000
  N   N2        1.0  0.09856  0.09626  0.17648  1.0000
  N   N3        1.0  0.46065  0.70711  0.57851  1.0000
  N   N4        1.0  0.53935  0.29288  0.42149  1.0000
  N   N5        1.0  0.57412  0.69430  0.84051  1.0000
  N   N6        1.0  0.42587  0.30571  0.15950  1.0000
  N   N7        1.0  0.78210  0.46111  0.94387  1.0000
  N   N8        1.0  0.21793  0.53893  0.05614  1.0000
  N   N9        1.0  0.90341  0.17959  0.92779  1.0000
  N   N10       1.0  0.09660  0.82046  0.07218  1.0000
  N   N11       1.0  0.27341  0.12128  0.43952  1.0000
  N   N12       1.0  0.72659  0.87872  0.56047  1.0000
  N   N13       1.0  0.04194  0.22609  0.61016  1.0000
  N   N14       1.0  0.95805  0.77391  0.38983  1.0000
  N   N15       1.0  0.79033  0.45901  0.60400  1.0000
  N   N16       1.0  0.20966  0.54099  0.39600  1.0000
  O   O1        1.0  0.24205  0.88515  0.73694  1.0000
  O   O2        1.0  0.75794  0.11484  0.26306  1.0000
  O   O3        1.0  0.49281  0.08120  0.71063  1.0000
  O   O4        1.0  0.50719  0.91880  0.28937  1.0000
  O   O5        1.0  0.26381  0.10757  0.88143  1.0000
  O   O6        1.0  0.73619  0.89241  0.11858  1.0000
