data_image0
_chemical_formula_structural       Mn4H16C4Se4N4O12
_chemical_formula_sum              "Mn4 H16 C4 Se4 N4 O12"
_cell_length_a       4.92816
_cell_length_b       6.03035
_cell_length_c       15.2853
_cell_angle_alpha    90.0001
_cell_angle_beta     90.0001
_cell_angle_gamma    89.9999

_space_group_name_H-M_alt    "P 1"
_space_group_IT_number       1

loop_
  _space_group_symop_operation_xyz
  'x, y, z'

loop_
  _atom_site_type_symbol
  _atom_site_label
  _atom_site_symmetry_multiplicity
  _atom_site_fract_x
  _atom_site_fract_y
  _atom_site_fract_z
  _atom_site_occupancy
  Mn  Mn1       1.0  0.83507  1.00000  0.23282  1.0000
  Mn  Mn2       1.0  0.16493  0.00000  0.76718  1.0000
  Mn  Mn3       1.0  0.33507  0.50000  0.26718  1.0000
  Mn  Mn4       1.0  0.66493  0.50000  0.73282  1.0000
  H   H1        1.0  0.41007  0.13635  0.13602  1.0000
  H   H2        1.0  0.58995  0.13637  0.86398  1.0000
  H   H3        1.0  0.91006  0.36363  0.36398  1.0000
  H   H4        1.0  0.08993  0.36364  0.63602  1.0000
  H   H5        1.0  0.58993  0.86364  0.86398  1.0000
  H   H6        1.0  0.41005  0.86363  0.13602  1.0000
  H   H7        1.0  0.08994  0.63636  0.63602  1.0000
  H   H8        1.0  0.91006  0.63636  0.36398  1.0000
  H   H9        1.0  0.74596  0.14637  0.02072  1.0000
  H   H10       1.0  0.25405  0.14639  0.97928  1.0000
  H   H11       1.0  0.24596  0.35362  0.47928  1.0000
  H   H12       1.0  0.75403  0.35363  0.52072  1.0000
  H   H13       1.0  0.25403  0.85363  0.97928  1.0000
  H   H14       1.0  0.74595  0.85361  0.02072  1.0000
  H   H15       1.0  0.75404  0.64639  0.52072  1.0000
  H   H16       1.0  0.24596  0.64638  0.47928  1.0000
  C   C1        1.0  0.61739  0.99999  0.03269  1.0000
  C   C2        1.0  0.38260  0.00001  0.96731  1.0000
  C   C3        1.0  0.11739  0.50000  0.46731  1.0000
  C   C4        1.0  0.88260  0.50001  0.53269  1.0000
  Se  Se1       1.0  0.40750  0.00000  0.37701  1.0000
  Se  Se2       1.0  0.59251  1.00000  0.62299  1.0000
  Se  Se3       1.0  0.90749  0.50000  0.12299  1.0000
  Se  Se4       1.0  0.09251  0.50000  0.87701  1.0000
  N   N1        1.0  0.53017  0.00000  0.12434  1.0000
  N   N2        1.0  0.46982  1.00000  0.87566  1.0000
  N   N3        1.0  0.03018  0.50000  0.37566  1.0000
  N   N4        1.0  0.96982  0.50000  0.62434  1.0000
  O   O1        1.0  0.07151  0.00000  0.35182  1.0000
  O   O2        1.0  0.92849  1.00000  0.64818  1.0000
  O   O3        1.0  0.57151  0.50000  0.14818  1.0000
  O   O4        1.0  0.42850  0.50000  0.85182  1.0000
  O   O5        1.0  0.54635  0.21541  0.31401  1.0000
  O   O6        1.0  0.45365  0.21541  0.68599  1.0000
  O   O7        1.0  0.04635  0.28459  0.18599  1.0000
  O   O8        1.0  0.95365  0.28459  0.81401  1.0000
  O   O9        1.0  0.45365  0.78459  0.68599  1.0000
  O   O10       1.0  0.54635  0.78459  0.31401  1.0000
  O   O11       1.0  0.95365  0.71541  0.81401  1.0000
  O   O12       1.0  0.04635  0.71541  0.18599  1.0000
