data_image0
_chemical_formula_structural       Cd8H32C56N8O36
_chemical_formula_sum              "Cd8 H32 C56 N8 O36"
_cell_length_a       8.3818
_cell_length_b       8.4289
_cell_length_c       21.7473
_cell_angle_alpha    90
_cell_angle_beta     94.1574
_cell_angle_gamma    90

_space_group_name_H-M_alt    "P 1"
_space_group_IT_number       1

loop_
  _space_group_symop_operation_xyz
  'x, y, z'

loop_
  _atom_site_type_symbol
  _atom_site_label
  _atom_site_symmetry_multiplicity
  _atom_site_fract_x
  _atom_site_fract_y
  _atom_site_fract_z
  _atom_site_occupancy
  Cd  Cd1       1.0  0.78113  0.51523  0.86337  1.0000
  Cd  Cd2       1.0  0.71887  0.01523  0.63663  1.0000
  Cd  Cd3       1.0  0.21887  0.48477  0.13663  1.0000
  Cd  Cd4       1.0  0.28113  0.98477  0.36337  1.0000
  Cd  Cd5       1.0  0.87541  0.31342  0.51791  1.0000
  Cd  Cd6       1.0  0.62459  0.81342  0.98209  1.0000
  Cd  Cd7       1.0  0.12459  0.68658  0.48209  1.0000
  Cd  Cd8       1.0  0.37541  0.18658  0.01791  1.0000
  H   H1        1.0  0.95520  0.04591  0.44298  1.0000
  H   H2        1.0  0.54480  0.54591  0.05702  1.0000
  H   H3        1.0  0.04480  0.95409  0.55702  1.0000
  H   H4        1.0  0.45520  0.45409  0.94298  1.0000
  H   H5        1.0  0.78982  0.99116  0.46966  1.0000
  H   H6        1.0  0.71018  0.49116  0.03034  1.0000
  H   H7        1.0  0.21018  0.00884  0.53034  1.0000
  H   H8        1.0  0.28982  0.50884  0.96966  1.0000
  H   H9        1.0  0.29365  0.25885  0.70077  1.0000
  H   H10       1.0  0.20634  0.75885  0.79923  1.0000
  H   H11       1.0  0.70635  0.74115  0.29923  1.0000
  H   H12       1.0  0.79365  0.24115  0.20077  1.0000
  H   H13       1.0  0.38415  0.35865  0.80604  1.0000
  H   H14       1.0  0.11585  0.85865  0.69396  1.0000
  H   H15       1.0  0.61585  0.64135  0.19396  1.0000
  H   H16       1.0  0.88415  0.14135  0.30604  1.0000
  H   H17       1.0  0.17571  0.45874  0.87431  1.0000
  H   H18       1.0  0.32429  0.95874  0.62569  1.0000
  H   H19       1.0  0.82429  0.54126  0.12569  1.0000
  H   H20       1.0  0.67571  0.04126  0.37431  1.0000
  H   H21       1.0  0.24016  0.96093  0.14378  1.0000
  H   H22       1.0  0.25984  0.46093  0.35622  1.0000
  H   H23       1.0  0.75984  0.03907  0.85622  1.0000
  H   H24       1.0  0.74016  0.53907  0.64378  1.0000
  H   H25       1.0  0.97859  0.06188  0.17536  1.0000
  H   H26       1.0  0.52141  0.56188  0.32464  1.0000
  H   H27       1.0  0.02141  0.93812  0.82464  1.0000
  H   H28       1.0  0.47859  0.43813  0.67536  1.0000
  H   H29       1.0  0.72915  0.00496  0.10558  1.0000
  H   H30       1.0  0.77085  0.50496  0.39442  1.0000
  H   H31       1.0  0.27085  0.99504  0.89442  1.0000
  H   H32       1.0  0.22915  0.49504  0.60558  1.0000
  C   C1        1.0  0.93421  0.34116  0.75662  1.0000
  C   C2        1.0  0.56579  0.84116  0.74338  1.0000
  C   C3        1.0  0.06579  0.65884  0.24338  1.0000
  C   C4        1.0  0.43421  0.15884  0.25662  1.0000
  C   C5        1.0  0.04324  0.29736  0.71361  1.0000
  C   C6        1.0  0.45676  0.79736  0.78639  1.0000
  C   C7        1.0  0.95676  0.70264  0.28639  1.0000
  C   C8        1.0  0.54324  0.20264  0.21361  1.0000
  C   C9        1.0  0.20675  0.29884  0.73242  1.0000
  C   C10       1.0  0.29325  0.79884  0.76758  1.0000
  C   C11       1.0  0.79326  0.70116  0.26758  1.0000
  C   C12       1.0  0.70675  0.20116  0.23242  1.0000
  C   C13       1.0  0.25739  0.35338  0.79097  1.0000
  C   C14       1.0  0.24261  0.85338  0.70903  1.0000
  C   C15       1.0  0.74261  0.64662  0.20903  1.0000
  C   C16       1.0  0.75739  0.14662  0.29097  1.0000
  C   C17       1.0  0.14233  0.40804  0.82916  1.0000
  C   C18       1.0  0.35768  0.90804  0.67084  1.0000
  C   C19       1.0  0.85768  0.59197  0.17084  1.0000
  C   C20       1.0  0.64232  0.09197  0.32916  1.0000
  C   C21       1.0  0.75435  0.32114  0.74350  1.0000
  C   C22       1.0  0.74565  0.82115  0.75650  1.0000
  C   C23       1.0  0.24565  0.67885  0.25650  1.0000
  C   C24       1.0  0.25435  0.17885  0.24350  1.0000
  C   C25       1.0  0.99228  0.26466  0.64693  1.0000
  C   C26       1.0  0.50772  0.76466  0.85307  1.0000
  C   C27       1.0  0.00772  0.73534  0.35307  1.0000
  C   C28       1.0  0.49228  0.23534  0.14693  1.0000
  C   C29       1.0  0.99084  0.81143  0.02780  1.0000
  C   C30       1.0  0.50916  0.31143  0.47220  1.0000
  C   C31       1.0  0.00916  0.18857  0.97220  1.0000
  C   C32       1.0  0.49084  0.68857  0.52780  1.0000
  C   C33       1.0  0.13451  0.84342  0.06275  1.0000
  C   C34       1.0  0.36549  0.34342  0.43725  1.0000
  C   C35       1.0  0.86549  0.15658  0.93725  1.0000
  C   C36       1.0  0.63451  0.65658  0.56275  1.0000
  C   C37       1.0  0.12935  0.93432  0.11647  1.0000
  C   C38       1.0  0.37065  0.43432  0.38353  1.0000
  C   C39       1.0  0.87065  0.06568  0.88353  1.0000
  C   C40       1.0  0.62935  0.56569  0.61647  1.0000
  C   C41       1.0  0.98365  0.99139  0.13364  1.0000
  C   C42       1.0  0.51635  0.49138  0.36636  1.0000
  C   C43       1.0  0.01635  0.00861  0.86636  1.0000
  C   C44       1.0  0.48365  0.50862  0.63364  1.0000
  C   C45       1.0  0.84643  0.95944  0.09564  1.0000
  C   C46       1.0  0.65357  0.45944  0.40436  1.0000
  C   C47       1.0  0.15357  0.04056  0.90436  1.0000
  C   C48       1.0  0.34643  0.54056  0.59564  1.0000
  C   C49       1.0  0.98626  0.70539  0.97110  1.0000
  C   C50       1.0  0.51374  0.20538  0.52890  1.0000
  C   C51       1.0  0.01374  0.29461  0.02890  1.0000
  C   C52       1.0  0.48626  0.79461  0.47110  1.0000
  C   C53       1.0  0.29492  0.78251  0.04686  1.0000
  C   C54       1.0  0.20508  0.28251  0.45314  1.0000
  C   C55       1.0  0.70508  0.21749  0.95314  1.0000
  C   C56       1.0  0.79492  0.71749  0.54686  1.0000
  N   N1        1.0  0.98547  0.39923  0.81241  1.0000
  N   N2        1.0  0.51453  0.89923  0.68759  1.0000
  N   N3        1.0  0.01453  0.60077  0.18759  1.0000
  N   N4        1.0  0.48547  0.10077  0.31241  1.0000
  N   N5        1.0  0.85150  0.87221  0.04426  1.0000
  N   N6        1.0  0.64850  0.37221  0.45574  1.0000
  N   N7        1.0  0.14850  0.12779  0.95574  1.0000
  N   N8        1.0  0.35150  0.62779  0.54426  1.0000
  O   O1        1.0  0.66180  0.37936  0.78139  1.0000
  O   O2        1.0  0.83820  0.87936  0.71862  1.0000
  O   O3        1.0  0.33820  0.62064  0.21862  1.0000
  O   O4        1.0  0.16180  0.12064  0.28138  1.0000
  O   O5        1.0  0.85687  0.08242  0.46037  1.0000
  O   O6        1.0  0.64313  0.58242  0.03963  1.0000
  O   O7        1.0  0.14313  0.91758  0.53963  1.0000
  O   O8        1.0  0.35687  0.41758  0.96037  1.0000
  O   O9        1.0  0.70620  0.24731  0.69509  1.0000
  O   O10       1.0  0.79380  0.74731  0.80492  1.0000
  O   O11       1.0  0.29380  0.75269  0.30492  1.0000
  O   O12       1.0  0.20620  0.25269  0.19508  1.0000
  O   O13       1.0  0.98320  0.12433  0.62644  1.0000
  O   O14       1.0  0.51680  0.62433  0.87356  1.0000
  O   O15       1.0  0.01681  0.87567  0.37356  1.0000
  O   O16       1.0  0.48320  0.37567  0.12644  1.0000
  O   O17       1.0  0.96946  0.38941  0.61411  1.0000
  O   O18       1.0  0.53054  0.88941  0.88589  1.0000
  O   O19       1.0  0.03054  0.61059  0.38589  1.0000
  O   O20       1.0  0.46946  0.11059  0.11411  1.0000
  O   O21       1.0  0.84790  0.68699  0.94192  1.0000
  O   O22       1.0  0.65211  0.18699  0.55808  1.0000
  O   O23       1.0  0.15211  0.31301  0.05808  1.0000
  O   O24       1.0  0.34789  0.81301  0.44192  1.0000
  O   O25       1.0  0.11279  0.64221  0.95651  1.0000
  O   O26       1.0  0.38721  0.14220  0.54349  1.0000
  O   O27       1.0  0.88721  0.35779  0.04349  1.0000
  O   O28       1.0  0.61279  0.85779  0.45651  1.0000
  O   O29       1.0  0.37901  0.87352  0.01518  1.0000
  O   O30       1.0  0.12099  0.37352  0.48482  1.0000
  O   O31       1.0  0.62099  0.12647  0.98482  1.0000
  O   O32       1.0  0.87901  0.62647  0.51518  1.0000
  O   O33       1.0  0.34089  0.65070  0.06950  1.0000
  O   O34       1.0  0.15911  0.15070  0.43050  1.0000
  O   O35       1.0  0.65911  0.34930  0.93050  1.0000
  O   O36       1.0  0.84089  0.84930  0.56950  1.0000
