data_image0
_chemical_formula_structural       Cu2H34C36N4O14
_chemical_formula_sum              "Cu2 H34 C36 N4 O14"
_cell_length_a       7.49712
_cell_length_b       9.6775
_cell_length_c       13.2816
_cell_angle_alpha    69.1367
_cell_angle_beta     89.4676
_cell_angle_gamma    73.6487

_space_group_name_H-M_alt    "P 1"
_space_group_IT_number       1

loop_
  _space_group_symop_operation_xyz
  'x, y, z'

loop_
  _atom_site_type_symbol
  _atom_site_label
  _atom_site_symmetry_multiplicity
  _atom_site_fract_x
  _atom_site_fract_y
  _atom_site_fract_z
  _atom_site_occupancy
  Cu  Cu1       1.0  0.73733  0.83921  0.81775  1.0000
  Cu  Cu2       1.0  0.26267  0.16079  0.18225  1.0000
  H   H1        1.0  0.53449  0.83408  0.02837  1.0000
  H   H2        1.0  0.46551  0.16592  0.97163  1.0000
  H   H3        1.0  0.50475  0.61819  0.19531  1.0000
  H   H4        1.0  0.49525  0.38181  0.80470  1.0000
  H   H5        1.0  0.64275  0.34453  0.21084  1.0000
  H   H6        1.0  0.35725  0.65548  0.78916  1.0000
  H   H7        1.0  0.82313  0.15644  0.12054  1.0000
  H   H8        1.0  0.17686  0.84356  0.87946  1.0000
  H   H9        1.0  0.98303  0.12095  0.96330  1.0000
  H   H10       1.0  0.01697  0.87905  0.03670  1.0000
  H   H11       1.0  0.08898  0.24061  0.77600  1.0000
  H   H12       1.0  0.91102  0.75939  0.22400  1.0000
  H   H13       1.0  0.10263  0.48349  0.62650  1.0000
  H   H14       1.0  0.89738  0.51650  0.37351  1.0000
  H   H15       1.0  0.95757  0.74000  0.64338  1.0000
  H   H16       1.0  0.04243  0.26000  0.35662  1.0000
  H   H17       1.0  0.15735  0.91524  0.60419  1.0000
  H   H18       1.0  0.84265  0.08476  0.39581  1.0000
  H   H19       1.0  0.24631  0.06237  0.52114  1.0000
  H   H20       1.0  0.75369  0.93764  0.47886  1.0000
  H   H21       1.0  0.02459  0.25083  0.59797  1.0000
  H   H22       1.0  0.97541  0.74917  0.40204  1.0000
  H   H23       1.0  0.91423  0.18526  0.51558  1.0000
  H   H24       1.0  0.08577  0.81475  0.48442  1.0000
  H   H25       1.0  0.47255  0.03974  0.82072  1.0000
  H   H26       1.0  0.52745  0.96026  0.17927  1.0000
  H   H27       1.0  0.65647  0.10294  0.79930  1.0000
  H   H28       1.0  0.34352  0.89707  0.20069  1.0000
  H   H29       1.0  0.70112  0.48105  0.53963  1.0000
  H   H30       1.0  0.29889  0.51894  0.46037  1.0000
  H   H31       1.0  0.57390  0.62610  0.41914  1.0000
  H   H32       1.0  0.42610  0.37390  0.58086  1.0000
  H   H33       1.0  0.52670  0.81092  0.61264  1.0000
  H   H34       1.0  0.47330  0.18907  0.38736  1.0000
  C   C1        1.0  0.59342  0.71336  0.03678  1.0000
  C   C2        1.0  0.40658  0.28664  0.96322  1.0000
  C   C3        1.0  0.57722  0.59142  0.13002  1.0000
  C   C4        1.0  0.42278  0.40858  0.86999  1.0000
  C   C5        1.0  0.65364  0.43932  0.13827  1.0000
  C   C6        1.0  0.34636  0.56068  0.86174  1.0000
  C   C7        1.0  0.74799  0.40848  0.05247  1.0000
  C   C8        1.0  0.25201  0.59152  0.94753  1.0000
  C   C9        1.0  0.83217  0.25638  0.05119  1.0000
  C   C10       1.0  0.16782  0.74363  0.94881  1.0000
  C   C11       1.0  0.91982  0.23663  0.96413  1.0000
  C   C12       1.0  0.08018  0.76337  0.03587  1.0000
  C   C13       1.0  0.93265  0.36604  0.87190  1.0000
  C   C14       1.0  0.06734  0.63396  0.12810  1.0000
  C   C15       1.0  0.02259  0.35415  0.78000  1.0000
  C   C16       1.0  0.97741  0.64584  0.22000  1.0000
  C   C17       1.0  0.02963  0.48774  0.69700  1.0000
  C   C18       1.0  0.97037  0.51225  0.30301  1.0000
  C   C19       1.0  0.94955  0.63274  0.70518  1.0000
  C   C20       1.0  0.05046  0.36726  0.29482  1.0000
  C   C21       1.0  0.85312  0.51645  0.87259  1.0000
  C   C22       1.0  0.14688  0.48355  0.12741  1.0000
  C   C23       1.0  0.75884  0.53813  0.96215  1.0000
  C   C24       1.0  0.24116  0.46188  0.03785  1.0000
  C   C25       1.0  0.32641  0.98861  0.68875  1.0000
  C   C26       1.0  0.67359  0.01139  0.31125  1.0000
  C   C27       1.0  0.18130  0.02527  0.59673  1.0000
  C   C28       1.0  0.81870  0.97473  0.40326  1.0000
  C   C29       1.0  0.99908  0.14704  0.59323  1.0000
  C   C30       1.0  0.00092  0.85296  0.40677  1.0000
  C   C31       1.0  0.87331  0.09376  0.67987  1.0000
  C   C32       1.0  0.12668  0.90625  0.32013  1.0000
  C   C33       1.0  0.47972  0.65405  0.56404  1.0000
  C   C34       1.0  0.52030  0.34594  0.43595  1.0000
  C   C35       1.0  0.55903  0.55158  0.50142  1.0000
  C   C36       1.0  0.44098  0.44842  0.49857  1.0000
  N   N1        1.0  0.68265  0.68691  0.95512  1.0000
  N   N2        1.0  0.31735  0.31309  0.04488  1.0000
  N   N3        1.0  0.86371  0.64603  0.79078  1.0000
  N   N4        1.0  0.13629  0.35397  0.20922  1.0000
  O   O1        1.0  0.48583  0.89084  0.69319  1.0000
  O   O2        1.0  0.51417  0.10916  0.30681  1.0000
  O   O3        1.0  0.28701  0.05285  0.75775  1.0000
  O   O4        1.0  0.71300  0.94715  0.24224  1.0000
  O   O5        1.0  0.88466  0.94873  0.71231  1.0000
  O   O6        1.0  0.11534  0.05127  0.28769  1.0000
  O   O7        1.0  0.76370  0.19176  0.71188  1.0000
  O   O8        1.0  0.23629  0.80825  0.28812  1.0000
  O   O9        1.0  0.60349  0.02231  0.85434  1.0000
  O   O10       1.0  0.39651  0.97769  0.14566  1.0000
  O   O11       1.0  0.33902  0.64879  0.61275  1.0000
  O   O12       1.0  0.66097  0.35120  0.38725  1.0000
  O   O13       1.0  0.57785  0.74987  0.56229  1.0000
  O   O14       1.0  0.42216  0.25012  0.43771  1.0000
