data_image0
_chemical_formula_structural       CdH28C28N8Cl2
_chemical_formula_sum              "Cd1 H28 C28 N8 Cl2"
_cell_length_a       7.77257
_cell_length_b       8.79065
_cell_length_c       11.1297
_cell_angle_alpha    106.76
_cell_angle_beta     91.1163
_cell_angle_gamma    108.638

_space_group_name_H-M_alt    "P 1"
_space_group_IT_number       1

loop_
  _space_group_symop_operation_xyz
  'x, y, z'

loop_
  _atom_site_type_symbol
  _atom_site_label
  _atom_site_symmetry_multiplicity
  _atom_site_fract_x
  _atom_site_fract_y
  _atom_site_fract_z
  _atom_site_occupancy
  Cd  Cd1       1.0  1.00000  1.00000  0.00000  1.0000
  H   H1        1.0  0.65919  0.18002  0.13008  1.0000
  H   H2        1.0  0.34081  0.81998  0.86992  1.0000
  H   H3        1.0  0.13739  0.18279  0.31919  1.0000
  H   H4        1.0  0.86261  0.81722  0.68081  1.0000
  H   H5        1.0  0.95667  0.35407  0.49366  1.0000
  H   H6        1.0  0.04333  0.64594  0.50634  1.0000
  H   H7        1.0  0.53939  0.34547  0.29484  1.0000
  H   H8        1.0  0.46061  0.65452  0.70515  1.0000
  H   H9        1.0  0.70582  0.50455  0.41807  1.0000
  H   H10       1.0  0.29417  0.49545  0.58192  1.0000
  H   H11       1.0  0.34361  0.07995  0.33262  1.0000
  H   H12       1.0  0.65638  0.92005  0.66738  1.0000
  H   H13       1.0  0.18345  0.95581  0.49131  1.0000
  H   H14       1.0  0.81655  0.04420  0.50869  1.0000
  H   H15       1.0  0.29991  0.09000  0.72029  1.0000
  H   H16       1.0  0.70010  0.91000  0.27971  1.0000
  H   H17       1.0  0.72123  0.48453  0.63302  1.0000
  H   H18       1.0  0.27877  0.51547  0.36697  1.0000
  H   H19       1.0  0.64404  0.50861  0.85822  1.0000
  H   H20       1.0  0.35597  0.49139  0.14178  1.0000
  H   H21       1.0  0.50407  0.32310  0.89013  1.0000
  H   H22       1.0  0.49593  0.67690  0.10987  1.0000
  H   H23       1.0  0.63847  0.10453  0.90825  1.0000
  H   H24       1.0  0.36154  0.89547  0.09175  1.0000
  H   H25       1.0  0.98003  0.52057  0.80893  1.0000
  H   H26       1.0  0.01997  0.47942  0.19107  1.0000
  H   H27       1.0  0.18909  0.33909  0.86646  1.0000
  H   H28       1.0  0.81090  0.66091  0.13355  1.0000
  C   C1        1.0  0.76898  0.20282  0.20214  1.0000
  C   C2        1.0  0.23102  0.79717  0.79786  1.0000
  C   C3        1.0  0.01256  0.20849  0.30519  1.0000
  C   C4        1.0  0.98745  0.79152  0.69481  1.0000
  C   C5        1.0  0.92615  0.29477  0.39230  1.0000
  C   C6        1.0  0.07384  0.70523  0.60770  1.0000
  C   C7        1.0  0.63657  0.36764  0.37629  1.0000
  C   C8        1.0  0.36342  0.63236  0.62371  1.0000
  C   C9        1.0  0.54112  0.29185  0.47271  1.0000
  C   C10       1.0  0.45887  0.70815  0.52729  1.0000
  C   C11       1.0  0.39063  0.14166  0.43340  1.0000
  C   C12       1.0  0.60936  0.85833  0.56660  1.0000
  C   C13       1.0  0.30230  0.07116  0.52227  1.0000
  C   C14       1.0  0.69770  0.92884  0.47773  1.0000
  C   C15       1.0  0.36768  0.14635  0.65082  1.0000
  C   C16       1.0  0.63232  0.85366  0.34918  1.0000
  C   C17       1.0  0.52151  0.29343  0.69117  1.0000
  C   C18       1.0  0.47850  0.70657  0.30882  1.0000
  C   C19       1.0  0.60464  0.36680  0.60146  1.0000
  C   C20       1.0  0.39536  0.63320  0.39853  1.0000
  C   C21       1.0  0.60249  0.36993  0.82842  1.0000
  C   C22       1.0  0.39752  0.63007  0.17158  1.0000
  C   C23       1.0  0.76164  0.19016  0.88821  1.0000
  C   C24       1.0  0.23837  0.80984  0.11179  1.0000
  C   C25       1.0  0.94193  0.40547  0.83469  1.0000
  C   C26       1.0  0.05807  0.59452  0.16530  1.0000
  C   C27       1.0  0.04300  0.31478  0.86379  1.0000
  C   C28       1.0  0.95701  0.68522  0.13621  1.0000
  N   N1        1.0  0.91360  0.15213  0.18744  1.0000
  N   N2        1.0  0.08640  0.84787  0.81256  1.0000
  N   N3        1.0  0.77259  0.29094  0.32519  1.0000
  N   N4        1.0  0.22741  0.70906  0.67481  1.0000
  N   N5        1.0  0.76393  0.32512  0.85143  1.0000
  N   N6        1.0  0.23607  0.67488  0.14857  1.0000
  N   N7        1.0  0.92898  0.18062  0.89693  1.0000
  N   N8        1.0  0.07102  0.81938  0.10307  1.0000
  Cl  Cl1       1.0  0.64760  0.80481  0.93514  1.0000
  Cl  Cl2       1.0  0.35239  0.19519  0.06486  1.0000
