data_image0
_chemical_formula_structural       Cd3H28C18Se6N14O2
_chemical_formula_sum              "Cd3 H28 C18 Se6 N14 O2"
_cell_length_a       6.02642
_cell_length_b       8.87536
_cell_length_c       16.1071
_cell_angle_alpha    100.223
_cell_angle_beta     97.1778
_cell_angle_gamma    101.154

_space_group_name_H-M_alt    "P 1"
_space_group_IT_number       1

loop_
  _space_group_symop_operation_xyz
  'x, y, z'

loop_
  _atom_site_type_symbol
  _atom_site_label
  _atom_site_symmetry_multiplicity
  _atom_site_fract_x
  _atom_site_fract_y
  _atom_site_fract_z
  _atom_site_occupancy
  Cd  Cd1       1.0  0.00001  0.49998  1.00000  1.0000
  Cd  Cd2       1.0  0.91965  0.16756  0.32176  1.0000
  Cd  Cd3       1.0  0.08035  0.83244  0.67825  1.0000
  H   H1        1.0  0.94595  0.84649  0.34044  1.0000
  H   H2        1.0  0.05407  0.15352  0.65956  1.0000
  H   H3        1.0  0.82548  0.91001  0.41826  1.0000
  H   H4        1.0  0.17452  0.08998  0.58175  1.0000
  H   H5        1.0  0.81123  0.37749  0.17206  1.0000
  H   H6        1.0  0.18877  0.62251  0.82795  1.0000
  H   H7        1.0  0.06191  0.30578  0.15549  1.0000
  H   H8        1.0  0.93807  0.69422  0.84452  1.0000
  H   H9        1.0  0.38571  0.36498  0.27010  1.0000
  H   H10       1.0  0.61429  0.63501  0.72990  1.0000
  H   H11       1.0  0.37270  0.48070  0.37172  1.0000
  H   H12       1.0  0.62731  0.51930  0.62829  1.0000
  H   H13       1.0  0.40187  0.84388  0.29651  1.0000
  H   H14       1.0  0.59815  0.15611  0.70349  1.0000
  H   H15       1.0  0.38335  0.75388  0.38700  1.0000
  H   H16       1.0  0.61667  0.24613  0.61300  1.0000
  H   H17       1.0  0.07718  0.78676  0.18343  1.0000
  H   H18       1.0  0.92283  0.21324  0.81657  1.0000
  H   H19       1.0  0.82039  0.65281  0.18865  1.0000
  H   H20       1.0  0.17962  0.34720  0.81135  1.0000
  H   H21       1.0  0.79450  0.53377  0.31145  1.0000
  H   H22       1.0  0.20552  0.46625  0.68855  1.0000
  H   H23       1.0  0.03720  0.57322  0.39517  1.0000
  H   H24       1.0  0.96282  0.42680  0.60483  1.0000
  H   H25       1.0  0.41167  0.48556  0.14886  1.0000
  H   H26       1.0  0.58833  0.51443  0.85114  1.0000
  H   H27       1.0  0.41910  0.69139  0.16066  1.0000
  H   H28       1.0  0.58090  0.30860  0.83933  1.0000
  C   C1        1.0  0.44831  0.29886  0.00350  1.0000
  C   C2        1.0  0.55166  0.70110  0.99649  1.0000
  C   C3        1.0  0.35642  0.07020  0.21619  1.0000
  C   C4        1.0  0.64353  0.92982  0.78381  1.0000
  C   C5        1.0  0.50105  0.25323  0.43821  1.0000
  C   C6        1.0  0.49894  0.74676  0.56179  1.0000
  C   C7        1.0  0.99872  0.40419  0.18845  1.0000
  C   C8        1.0  0.00128  0.59582  0.81155  1.0000
  C   C9        1.0  0.32236  0.46380  0.30227  1.0000
  C   C10       1.0  0.67764  0.53620  0.69773  1.0000
  C   C11       1.0  0.33067  0.73664  0.31762  1.0000
  C   C12       1.0  0.66935  0.26336  0.68237  1.0000
  C   C13       1.0  0.00805  0.67890  0.20430  1.0000
  C   C14       1.0  0.99196  0.32111  0.79570  1.0000
  C   C15       1.0  0.98247  0.55743  0.32587  1.0000
  C   C16       1.0  0.01755  0.44259  0.67413  1.0000
  C   C17       1.0  0.34876  0.58403  0.18218  1.0000
  C   C18       1.0  0.65123  0.41596  0.81782  1.0000
  Se  Se1       1.0  0.14922  0.20964  0.99301  1.0000
  Se  Se2       1.0  0.85078  0.79034  0.00696  1.0000
  Se  Se3       1.0  0.60540  0.04346  0.16962  1.0000
  Se  Se4       1.0  0.39458  0.95657  0.83038  1.0000
  Se  Se5       1.0  0.24442  0.27735  0.48029  1.0000
  Se  Se6       1.0  0.75558  0.72265  0.51972  1.0000
  N   N1        1.0  0.64540  0.35628  0.01139  1.0000
  N   N2        1.0  0.35458  0.64371  0.98862  1.0000
  N   N3        1.0  0.18894  0.08142  0.24549  1.0000
  N   N4        1.0  0.81105  0.91859  0.75451  1.0000
  N   N5        1.0  0.67133  0.24354  0.41071  1.0000
  N   N6        1.0  0.32866  0.75644  0.58929  1.0000
  N   N7        1.0  0.09403  0.54755  0.15838  1.0000
  N   N8        1.0  0.90596  0.45246  0.84162  1.0000
  N   N9        1.0  0.06610  0.42294  0.28205  1.0000
  N   N10       1.0  0.93390  0.57706  0.71796  1.0000
  N   N11       1.0  0.41931  0.60635  0.27440  1.0000
  N   N12       1.0  0.58070  0.39364  0.72559  1.0000
  N   N13       1.0  0.07642  0.70286  0.29786  1.0000
  N   N14       1.0  0.92360  0.29715  0.70214  1.0000
  O   O1        1.0  0.85219  0.92482  0.36119  1.0000
  O   O2        1.0  0.14782  0.07518  0.63882  1.0000
