data_image0
_chemical_formula_structural       Ag4H40C52S4N12O16
_chemical_formula_sum              "Ag4 H40 C52 S4 N12 O16"
_cell_length_a       6.976
_cell_length_b       8.41859
_cell_length_c       24.4217
_cell_angle_alpha    90.0001
_cell_angle_beta     89.9998
_cell_angle_gamma    110.009

_space_group_name_H-M_alt    "P 1"
_space_group_IT_number       1

loop_
  _space_group_symop_operation_xyz
  'x, y, z'

loop_
  _atom_site_type_symbol
  _atom_site_label
  _atom_site_symmetry_multiplicity
  _atom_site_fract_x
  _atom_site_fract_y
  _atom_site_fract_z
  _atom_site_occupancy
  Ag  Ag1       1.0  0.60148  0.62130  0.45446  1.0000
  Ag  Ag2       1.0  0.89852  0.87870  0.95446  1.0000
  Ag  Ag3       1.0  0.39852  0.37870  0.54554  1.0000
  Ag  Ag4       1.0  0.10148  0.12130  0.04554  1.0000
  H   H1        1.0  0.44199  0.11797  0.24810  1.0000
  H   H2        1.0  0.05802  0.38203  0.74809  1.0000
  H   H3        1.0  0.55801  0.88203  0.75191  1.0000
  H   H4        1.0  0.94199  0.61797  0.25190  1.0000
  H   H5        1.0  0.32452  0.80634  0.26012  1.0000
  H   H6        1.0  0.17548  0.69366  0.76012  1.0000
  H   H7        1.0  0.67548  0.19367  0.73988  1.0000
  H   H8        1.0  0.82453  0.30634  0.23988  1.0000
  H   H9        1.0  0.26484  0.67843  0.35265  1.0000
  H   H10       1.0  0.23515  0.82157  0.85265  1.0000
  H   H11       1.0  0.73516  0.32157  0.64735  1.0000
  H   H12       1.0  0.76485  0.17843  0.14735  1.0000
  H   H13       1.0  0.31587  0.86174  0.43630  1.0000
  H   H14       1.0  0.18413  0.63826  0.93630  1.0000
  H   H15       1.0  0.68412  0.13826  0.56370  1.0000
  H   H16       1.0  0.81588  0.36174  0.06370  1.0000
  H   H17       1.0  0.84089  0.99803  0.47759  1.0000
  H   H18       1.0  0.65911  0.50197  0.97759  1.0000
  H   H19       1.0  0.15911  0.00196  0.52241  1.0000
  H   H20       1.0  0.34089  0.49803  0.02241  1.0000
  H   H21       1.0  0.03898  0.30141  0.33249  1.0000
  H   H22       1.0  0.46102  0.19859  0.83248  1.0000
  H   H23       1.0  0.96102  0.69859  0.66752  1.0000
  H   H24       1.0  0.53897  0.80141  0.16751  1.0000
  H   H25       1.0  0.92437  0.03206  0.27790  1.0000
  H   H26       1.0  0.57563  0.46794  0.77790  1.0000
  H   H27       1.0  0.07563  0.96794  0.72210  1.0000
  H   H28       1.0  0.42437  0.53206  0.22210  1.0000
  H   H29       1.0  0.76713  0.75857  0.32706  1.0000
  H   H30       1.0  0.73288  0.74143  0.82706  1.0000
  H   H31       1.0  0.23288  0.24143  0.67294  1.0000
  H   H32       1.0  0.26713  0.25857  0.17294  1.0000
  H   H33       1.0  0.00802  0.56190  0.45308  1.0000
  H   H34       1.0  0.49197  0.93810  0.95308  1.0000
  H   H35       1.0  0.99197  0.43810  0.54692  1.0000
  H   H36       1.0  0.50802  0.06190  0.04691  1.0000
  H   H37       1.0  0.93964  0.46919  0.38829  1.0000
  H   H38       1.0  0.56036  0.03081  0.88829  1.0000
  H   H39       1.0  0.06036  0.53081  0.61171  1.0000
  H   H40       1.0  0.43964  0.96919  0.11171  1.0000
  C   C1        1.0  0.44780  0.16074  0.33593  1.0000
  C   C2        1.0  0.05220  0.33927  0.83593  1.0000
  C   C3        1.0  0.55219  0.83927  0.66407  1.0000
  C   C4        1.0  0.94780  0.66073  0.16407  1.0000
  C   C5        1.0  0.41742  0.06299  0.28894  1.0000
  C   C6        1.0  0.08258  0.43701  0.78893  1.0000
  C   C7        1.0  0.58258  0.93701  0.71107  1.0000
  C   C8        1.0  0.91743  0.56299  0.21106  1.0000
  C   C9        1.0  0.34947  0.88736  0.29613  1.0000
  C   C10       1.0  0.15053  0.61264  0.79612  1.0000
  C   C11       1.0  0.65053  0.11264  0.70388  1.0000
  C   C12       1.0  0.84948  0.38736  0.20387  1.0000
  C   C13       1.0  0.31347  0.81534  0.34842  1.0000
  C   C14       1.0  0.18652  0.68466  0.84842  1.0000
  C   C15       1.0  0.68652  0.18467  0.65158  1.0000
  C   C16       1.0  0.81348  0.31533  0.15158  1.0000
  C   C17       1.0  0.34356  0.91656  0.39536  1.0000
  C   C18       1.0  0.15644  0.58344  0.89536  1.0000
  C   C19       1.0  0.65644  0.08344  0.60464  1.0000
  C   C20       1.0  0.84357  0.41656  0.10464  1.0000
  C   C21       1.0  0.41218  0.09130  0.38855  1.0000
  C   C22       1.0  0.08782  0.40870  0.88855  1.0000
  C   C23       1.0  0.58782  0.90870  0.61145  1.0000
  C   C24       1.0  0.91218  0.59130  0.11145  1.0000
  C   C25       1.0  0.45204  0.22508  0.43146  1.0000
  C   C26       1.0  0.04796  0.27492  0.93146  1.0000
  C   C27       1.0  0.54796  0.77492  0.56854  1.0000
  C   C28       1.0  0.95204  0.72508  0.06854  1.0000
  C   C29       1.0  0.86235  0.00967  0.43349  1.0000
  C   C30       1.0  0.63765  0.49034  0.93349  1.0000
  C   C31       1.0  0.13765  0.99034  0.56651  1.0000
  C   C32       1.0  0.36235  0.50967  0.06650  1.0000
  C   C33       1.0  0.94614  0.16958  0.40963  1.0000
  C   C34       1.0  0.55385  0.33042  0.90963  1.0000
  C   C35       1.0  0.05385  0.83042  0.59037  1.0000
  C   C36       1.0  0.44614  0.66958  0.09037  1.0000
  C   C37       1.0  0.96926  0.17991  0.35267  1.0000
  C   C38       1.0  0.53074  0.32009  0.85267  1.0000
  C   C39       1.0  0.03074  0.82009  0.64733  1.0000
  C   C40       1.0  0.46926  0.67991  0.14733  1.0000
  C   C41       1.0  0.90742  0.03099  0.32228  1.0000
  C   C42       1.0  0.59258  0.46901  0.82228  1.0000
  C   C43       1.0  0.09258  0.96901  0.67772  1.0000
  C   C44       1.0  0.40742  0.53099  0.17772  1.0000
  C   C45       1.0  0.82087  0.87758  0.34954  1.0000
  C   C46       1.0  0.67914  0.62242  0.84954  1.0000
  C   C47       1.0  0.17914  0.12242  0.65046  1.0000
  C   C48       1.0  0.32087  0.37758  0.15046  1.0000
  C   C49       1.0  0.99897  0.31873  0.44694  1.0000
  C   C50       1.0  0.50103  0.18127  0.94694  1.0000
  C   C51       1.0  0.00103  0.68127  0.55306  1.0000
  C   C52       1.0  0.49897  0.81873  0.05306  1.0000
  S   S1        1.0  0.53156  0.38341  0.34302  1.0000
  S   S2        1.0  0.96845  0.11659  0.84302  1.0000
  S   S3        1.0  0.46845  0.61659  0.65698  1.0000
  S   S4        1.0  0.03155  0.88340  0.15698  1.0000
  N   N1        1.0  0.50341  0.38333  0.40998  1.0000
  N   N2        1.0  0.99659  0.11667  0.90997  1.0000
  N   N3        1.0  0.49659  0.61667  0.59003  1.0000
  N   N4        1.0  0.00340  0.88333  0.09003  1.0000
  N   N5        1.0  0.79765  0.86626  0.40430  1.0000
  N   N6        1.0  0.70235  0.63374  0.90430  1.0000
  N   N7        1.0  0.20235  0.13374  0.59570  1.0000
  N   N8        1.0  0.29765  0.36626  0.09570  1.0000
  N   N9        1.0  0.00519  0.46718  0.42559  1.0000
  N   N10       1.0  0.49481  0.03282  0.92559  1.0000
  N   N11       1.0  0.99481  0.53282  0.57441  1.0000
  N   N12       1.0  0.50518  0.96717  0.07441  1.0000
  O   O1        1.0  0.39829  0.45737  0.31526  1.0000
  O   O2        1.0  0.10171  0.04264  0.81526  1.0000
  O   O3        1.0  0.60171  0.54264  0.68474  1.0000
  O   O4        1.0  0.89828  0.95736  0.18474  1.0000
  O   O5        1.0  0.74770  0.45877  0.32900  1.0000
  O   O6        1.0  0.75231  0.04123  0.82900  1.0000
  O   O7        1.0  0.25231  0.54123  0.67100  1.0000
  O   O8        1.0  0.24769  0.95877  0.17100  1.0000
  O   O9        1.0  0.43787  0.19271  0.48167  1.0000
  O   O10       1.0  0.06213  0.30729  0.98167  1.0000
  O   O11       1.0  0.56213  0.80729  0.51833  1.0000
  O   O12       1.0  0.93787  0.69271  0.01833  1.0000
  O   O13       1.0  0.03210  0.30015  0.49682  1.0000
  O   O14       1.0  0.46789  0.19985  0.99682  1.0000
  O   O15       1.0  0.96789  0.69984  0.50318  1.0000
  O   O16       1.0  0.53211  0.80015  0.00318  1.0000
