data_image0
_chemical_formula_structural       Cd4H48C40N40
_chemical_formula_sum              "Cd4 H48 C40 N40"
_cell_length_a       9.21055
_cell_length_b       10.5321
_cell_length_c       13.2933
_cell_angle_alpha    90.0003
_cell_angle_beta     89.9999
_cell_angle_gamma    90.0006

_space_group_name_H-M_alt    "P 1"
_space_group_IT_number       1

loop_
  _space_group_symop_operation_xyz
  'x, y, z'

loop_
  _atom_site_type_symbol
  _atom_site_label
  _atom_site_symmetry_multiplicity
  _atom_site_fract_x
  _atom_site_fract_y
  _atom_site_fract_z
  _atom_site_occupancy
  Cd  Cd1       1.0  0.25000  0.25263  0.48304  1.0000
  Cd  Cd2       1.0  0.25001  0.24740  0.98305  1.0000
  Cd  Cd3       1.0  0.75000  0.75260  0.01696  1.0000
  Cd  Cd4       1.0  0.75000  0.74738  0.51695  1.0000
  H   H1        1.0  0.15222  0.26887  0.73522  1.0000
  H   H2        1.0  0.34778  0.23113  0.23523  1.0000
  H   H3        1.0  0.84778  0.76887  0.76478  1.0000
  H   H4        1.0  0.65222  0.73112  0.26478  1.0000
  H   H5        1.0  0.84778  0.73112  0.26478  1.0000
  H   H6        1.0  0.65221  0.76887  0.76477  1.0000
  H   H7        1.0  0.15222  0.23113  0.23523  1.0000
  H   H8        1.0  0.34778  0.26888  0.73522  1.0000
  H   H9        1.0  0.38285  0.99122  0.57422  1.0000
  H   H10       1.0  0.11715  0.50878  0.07423  1.0000
  H   H11       1.0  0.61714  0.49122  0.92577  1.0000
  H   H12       1.0  0.88285  0.00878  0.42578  1.0000
  H   H13       1.0  0.61715  0.00878  0.42577  1.0000
  H   H14       1.0  0.88285  0.49123  0.92577  1.0000
  H   H15       1.0  0.38286  0.50878  0.07423  1.0000
  H   H16       1.0  0.11715  0.99122  0.57422  1.0000
  H   H17       1.0  0.47808  0.10936  0.64441  1.0000
  H   H18       1.0  0.02192  0.39065  0.14441  1.0000
  H   H19       1.0  0.52191  0.60935  0.85559  1.0000
  H   H20       1.0  0.97807  0.89065  0.35559  1.0000
  H   H21       1.0  0.52192  0.89065  0.35559  1.0000
  H   H22       1.0  0.97807  0.60936  0.85558  1.0000
  H   H23       1.0  0.47808  0.39064  0.14441  1.0000
  H   H24       1.0  0.02193  0.10936  0.64441  1.0000
  H   H25       1.0  0.02217  0.10581  0.82252  1.0000
  H   H26       1.0  0.47784  0.39419  0.32253  1.0000
  H   H27       1.0  0.97784  0.60581  0.67747  1.0000
  H   H28       1.0  0.52216  0.89418  0.17748  1.0000
  H   H29       1.0  0.97783  0.89419  0.17748  1.0000
  H   H30       1.0  0.52216  0.60581  0.67747  1.0000
  H   H31       1.0  0.02216  0.39419  0.32253  1.0000
  H   H32       1.0  0.47784  0.10582  0.82252  1.0000
  H   H33       1.0  0.11833  0.98533  0.88942  1.0000
  H   H34       1.0  0.38167  0.51468  0.38942  1.0000
  H   H35       1.0  0.88166  0.48532  0.61058  1.0000
  H   H36       1.0  0.61833  0.01466  0.11058  1.0000
  H   H37       1.0  0.88166  0.01467  0.11058  1.0000
  H   H38       1.0  0.61833  0.48532  0.61057  1.0000
  H   H39       1.0  0.11833  0.51468  0.38942  1.0000
  H   H40       1.0  0.38166  0.98533  0.88942  1.0000
  H   H41       1.0  0.25000  0.82437  0.79551  1.0000
  H   H42       1.0  0.25001  0.67564  0.29551  1.0000
  H   H43       1.0  0.75001  0.32437  0.70449  1.0000
  H   H44       1.0  0.75000  0.17563  0.20448  1.0000
  H   H45       1.0  0.25000  0.82915  0.66140  1.0000
  H   H46       1.0  0.25001  0.67085  0.16140  1.0000
  H   H47       1.0  0.75000  0.32915  0.83860  1.0000
  H   H48       1.0  0.75000  0.17086  0.33859  1.0000
  C   C1        1.0  0.87731  0.25589  0.50497  1.0000
  C   C2        1.0  0.62269  0.24409  0.00498  1.0000
  C   C3        1.0  0.12269  0.75590  0.99502  1.0000
  C   C4        1.0  0.37731  0.74410  0.49502  1.0000
  C   C5        1.0  0.12268  0.74411  0.49502  1.0000
  C   C6        1.0  0.37732  0.75590  0.99502  1.0000
  C   C7        1.0  0.87732  0.24410  0.00497  1.0000
  C   C8        1.0  0.62268  0.25589  0.50497  1.0000
  C   C9        1.0  0.25000  0.20892  0.73428  1.0000
  C   C10       1.0  0.25000  0.29108  0.23428  1.0000
  C   C11       1.0  0.74999  0.70892  0.76572  1.0000
  C   C12       1.0  0.75000  0.79108  0.26572  1.0000
  C   C13       1.0  0.38166  0.04824  0.64326  1.0000
  C   C14       1.0  0.11835  0.45177  0.14326  1.0000
  C   C15       1.0  0.61834  0.54824  0.85673  1.0000
  C   C16       1.0  0.88165  0.95177  0.35674  1.0000
  C   C17       1.0  0.61834  0.95177  0.35674  1.0000
  C   C18       1.0  0.88165  0.54824  0.85674  1.0000
  C   C19       1.0  0.38166  0.45176  0.14326  1.0000
  C   C20       1.0  0.11834  0.04823  0.64326  1.0000
  C   C21       1.0  0.11866  0.04479  0.82170  1.0000
  C   C22       1.0  0.38135  0.45522  0.32170  1.0000
  C   C23       1.0  0.88134  0.54479  0.67830  1.0000
  C   C24       1.0  0.61865  0.95520  0.17830  1.0000
  C   C25       1.0  0.88134  0.95521  0.17830  1.0000
  C   C26       1.0  0.61866  0.54478  0.67829  1.0000
  C   C27       1.0  0.11866  0.45521  0.32170  1.0000
  C   C28       1.0  0.38134  0.04479  0.82170  1.0000
  C   C29       1.0  0.25000  0.88712  0.72990  1.0000
  C   C30       1.0  0.25001  0.61289  0.22991  1.0000
  C   C31       1.0  0.75000  0.38712  0.77010  1.0000
  C   C32       1.0  0.74999  0.11289  0.27009  1.0000
  C   C33       1.0  0.25001  0.00936  0.32261  1.0000
  C   C34       1.0  0.25000  0.49067  0.82261  1.0000
  C   C35       1.0  0.75000  0.50934  0.17739  1.0000
  C   C36       1.0  0.75000  0.99063  0.67741  1.0000
  C   C37       1.0  0.24999  0.00838  0.15032  1.0000
  C   C38       1.0  0.25000  0.49163  0.65033  1.0000
  C   C39       1.0  0.75000  0.50836  0.34968  1.0000
  C   C40       1.0  0.75000  0.99162  0.84970  1.0000
  N   N1        1.0  0.99988  0.25554  0.47949  1.0000
  N   N2        1.0  0.50013  0.24447  0.97948  1.0000
  N   N3        1.0  0.00012  0.75553  0.02052  1.0000
  N   N4        1.0  0.49987  0.74445  0.52052  1.0000
  N   N5        1.0  0.00011  0.74445  0.52051  1.0000
  N   N6        1.0  0.49988  0.75552  0.02052  1.0000
  N   N7        1.0  0.99989  0.24448  0.97948  1.0000
  N   N8        1.0  0.50011  0.25555  0.47949  1.0000
  N   N9        1.0  0.74999  0.25543  0.54418  1.0000
  N   N10       1.0  0.75000  0.24453  0.04419  1.0000
  N   N11       1.0  0.25001  0.75548  0.95581  1.0000
  N   N12       1.0  0.25000  0.74457  0.45581  1.0000
  N   N13       1.0  0.25000  0.13188  0.64098  1.0000
  N   N14       1.0  0.25000  0.36812  0.14099  1.0000
  N   N15       1.0  0.74999  0.63187  0.85901  1.0000
  N   N16       1.0  0.75000  0.86813  0.35901  1.0000
  N   N17       1.0  0.25000  0.12819  0.82546  1.0000
  N   N18       1.0  0.25000  0.37182  0.32546  1.0000
  N   N19       1.0  0.75000  0.62819  0.67454  1.0000
  N   N20       1.0  0.75000  0.87181  0.17454  1.0000
  N   N21       1.0  0.38265  0.96551  0.73136  1.0000
  N   N22       1.0  0.11736  0.53449  0.23136  1.0000
  N   N23       1.0  0.61735  0.46551  0.76863  1.0000
  N   N24       1.0  0.88264  0.03449  0.26863  1.0000
  N   N25       1.0  0.61736  0.03449  0.26864  1.0000
  N   N26       1.0  0.88264  0.46551  0.76863  1.0000
  N   N27       1.0  0.38265  0.53449  0.23137  1.0000
  N   N28       1.0  0.11736  0.96551  0.73136  1.0000
  N   N29       1.0  0.25001  0.05184  0.40481  1.0000
  N   N30       1.0  0.25000  0.44819  0.90481  1.0000
  N   N31       1.0  0.75000  0.55180  0.09519  1.0000
  N   N32       1.0  0.75000  0.94816  0.59521  1.0000
  N   N33       1.0  0.24999  0.95182  0.23664  1.0000
  N   N34       1.0  0.25000  0.54819  0.73665  1.0000
  N   N35       1.0  0.75001  0.45180  0.26335  1.0000
  N   N36       1.0  0.75000  0.04817  0.76337  1.0000
  N   N37       1.0  0.25000  0.04970  0.06766  1.0000
  N   N38       1.0  0.24999  0.45032  0.56767  1.0000
  N   N39       1.0  0.75000  0.54967  0.43234  1.0000
  N   N40       1.0  0.74999  0.95030  0.93236  1.0000
