data_image0
_chemical_formula_structural       Co4H36C16Cl8O6
_chemical_formula_sum              "Co4 H36 C16 Cl8 O6"
_cell_length_a       8.41512
_cell_length_b       10.6008
_cell_length_c       11.7361
_cell_angle_alpha    76.3383
_cell_angle_beta     78.1173
_cell_angle_gamma    68.6028

_space_group_name_H-M_alt    "P 1"
_space_group_IT_number       1

loop_
  _space_group_symop_operation_xyz
  'x, y, z'

loop_
  _atom_site_type_symbol
  _atom_site_label
  _atom_site_symmetry_multiplicity
  _atom_site_fract_x
  _atom_site_fract_y
  _atom_site_fract_z
  _atom_site_occupancy
  Co  Co1       1.0  0.00000  0.00000  0.00000  1.0000
  Co  Co2       1.0  0.90955  0.21931  0.76555  1.0000
  Co  Co3       1.0  0.09045  0.78069  0.23445  1.0000
  Co  Co4       1.0  0.00000  0.50000  0.50000  1.0000
  H   H1        1.0  0.32772  0.34879  0.44251  1.0000
  H   H2        1.0  0.67228  0.65121  0.55749  1.0000
  H   H3        1.0  0.30192  0.49951  0.36501  1.0000
  H   H4        1.0  0.69808  0.50049  0.63498  1.0000
  H   H5        1.0  0.38438  0.94254  0.03989  1.0000
  H   H6        1.0  0.61563  0.05746  0.96011  1.0000
  H   H7        1.0  0.39190  0.02138  0.88669  1.0000
  H   H8        1.0  0.60810  0.97862  0.11331  1.0000
  H   H9        1.0  0.58194  0.72381  0.99629  1.0000
  H   H10       1.0  0.41806  0.27619  0.00371  1.0000
  H   H11       1.0  0.66509  0.83314  0.87836  1.0000
  H   H12       1.0  0.33491  0.16686  0.12163  1.0000
  H   H13       1.0  0.55702  0.64346  0.82318  1.0000
  H   H14       1.0  0.44297  0.35654  0.17682  1.0000
  H   H15       1.0  0.48703  0.81629  0.74319  1.0000
  H   H16       1.0  0.51296  0.18371  0.25681  1.0000
  H   H17       1.0  0.20875  0.78984  0.82533  1.0000
  H   H18       1.0  0.79124  0.21017  0.17467  1.0000
  H   H19       1.0  0.28994  0.68240  0.95841  1.0000
  H   H20       1.0  0.71005  0.31760  0.04159  1.0000
  H   H21       1.0  0.77305  0.65351  0.28633  1.0000
  H   H22       1.0  0.22695  0.34648  0.71367  1.0000
  H   H23       1.0  0.68355  0.52045  0.35625  1.0000
  H   H24       1.0  0.31645  0.47954  0.64375  1.0000
  H   H25       1.0  0.73196  0.44008  0.17875  1.0000
  H   H26       1.0  0.26804  0.55992  0.82126  1.0000
  H   H27       1.0  0.79073  0.58558  0.10348  1.0000
  H   H28       1.0  0.20926  0.41442  0.89652  1.0000
  H   H29       1.0  0.03024  0.32342  0.11160  1.0000
  H   H30       1.0  0.96976  0.67658  0.88840  1.0000
  H   H31       1.0  0.09037  0.46685  0.11667  1.0000
  H   H32       1.0  0.90963  0.53316  0.88333  1.0000
  H   H33       1.0  0.99180  0.26469  0.33039  1.0000
  H   H34       1.0  0.00820  0.73530  0.66961  1.0000
  H   H35       1.0  0.17784  0.31710  0.30153  1.0000
  H   H36       1.0  0.82216  0.68289  0.69847  1.0000
  C   C1        1.0  0.39714  0.92533  0.94957  1.0000
  C   C2        1.0  0.60286  0.07468  0.05043  1.0000
  C   C3        1.0  0.55112  0.80314  0.91726  1.0000
  C   C4        1.0  0.44888  0.19686  0.08274  1.0000
  C   C5        1.0  0.48435  0.75119  0.83144  1.0000
  C   C6        1.0  0.51564  0.24881  0.16856  1.0000
  C   C7        1.0  0.29964  0.76924  0.88766  1.0000
  C   C8        1.0  0.70036  0.23076  0.11234  1.0000
  C   C9        1.0  0.79031  0.54435  0.29484  1.0000
  C   C10       1.0  0.20969  0.45565  0.70517  1.0000
  C   C11       1.0  0.81798  0.49756  0.17611  1.0000
  C   C12       1.0  0.18202  0.50245  0.82389  1.0000
  C   C13       1.0  0.00767  0.40510  0.16154  1.0000
  C   C14       1.0  0.99232  0.59490  0.83846  1.0000
  C   C15       1.0  0.04257  0.34944  0.28865  1.0000
  C   C16       1.0  0.95743  0.65056  0.71135  1.0000
  Cl  Cl1       1.0  0.05573  0.21326  0.90950  1.0000
  Cl  Cl2       1.0  0.94427  0.78675  0.09050  1.0000
  Cl  Cl3       1.0  0.90809  0.00061  0.81014  1.0000
  Cl  Cl4       1.0  0.09191  0.99939  0.18986  1.0000
  Cl  Cl5       1.0  0.64606  0.37596  0.78611  1.0000
  Cl  Cl6       1.0  0.35394  0.62404  0.21388  1.0000
  Cl  Cl7       1.0  0.05306  0.25618  0.58331  1.0000
  Cl  Cl8       1.0  0.94695  0.74381  0.41669  1.0000
  O   O1        1.0  0.26536  0.44622  0.44213  1.0000
  O   O2        1.0  0.73465  0.55377  0.55787  1.0000
  O   O3        1.0  0.24630  0.89137  0.94220  1.0000
  O   O4        1.0  0.75369  0.10864  0.05780  1.0000
  O   O5        1.0  0.95007  0.46725  0.34729  1.0000
  O   O6        1.0  0.04993  0.53274  0.65271  1.0000
