data_image0
_chemical_formula_structural       Zn4H40C52N4O20
_chemical_formula_sum              "Zn4 H40 C52 N4 O20"
_cell_length_a       9.69147
_cell_length_b       11.6561
_cell_length_c       11.8444
_cell_angle_alpha    112.201
_cell_angle_beta     90.0007
_cell_angle_gamma    89.9987

_space_group_name_H-M_alt    "P 1"
_space_group_IT_number       1

loop_
  _space_group_symop_operation_xyz
  'x, y, z'

loop_
  _atom_site_type_symbol
  _atom_site_label
  _atom_site_symmetry_multiplicity
  _atom_site_fract_x
  _atom_site_fract_y
  _atom_site_fract_z
  _atom_site_occupancy
  Zn  Zn1       1.0  0.89430  0.87450  0.89890  1.0000
  Zn  Zn2       1.0  0.39429  0.62551  0.60110  1.0000
  Zn  Zn3       1.0  0.10571  0.12551  0.10110  1.0000
  Zn  Zn4       1.0  0.60571  0.37449  0.39889  1.0000
  H   H1        1.0  0.21559  0.76322  0.21443  1.0000
  H   H2        1.0  0.71557  0.73678  0.28558  1.0000
  H   H3        1.0  0.78441  0.23679  0.78557  1.0000
  H   H4        1.0  0.28443  0.26322  0.71442  1.0000
  H   H5        1.0  0.45847  0.78471  0.29131  1.0000
  H   H6        1.0  0.95844  0.71530  0.20870  1.0000
  H   H7        1.0  0.54154  0.21530  0.70869  1.0000
  H   H8        1.0  0.04156  0.28470  0.79131  1.0000
  H   H9        1.0  0.64583  0.83337  0.16971  1.0000
  H   H10       1.0  0.14582  0.66663  0.33028  1.0000
  H   H11       1.0  0.35417  0.16663  0.83028  1.0000
  H   H12       1.0  0.85418  0.33337  0.66973  1.0000
  H   H13       1.0  0.34416  0.86219  0.91612  1.0000
  H   H14       1.0  0.84416  0.63780  0.58388  1.0000
  H   H15       1.0  0.65584  0.13781  0.08388  1.0000
  H   H16       1.0  0.15583  0.36219  0.41612  1.0000
  H   H17       1.0  0.14279  0.93054  0.78714  1.0000
  H   H18       1.0  0.64280  0.56947  0.71286  1.0000
  H   H19       1.0  0.85721  0.06947  0.21286  1.0000
  H   H20       1.0  0.35720  0.43052  0.28714  1.0000
  H   H21       1.0  0.20031  0.98030  0.60899  1.0000
  H   H22       1.0  0.70031  0.51970  0.89102  1.0000
  H   H23       1.0  0.79970  0.01970  0.39102  1.0000
  H   H24       1.0  0.29968  0.48030  0.10898  1.0000
  H   H25       1.0  0.76046  0.98051  0.53734  1.0000
  H   H26       1.0  0.26046  0.51948  0.96264  1.0000
  H   H27       1.0  0.23955  0.01949  0.46265  1.0000
  H   H28       1.0  0.73953  0.48052  0.03735  1.0000
  H   H29       1.0  0.72284  0.92774  0.71792  1.0000
  H   H30       1.0  0.22284  0.57225  0.78206  1.0000
  H   H31       1.0  0.27717  0.07226  0.28208  1.0000
  H   H32       1.0  0.77715  0.42775  0.21793  1.0000
  H   H33       1.0  0.94737  0.66713  0.88071  1.0000
  H   H34       1.0  0.44735  0.83287  0.61929  1.0000
  H   H35       1.0  0.05263  0.33287  0.11930  1.0000
  H   H36       1.0  0.55264  0.16712  0.38070  1.0000
  H   H37       1.0  0.97042  0.65821  0.74398  1.0000
  H   H38       1.0  0.47042  0.84180  0.75602  1.0000
  H   H39       1.0  0.02958  0.34180  0.25602  1.0000
  H   H40       1.0  0.52958  0.15820  0.24398  1.0000
  C   C1        1.0  0.12016  0.80125  0.01613  1.0000
  C   C2        1.0  0.62016  0.69875  0.48388  1.0000
  C   C3        1.0  0.87984  0.19876  0.98388  1.0000
  C   C4        1.0  0.37984  0.30124  0.51612  1.0000
  C   C5        1.0  0.26538  0.81385  0.06241  1.0000
  C   C6        1.0  0.76537  0.68614  0.43758  1.0000
  C   C7        1.0  0.73462  0.18615  0.93758  1.0000
  C   C8        1.0  0.23463  0.31386  0.56242  1.0000
  C   C9        1.0  0.29808  0.78874  0.16597  1.0000
  C   C10       1.0  0.79806  0.71126  0.33403  1.0000
  C   C11       1.0  0.70192  0.21126  0.83403  1.0000
  C   C12       1.0  0.20194  0.28874  0.66597  1.0000
  C   C13       1.0  0.43393  0.79932  0.20777  1.0000
  C   C14       1.0  0.93391  0.70069  0.29223  1.0000
  C   C15       1.0  0.56608  0.20069  0.79223  1.0000
  C   C16       1.0  0.06609  0.29931  0.70778  1.0000
  C   C17       1.0  0.53831  0.82721  0.14121  1.0000
  C   C18       1.0  0.03829  0.67279  0.35879  1.0000
  C   C19       1.0  0.46169  0.17278  0.85879  1.0000
  C   C20       1.0  0.96171  0.32721  0.64122  1.0000
  C   C21       1.0  0.50754  0.84612  0.03377  1.0000
  C   C22       1.0  0.00753  0.65388  0.46622  1.0000
  C   C23       1.0  0.49246  0.15389  0.96623  1.0000
  C   C24       1.0  0.99246  0.34611  0.53378  1.0000
  C   C25       1.0  0.37016  0.84350  0.99697  1.0000
  C   C26       1.0  0.87015  0.65650  0.50302  1.0000
  C   C27       1.0  0.62984  0.15650  0.00302  1.0000
  C   C28       1.0  0.12984  0.34350  0.49698  1.0000
  C   C29       1.0  0.62223  0.86485  0.95797  1.0000
  C   C30       1.0  0.12223  0.63514  0.54201  1.0000
  C   C31       1.0  0.37777  0.13514  0.04202  1.0000
  C   C32       1.0  0.87776  0.36486  0.45799  1.0000
  C   C33       1.0  0.06151  0.94218  0.72889  1.0000
  C   C34       1.0  0.56150  0.55783  0.77111  1.0000
  C   C35       1.0  0.93850  0.05783  0.27111  1.0000
  C   C36       1.0  0.43849  0.44217  0.22889  1.0000
  C   C37       1.0  0.09218  0.97091  0.62847  1.0000
  C   C38       1.0  0.59218  0.52908  0.87154  1.0000
  C   C39       1.0  0.90783  0.02909  0.37153  1.0000
  C   C40       1.0  0.40782  0.47091  0.12846  1.0000
  C   C41       1.0  0.98540  0.98566  0.55456  1.0000
  C   C42       1.0  0.48539  0.51435  0.94545  1.0000
  C   C43       1.0  0.01460  0.01435  0.44544  1.0000
  C   C44       1.0  0.51460  0.48565  0.05455  1.0000
  C   C45       1.0  0.84997  0.97156  0.58878  1.0000
  C   C46       1.0  0.34996  0.52843  0.91120  1.0000
  C   C47       1.0  0.15004  0.02844  0.41121  1.0000
  C   C48       1.0  0.65003  0.47157  0.08879  1.0000
  C   C49       1.0  0.82653  0.94153  0.68987  1.0000
  C   C50       1.0  0.32653  0.55847  0.81012  1.0000
  C   C51       1.0  0.17348  0.05848  0.31013  1.0000
  C   C52       1.0  0.67347  0.44153  0.18988  1.0000
  N   N1        1.0  0.93016  0.92657  0.75860  1.0000
  N   N2        1.0  0.43015  0.57343  0.74138  1.0000
  N   N3        1.0  0.06985  0.07344  0.24139  1.0000
  N   N4        1.0  0.56985  0.42656  0.25862  1.0000
  O   O1        1.0  0.07855  0.88762  0.98000  1.0000
  O   O2        1.0  0.57855  0.61238  0.52001  1.0000
  O   O3        1.0  0.92145  0.11238  0.02001  1.0000
  O   O4        1.0  0.42145  0.38762  0.47999  1.0000
  O   O5        1.0  0.05001  0.70876  0.01164  1.0000
  O   O6        1.0  0.55000  0.79123  0.48836  1.0000
  O   O7        1.0  0.94999  0.29124  0.98836  1.0000
  O   O8        1.0  0.44999  0.20877  0.51164  1.0000
  O   O9        1.0  0.60165  0.86012  0.85114  1.0000
  O   O10       1.0  0.10165  0.63987  0.64886  1.0000
  O   O11       1.0  0.39835  0.13987  0.14886  1.0000
  O   O12       1.0  0.89834  0.36013  0.35115  1.0000
  O   O13       1.0  0.74254  0.88303  0.00870  1.0000
  O   O14       1.0  0.24254  0.61697  0.49129  1.0000
  O   O15       1.0  0.25746  0.11698  0.99130  1.0000
  O   O16       1.0  0.75745  0.38302  0.50872  1.0000
  O   O17       1.0  0.89967  0.67847  0.81084  1.0000
  O   O18       1.0  0.39966  0.82154  0.68916  1.0000
  O   O19       1.0  0.10033  0.32154  0.18917  1.0000
  O   O20       1.0  0.60034  0.17845  0.31083  1.0000
