data_image0
_chemical_formula_structural       Tb4H32C30N12O28
_chemical_formula_sum              "Tb4 H32 C30 N12 O28"
_cell_length_a       9.61243
_cell_length_b       9.7164
_cell_length_c       15.9586
_cell_angle_alpha    86.4876
_cell_angle_beta     82.8851
_cell_angle_gamma    60.3536

_space_group_name_H-M_alt    "P 1"
_space_group_IT_number       1

loop_
  _space_group_symop_operation_xyz
  'x, y, z'

loop_
  _atom_site_type_symbol
  _atom_site_label
  _atom_site_symmetry_multiplicity
  _atom_site_fract_x
  _atom_site_fract_y
  _atom_site_fract_z
  _atom_site_occupancy
  Tb  Tb1       1.0  0.49991  0.09819  0.87570  1.0000
  Tb  Tb2       1.0  0.59809  0.90182  0.37572  1.0000
  Tb  Tb3       1.0  0.49559  0.90764  0.12470  1.0000
  Tb  Tb4       1.0  0.40321  0.09237  0.62470  1.0000
  H   H1        1.0  0.85215  0.93849  0.10223  1.0000
  H   H2        1.0  0.79064  0.06150  0.60222  1.0000
  H   H3        1.0  0.98460  0.82243  0.01518  1.0000
  H   H4        1.0  0.80701  0.17756  0.51516  1.0000
  H   H5        1.0  0.05540  0.12499  0.91664  1.0000
  H   H6        1.0  0.18037  0.87502  0.41664  1.0000
  H   H7        1.0  0.10291  0.92543  0.91470  1.0000
  H   H8        1.0  0.02833  0.07457  0.41470  1.0000
  H   H9        1.0  0.49351  0.29126  0.15127  1.0000
  H   H10       1.0  0.78477  0.70876  0.65128  1.0000
  H   H11       1.0  0.35184  0.41651  0.23415  1.0000
  H   H12       1.0  0.76834  0.58350  0.73417  1.0000
  H   H13       1.0  0.43253  0.51011  0.33681  1.0000
  H   H14       1.0  0.94264  0.48989  0.83680  1.0000
  H   H15       1.0  0.63635  0.45619  0.34015  1.0000
  H   H16       1.0  0.09256  0.54378  0.84015  1.0000
  H   H17       1.0  0.10102  0.55583  0.19766  1.0000
  H   H18       1.0  0.65684  0.44419  0.69768  1.0000
  H   H19       1.0  0.00548  0.46295  0.26009  1.0000
  H   H20       1.0  0.46841  0.53703  0.76010  1.0000
  H   H21       1.0  0.14061  0.54242  0.05663  1.0000
  H   H22       1.0  0.68304  0.45758  0.55663  1.0000
  H   H23       1.0  0.06434  0.45139  0.99747  1.0000
  H   H24       1.0  0.51572  0.54863  0.49747  1.0000
  H   H25       1.0  0.63729  0.72788  0.95820  1.0000
  H   H26       1.0  0.36516  0.27212  0.45820  1.0000
  H   H27       1.0  0.56161  0.63751  0.01436  1.0000
  H   H28       1.0  0.19911  0.36250  0.51438  1.0000
  H   H29       1.0  0.17761  0.97992  0.19880  1.0000
  H   H30       1.0  0.15751  0.02008  0.69880  1.0000
  H   H31       1.0  0.19353  0.13130  0.18695  1.0000
  H   H32       1.0  0.32483  0.86869  0.68695  1.0000
  C   C1        1.0  0.89809  0.17701  0.07320  1.0000
  C   C2        1.0  0.07512  0.82297  0.57319  1.0000
  C   C3        1.0  0.72777  0.32386  0.18358  1.0000
  C   C4        1.0  0.05162  0.67615  0.68357  1.0000
  C   C5        1.0  0.93094  0.36597  0.12840  1.0000
  C   C6        1.0  0.29694  0.63399  0.62840  1.0000
  C   C7        1.0  0.89178  0.94294  0.03535  1.0000
  C   C8        1.0  0.83472  0.05704  0.53534  1.0000
  C   C9        1.0  0.75073  0.99404  0.98415  1.0000
  C   C10       1.0  0.74476  0.00596  0.48414  1.0000
  C   C11       1.0  0.08718  0.01931  0.95625  1.0000
  C   C12       1.0  0.10647  0.98070  0.45625  1.0000
  C   C13       1.0  0.24925  0.97143  0.98725  1.0000
  C   C14       1.0  0.22066  0.02858  0.48724  1.0000
  C   C15       1.0  0.47587  0.32048  0.21820  1.0000
  C   C16       1.0  0.79635  0.67953  0.71820  1.0000
  C   C17       1.0  0.49788  0.17640  0.27122  1.0000
  C   C18       1.0  0.67427  0.82361  0.77121  1.0000
  C   C19       1.0  0.54197  0.49435  0.29779  1.0000
  C   C20       1.0  0.03633  0.50564  0.79779  1.0000
  C   C21       1.0  0.51092  0.65603  0.26181  1.0000
  C   C22       1.0  0.16695  0.34397  0.76182  1.0000
  C   C23       1.0  0.99971  0.53209  0.20219  1.0000
  C   C24       1.0  0.53180  0.46790  0.70219  1.0000
  C   C25       1.0  0.84520  0.69088  0.21509  1.0000
  C   C26       1.0  0.53609  0.30911  0.71507  1.0000
  C   C27       1.0  0.12090  0.44042  0.05511  1.0000
  C   C28       1.0  0.56134  0.55959  0.55510  1.0000
  C   C29       1.0  0.28547  0.29101  0.04450  1.0000
  C   C30       1.0  0.57650  0.70900  0.54449  1.0000
  N   N1        1.0  0.95999  0.04688  0.02301  1.0000
  N   N2        1.0  0.00687  0.95309  0.52300  1.0000
  N   N3        1.0  0.58627  0.37460  0.23470  1.0000
  N   N4        1.0  0.96087  0.62540  0.73469  1.0000
  N   N5        1.0  0.01612  0.44423  0.12873  1.0000
  N   N6        1.0  0.46038  0.55576  0.62873  1.0000
  N   N7        1.0  0.76805  0.20739  0.12831  1.0000
  N   N8        1.0  0.97544  0.79260  0.62830  1.0000
  N   N9        1.0  0.81375  0.39660  0.19231  1.0000
  N   N10       1.0  0.21035  0.60339  0.69230  1.0000
  N   N11       1.0  0.97486  0.26244  0.06478  1.0000
  N   N12       1.0  0.23732  0.73754  0.56478  1.0000
  O   O1        1.0  0.63420  0.96892  0.01306  1.0000
  O   O2        1.0  0.60311  0.03107  0.51305  1.0000
  O   O3        1.0  0.75058  0.05872  0.91323  1.0000
  O   O4        1.0  0.80930  0.94128  0.41322  1.0000
  O   O5        1.0  0.27966  0.91151  0.06000  1.0000
  O   O6        1.0  0.19118  0.08848  0.56000  1.0000
  O   O7        1.0  0.34904  0.99239  0.93564  1.0000
  O   O8        1.0  0.34141  0.00763  0.43563  1.0000
  O   O9        1.0  0.52120  0.04976  0.23679  1.0000
  O   O10       1.0  0.57096  0.95025  0.73679  1.0000
  O   O11       1.0  0.49734  0.18250  0.35070  1.0000
  O   O12       1.0  0.67985  0.81753  0.85070  1.0000
  O   O13       1.0  0.47128  0.69332  0.18732  1.0000
  O   O14       1.0  0.16462  0.30667  0.68733  1.0000
  O   O15       1.0  0.52380  0.74643  0.31070  1.0000
  O   O16       1.0  0.27024  0.25356  0.81070  1.0000
  O   O17       1.0  0.75643  0.74865  0.15592  1.0000
  O   O18       1.0  0.50509  0.25136  0.65591  1.0000
  O   O19       1.0  0.82128  0.75391  0.28646  1.0000
  O   O20       1.0  0.57521  0.24606  0.78645  1.0000
  O   O21       1.0  0.32129  0.18372  0.10025  1.0000
  O   O22       1.0  0.50500  0.81629  0.60024  1.0000
  O   O23       1.0  0.37504  0.28721  0.97802  1.0000
  O   O24       1.0  0.66226  0.71281  0.47801  1.0000
  O   O25       1.0  0.62307  0.69205  0.01606  1.0000
  O   O26       1.0  0.31511  0.30795  0.51605  1.0000
  O   O27       1.0  0.23230  0.03145  0.21902  1.0000
  O   O28       1.0  0.26373  0.96855  0.71901  1.0000
