data_image0
_chemical_formula_structural       Hg4H32C48S4I8N16
_chemical_formula_sum              "Hg4 H32 C48 S4 I8 N16"
_cell_length_a       5.87055
_cell_length_b       13.6914
_cell_length_c       20.5444
_cell_angle_alpha    104.592
_cell_angle_beta     90.0001
_cell_angle_gamma    89.9999

_space_group_name_H-M_alt    "P 1"
_space_group_IT_number       1

loop_
  _space_group_symop_operation_xyz
  'x, y, z'

loop_
  _atom_site_type_symbol
  _atom_site_label
  _atom_site_symmetry_multiplicity
  _atom_site_fract_x
  _atom_site_fract_y
  _atom_site_fract_z
  _atom_site_occupancy
  Hg  Hg1       1.0  0.71587  0.95874  0.68041  1.0000
  Hg  Hg2       1.0  0.21588  0.54127  0.81958  1.0000
  Hg  Hg3       1.0  0.28414  0.04127  0.31959  1.0000
  Hg  Hg4       1.0  0.78412  0.45873  0.18042  1.0000
  H   H1        1.0  0.55518  0.93586  0.82854  1.0000
  H   H2        1.0  0.05518  0.56414  0.67146  1.0000
  H   H3        1.0  0.44484  0.06415  0.17146  1.0000
  H   H4        1.0  0.94481  0.43586  0.32854  1.0000
  H   H5        1.0  0.25355  0.98583  0.91667  1.0000
  H   H6        1.0  0.75356  0.51416  0.58333  1.0000
  H   H7        1.0  0.74646  0.01417  0.08333  1.0000
  H   H8        1.0  0.24645  0.48584  0.41666  1.0000
  H   H9        1.0  0.95606  0.16829  0.79374  1.0000
  H   H10       1.0  0.45608  0.33171  0.70626  1.0000
  H   H11       1.0  0.04394  0.83172  0.20627  1.0000
  H   H12       1.0  0.54392  0.66829  0.29373  1.0000
  H   H13       1.0  0.27720  0.11544  0.71377  1.0000
  H   H14       1.0  0.77722  0.38456  0.78623  1.0000
  H   H15       1.0  0.72279  0.88457  0.28623  1.0000
  H   H16       1.0  0.22278  0.61544  0.21378  1.0000
  H   H17       1.0  0.24472  0.11846  0.04799  1.0000
  H   H18       1.0  0.74473  0.38155  0.45202  1.0000
  H   H19       1.0  0.75528  0.88154  0.95202  1.0000
  H   H20       1.0  0.25527  0.61845  0.54798  1.0000
  H   H21       1.0  0.94391  0.22615  0.11716  1.0000
  H   H22       1.0  0.44391  0.27386  0.38285  1.0000
  H   H23       1.0  0.05611  0.77384  0.88285  1.0000
  H   H24       1.0  0.55608  0.72614  0.61715  1.0000
  H   H25       1.0  0.22212  0.48807  0.08453  1.0000
  H   H26       1.0  0.72214  0.01193  0.41546  1.0000
  H   H27       1.0  0.77787  0.51193  0.91546  1.0000
  H   H28       1.0  0.27788  0.98806  0.58453  1.0000
  H   H29       1.0  0.54379  0.39383  0.01822  1.0000
  H   H30       1.0  0.04383  0.10617  0.48178  1.0000
  H   H31       1.0  0.45618  0.60616  0.98178  1.0000
  H   H32       1.0  0.95619  0.89383  0.51822  1.0000
  C   C1        1.0  0.42049  0.98859  0.82373  1.0000
  C   C2        1.0  0.92048  0.51141  0.67627  1.0000
  C   C3        1.0  0.57952  0.01142  0.17626  1.0000
  C   C4        1.0  0.07951  0.48859  0.32373  1.0000
  C   C5        1.0  0.25115  0.01567  0.87221  1.0000
  C   C6        1.0  0.75113  0.48434  0.62779  1.0000
  C   C7        1.0  0.74886  0.98433  0.12779  1.0000
  C   C8        1.0  0.24885  0.51567  0.37220  1.0000
  C   C9        1.0  0.08004  0.08243  0.86269  1.0000
  C   C10       1.0  0.58003  0.41757  0.63730  1.0000
  C   C11       1.0  0.91996  0.91757  0.13730  1.0000
  C   C12       1.0  0.41995  0.58244  0.36269  1.0000
  C   C13       1.0  0.08766  0.11858  0.80465  1.0000
  C   C14       1.0  0.58766  0.38143  0.69535  1.0000
  C   C15       1.0  0.91233  0.88142  0.19535  1.0000
  C   C16       1.0  0.41234  0.61858  0.30465  1.0000
  C   C17       1.0  0.26537  0.08825  0.75930  1.0000
  C   C18       1.0  0.76538  0.41175  0.74070  1.0000
  C   C19       1.0  0.73462  0.91176  0.24070  1.0000
  C   C20       1.0  0.23462  0.58825  0.25929  1.0000
  C   C21       1.0  0.89906  0.11227  0.91242  1.0000
  C   C22       1.0  0.39903  0.38772  0.58758  1.0000
  C   C23       1.0  0.10095  0.88772  0.08758  1.0000
  C   C24       1.0  0.60094  0.61228  0.41242  1.0000
  C   C25       1.0  0.59987  0.18757  0.98708  1.0000
  C   C26       1.0  0.09990  0.31244  0.51292  1.0000
  C   C27       1.0  0.40012  0.81242  0.01292  1.0000
  C   C28       1.0  0.90011  0.68757  0.48708  1.0000
  C   C29       1.0  0.41874  0.24768  0.02662  1.0000
  C   C30       1.0  0.91875  0.25232  0.47337  1.0000
  C   C31       1.0  0.58126  0.75231  0.97338  1.0000
  C   C32       1.0  0.08125  0.74768  0.52663  1.0000
  C   C33       1.0  0.24741  0.20016  0.05521  1.0000
  C   C34       1.0  0.74742  0.29985  0.44480  1.0000
  C   C35       1.0  0.75259  0.79983  0.94479  1.0000
  C   C36       1.0  0.25258  0.70016  0.55521  1.0000
  C   C37       1.0  0.07844  0.25960  0.09304  1.0000
  C   C38       1.0  0.57845  0.24040  0.40696  1.0000
  C   C39       1.0  0.92157  0.74039  0.90697  1.0000
  C   C40       1.0  0.42154  0.75959  0.59304  1.0000
  C   C41       1.0  0.23403  0.40610  0.07538  1.0000
  C   C42       1.0  0.73405  0.09390  0.42462  1.0000
  C   C43       1.0  0.76599  0.59390  0.92462  1.0000
  C   C44       1.0  0.26597  0.90610  0.57538  1.0000
  C   C45       1.0  0.41159  0.35297  0.03763  1.0000
  C   C46       1.0  0.91160  0.14703  0.46237  1.0000
  C   C47       1.0  0.58841  0.64702  0.96236  1.0000
  C   C48       1.0  0.08841  0.85297  0.53763  1.0000
  S   S1        1.0  0.74993  0.22471  0.92474  1.0000
  S   S2        1.0  0.24994  0.27528  0.57526  1.0000
  S   S3        1.0  0.25006  0.77528  0.07527  1.0000
  S   S4        1.0  0.75005  0.72472  0.42474  1.0000
  I   I1        1.0  0.94821  0.82097  0.72521  1.0000
  I   I2        1.0  0.44824  0.67904  0.77480  1.0000
  I   I3        1.0  0.05180  0.17903  0.27479  1.0000
  I   I4        1.0  0.55178  0.32097  0.22522  1.0000
  I   I5        1.0  0.75151  0.12202  0.62799  1.0000
  I   I6        1.0  0.25151  0.37798  0.87201  1.0000
  I   I7        1.0  0.24848  0.87799  0.37201  1.0000
  I   I8        1.0  0.74840  0.62201  0.12799  1.0000
  N   N1        1.0  0.66516  0.09878  0.99518  1.0000
  N   N2        1.0  0.16518  0.40122  0.50481  1.0000
  N   N3        1.0  0.33484  0.90120  0.00481  1.0000
  N   N4        1.0  0.83483  0.59879  0.49518  1.0000
  N   N5        1.0  0.83298  0.05612  0.95285  1.0000
  N   N6        1.0  0.33299  0.44388  0.54715  1.0000
  N   N7        1.0  0.16701  0.94387  0.04714  1.0000
  N   N8        1.0  0.66700  0.55612  0.45285  1.0000
  N   N9        1.0  0.42872  0.02479  0.76870  1.0000
  N   N10       1.0  0.92873  0.47522  0.73130  1.0000
  N   N11       1.0  0.57127  0.97522  0.23129  1.0000
  N   N12       1.0  0.07127  0.52479  0.26870  1.0000
  N   N13       1.0  0.07070  0.36037  0.10248  1.0000
  N   N14       1.0  0.57070  0.13963  0.39752  1.0000
  N   N15       1.0  0.92931  0.63962  0.89752  1.0000
  N   N16       1.0  0.42930  0.86036  0.60248  1.0000
