data_image0
_chemical_formula_structural       Cd2CuH20C26N4Cl2O14
_chemical_formula_sum              "Cd2 Cu1 H20 C26 N4 Cl2 O14"
_cell_length_a       5.45735
_cell_length_b       10.0865
_cell_length_c       13.9314
_cell_angle_alpha    80.6254
_cell_angle_beta     86.3507
_cell_angle_gamma    84.9996

_space_group_name_H-M_alt    "P 1"
_space_group_IT_number       1

loop_
  _space_group_symop_operation_xyz
  'x, y, z'

loop_
  _atom_site_type_symbol
  _atom_site_label
  _atom_site_symmetry_multiplicity
  _atom_site_fract_x
  _atom_site_fract_y
  _atom_site_fract_z
  _atom_site_occupancy
  Cd  Cd1       1.0  0.73229  0.02656  0.09565  1.0000
  Cd  Cd2       1.0  0.26769  0.97344  0.90435  1.0000
  Cu  Cu1       1.0  0.99998  0.00001  0.49999  1.0000
  H   H1        1.0  0.20034  0.23382  0.33722  1.0000
  H   H2        1.0  0.79969  0.76616  0.66277  1.0000
  H   H3        1.0  0.22088  0.87556  0.12127  1.0000
  H   H4        1.0  0.77913  0.12445  0.87873  1.0000
  H   H5        1.0  0.02752  0.79901  0.06456  1.0000
  H   H6        1.0  0.97245  0.20100  0.93545  1.0000
  H   H7        1.0  0.77827  0.47720  0.25995  1.0000
  H   H8        1.0  0.22177  0.52279  0.74005  1.0000
  H   H9        1.0  0.42920  0.61394  0.17318  1.0000
  H   H10       1.0  0.57080  0.38605  0.82684  1.0000
  H   H11       1.0  0.19167  0.50228  0.06138  1.0000
  H   H12       1.0  0.80837  0.49774  0.93861  1.0000
  H   H13       1.0  0.47643  0.40781  0.53508  1.0000
  H   H14       1.0  0.52355  0.59218  0.46492  1.0000
  H   H15       1.0  0.74200  0.49692  0.64931  1.0000
  H   H16       1.0  0.25799  0.50306  0.35070  1.0000
  H   H17       1.0  0.11164  0.34515  0.71443  1.0000
  H   H18       1.0  0.88831  0.65483  0.28558  1.0000
  H   H19       1.0  0.21604  0.13008  0.65249  1.0000
  H   H20       1.0  0.78396  0.86991  0.34750  1.0000
  C   C1        1.0  0.95182  0.21954  0.23924  1.0000
  C   C2        1.0  0.04816  0.78046  0.76074  1.0000
  C   C3        1.0  0.74006  0.30499  0.19154  1.0000
  C   C4        1.0  0.25997  0.69502  0.80845  1.0000
  C   C5        1.0  0.67431  0.43592  0.20941  1.0000
  C   C6        1.0  0.32572  0.56406  0.79059  1.0000
  C   C7        1.0  0.47776  0.51015  0.16178  1.0000
  C   C8        1.0  0.52226  0.48985  0.83823  1.0000
  C   C9        1.0  0.34877  0.44963  0.09973  1.0000
  C   C10       1.0  0.65124  0.55037  0.90027  1.0000
  C   C11       1.0  0.42567  0.31764  0.08591  1.0000
  C   C12       1.0  0.57433  0.68237  0.91409  1.0000
  C   C13       1.0  0.29133  0.24609  0.02021  1.0000
  C   C14       1.0  0.70867  0.75391  0.97980  1.0000
  C   C15       1.0  0.59350  0.17613  0.45276  1.0000
  C   C16       1.0  0.40649  0.82389  0.54724  1.0000
  C   C17       1.0  0.72066  0.23275  0.52819  1.0000
  C   C18       1.0  0.27933  0.76724  0.47180  1.0000
  C   C19       1.0  0.64624  0.35334  0.56086  1.0000
  C   C20       1.0  0.35371  0.64665  0.43914  1.0000
  C   C21       1.0  0.79071  0.39961  0.62588  1.0000
  C   C22       1.0  0.20927  0.60039  0.37413  1.0000
  C   C23       1.0  0.99659  0.31875  0.66044  1.0000
  C   C24       1.0  0.00338  0.68124  0.33955  1.0000
  C   C25       1.0  0.05762  0.19674  0.62684  1.0000
  C   C26       1.0  0.94237  0.80325  0.37315  1.0000
  N   N1        1.0  0.61890  0.24796  0.13024  1.0000
  N   N2        1.0  0.38114  0.75204  0.86977  1.0000
  N   N3        1.0  0.92399  0.15764  0.56084  1.0000
  N   N4        1.0  0.07600  0.84237  0.43915  1.0000
  Cl  Cl1       1.0  0.50021  0.86054  0.21633  1.0000
  Cl  Cl2       1.0  0.49979  0.13946  0.78367  1.0000
  O   O1        1.0  0.05368  0.28267  0.30135  1.0000
  O   O2        1.0  0.94637  0.71731  0.69866  1.0000
  O   O3        1.0  0.01788  0.10638  0.22056  1.0000
  O   O4        1.0  0.98211  0.89361  0.77944  1.0000
  O   O5        1.0  0.37138  0.12532  0.01430  1.0000
  O   O6        1.0  0.62864  0.87468  0.98569  1.0000
  O   O7        1.0  0.10901  0.31063  0.97755  1.0000
  O   O8        1.0  0.89097  0.68939  0.02246  1.0000
  O   O9        1.0  0.09293  0.88839  0.07161  1.0000
  O   O10       1.0  0.90706  0.11162  0.92838  1.0000
  O   O11       1.0  0.70022  0.06729  0.42730  1.0000
  O   O12       1.0  0.29977  0.93273  0.57268  1.0000
  O   O13       1.0  0.40011  0.23694  0.41868  1.0000
  O   O14       1.0  0.59990  0.76309  0.58131  1.0000
