data_image0
_chemical_formula_structural       Cu4H24C16S8N12
_chemical_formula_sum              "Cu4 H24 C16 S8 N12"
_cell_length_a       6.48289
_cell_length_b       7.7538
_cell_length_c       14.2703
_cell_angle_alpha    90.0006
_cell_angle_beta     89.9998
_cell_angle_gamma    99.4656

_space_group_name_H-M_alt    "P 1"
_space_group_IT_number       1

loop_
  _space_group_symop_operation_xyz
  'x, y, z'

loop_
  _atom_site_type_symbol
  _atom_site_label
  _atom_site_symmetry_multiplicity
  _atom_site_fract_x
  _atom_site_fract_y
  _atom_site_fract_z
  _atom_site_occupancy
  Cu  Cu1       1.0  0.94309  0.55949  0.92023  1.0000
  Cu  Cu2       1.0  0.55690  0.44050  0.42023  1.0000
  Cu  Cu3       1.0  0.05689  0.44051  0.07976  1.0000
  Cu  Cu4       1.0  0.44311  0.55949  0.57976  1.0000
  H   H1        1.0  0.31121  0.41022  0.89516  1.0000
  H   H2        1.0  0.18879  0.58977  0.39516  1.0000
  H   H3        1.0  0.68878  0.58979  0.10483  1.0000
  H   H4        1.0  0.81123  0.41021  0.60483  1.0000
  H   H5        1.0  0.96410  0.92402  0.88717  1.0000
  H   H6        1.0  0.53591  0.07598  0.38717  1.0000
  H   H7        1.0  0.03591  0.07598  0.11283  1.0000
  H   H8        1.0  0.46410  0.92402  0.61284  1.0000
  H   H9        1.0  0.26585  0.92759  0.76393  1.0000
  H   H10       1.0  0.23416  0.07241  0.26393  1.0000
  H   H11       1.0  0.73419  0.07241  0.23608  1.0000
  H   H12       1.0  0.76582  0.92760  0.73609  1.0000
  H   H13       1.0  0.35193  0.91788  0.88215  1.0000
  H   H14       1.0  0.14807  0.08211  0.38215  1.0000
  H   H15       1.0  0.64810  0.08214  0.11786  1.0000
  H   H16       1.0  0.85191  0.91786  0.61787  1.0000
  H   H17       1.0  0.56197  0.19740  0.84480  1.0000
  H   H18       1.0  0.93803  0.80259  0.34480  1.0000
  H   H19       1.0  0.43804  0.80263  0.15519  1.0000
  H   H20       1.0  0.06197  0.19737  0.65520  1.0000
  H   H21       1.0  0.39010  0.23728  0.75185  1.0000
  H   H22       1.0  0.10990  0.76272  0.25185  1.0000
  H   H23       1.0  0.60989  0.76272  0.24814  1.0000
  H   H24       1.0  0.89011  0.23729  0.74815  1.0000
  C   C1        1.0  0.27970  0.99629  0.83113  1.0000
  C   C2        1.0  0.22030  0.00371  0.33113  1.0000
  C   C3        1.0  0.72033  0.00371  0.16887  1.0000
  C   C4        1.0  0.77967  0.99629  0.66888  1.0000
  C   C5        1.0  0.59367  0.61678  0.78333  1.0000
  C   C6        1.0  0.90630  0.38322  0.28333  1.0000
  C   C7        1.0  0.40629  0.38321  0.21666  1.0000
  C   C8        1.0  0.09369  0.61679  0.71667  1.0000
  C   C9        1.0  0.08847  0.18614  0.90342  1.0000
  C   C10       1.0  0.41152  0.81386  0.40342  1.0000
  C   C11       1.0  0.91152  0.81387  0.09658  1.0000
  C   C12       1.0  0.58849  0.18613  0.59659  1.0000
  C   C13       1.0  0.39791  0.18427  0.82302  1.0000
  C   C14       1.0  0.10209  0.81572  0.32302  1.0000
  C   C15       1.0  0.60210  0.81574  0.17698  1.0000
  C   C16       1.0  0.89791  0.18427  0.67698  1.0000
  S   S1        1.0  0.88894  0.25994  0.96145  1.0000
  S   S2        1.0  0.61106  0.74006  0.46145  1.0000
  S   S3        1.0  0.11106  0.74006  0.03854  1.0000
  S   S4        1.0  0.38895  0.25994  0.53855  1.0000
  S   S5        1.0  0.62249  0.65838  0.89583  1.0000
  S   S6        1.0  0.87750  0.34163  0.39582  1.0000
  S   S7        1.0  0.37748  0.34162  0.10417  1.0000
  S   S8        1.0  0.12251  0.65837  0.60417  1.0000
  N   N1        1.0  0.27905  0.27768  0.88725  1.0000
  N   N2        1.0  0.22095  0.72232  0.38725  1.0000
  N   N3        1.0  0.72094  0.72233  0.11274  1.0000
  N   N4        1.0  0.77908  0.27767  0.61275  1.0000
  N   N5        1.0  0.07435  0.02540  0.86533  1.0000
  N   N6        1.0  0.42565  0.97460  0.36533  1.0000
  N   N7        1.0  0.92566  0.97461  0.13466  1.0000
  N   N8        1.0  0.57434  0.02539  0.63467  1.0000
  N   N9        1.0  0.57242  0.58846  0.70214  1.0000
  N   N10       1.0  0.92755  0.41155  0.20212  1.0000
  N   N11       1.0  0.42755  0.41153  0.29788  1.0000
  N   N12       1.0  0.07243  0.58846  0.79788  1.0000
