data_image0
_chemical_formula_structural       Ag4H36C48N8O20
_chemical_formula_sum              "Ag4 H36 C48 N8 O20"
_cell_length_a       8.42126
_cell_length_b       11.8618
_cell_length_c       12.6929
_cell_angle_alpha    90
_cell_angle_beta     107.488
_cell_angle_gamma    89.9999

_space_group_name_H-M_alt    "P 1"
_space_group_IT_number       1

loop_
  _space_group_symop_operation_xyz
  'x, y, z'

loop_
  _atom_site_type_symbol
  _atom_site_label
  _atom_site_symmetry_multiplicity
  _atom_site_fract_x
  _atom_site_fract_y
  _atom_site_fract_z
  _atom_site_occupancy
  Ag  Ag1       1.0  0.90708  0.84886  0.72013  1.0000
  Ag  Ag2       1.0  0.59292  0.34886  0.27987  1.0000
  Ag  Ag3       1.0  0.09292  0.15114  0.27987  1.0000
  Ag  Ag4       1.0  0.40708  0.65114  0.72013  1.0000
  H   H1        1.0  0.75657  0.02015  0.79651  1.0000
  H   H2        1.0  0.74343  0.52015  0.20349  1.0000
  H   H3        1.0  0.24343  0.97985  0.20349  1.0000
  H   H4        1.0  0.25657  0.47985  0.79651  1.0000
  H   H5        1.0  0.94689  0.06035  0.84251  1.0000
  H   H6        1.0  0.55311  0.56035  0.15748  1.0000
  H   H7        1.0  0.05311  0.93965  0.15749  1.0000
  H   H8        1.0  0.44689  0.43965  0.84251  1.0000
  H   H9        1.0  0.92240  0.81544  0.96506  1.0000
  H   H10       1.0  0.57760  0.31544  0.03494  1.0000
  H   H11       1.0  0.07760  0.18456  0.03494  1.0000
  H   H12       1.0  0.42240  0.68456  0.96506  1.0000
  H   H13       1.0  0.87066  0.66812  0.09195  1.0000
  H   H14       1.0  0.62934  0.16812  0.90805  1.0000
  H   H15       1.0  0.12934  0.33188  0.90805  1.0000
  H   H16       1.0  0.37066  0.83188  0.09195  1.0000
  H   H17       1.0  0.77909  0.47483  0.01448  1.0000
  H   H18       1.0  0.72091  0.97483  0.98552  1.0000
  H   H19       1.0  0.22091  0.52517  0.98552  1.0000
  H   H20       1.0  0.27909  0.02517  0.01448  1.0000
  H   H21       1.0  0.85412  0.61711  0.42718  1.0000
  H   H22       1.0  0.64588  0.11711  0.57282  1.0000
  H   H23       1.0  0.14588  0.38289  0.57282  1.0000
  H   H24       1.0  0.35412  0.88289  0.42718  1.0000
  H   H25       1.0  0.54988  0.66317  0.34755  1.0000
  H   H26       1.0  0.95012  0.16317  0.65245  1.0000
  H   H27       1.0  0.45012  0.33683  0.65245  1.0000
  H   H28       1.0  0.04988  0.83683  0.34755  1.0000
  H   H29       1.0  0.37035  0.65724  0.47295  1.0000
  H   H30       1.0  0.12966  0.15724  0.52705  1.0000
  H   H31       1.0  0.62966  0.34276  0.52705  1.0000
  H   H32       1.0  0.87034  0.84276  0.47295  1.0000
  H   H33       1.0  0.90755  0.42098  0.72945  1.0000
  H   H34       1.0  0.59246  0.92098  0.27055  1.0000
  H   H35       1.0  0.09245  0.57902  0.27055  1.0000
  H   H36       1.0  0.40755  0.07902  0.72945  1.0000
  C   C1        1.0  0.87778  0.73166  0.93504  1.0000
  C   C2        1.0  0.62221  0.23165  0.06496  1.0000
  C   C3        1.0  0.12221  0.26835  0.06496  1.0000
  C   C4        1.0  0.37779  0.76835  0.93504  1.0000
  C   C5        1.0  0.85087  0.64851  0.00520  1.0000
  C   C6        1.0  0.64913  0.14851  0.99480  1.0000
  C   C7        1.0  0.14913  0.35149  0.99480  1.0000
  C   C8        1.0  0.35087  0.85149  0.00520  1.0000
  C   C9        1.0  0.80008  0.54214  0.96188  1.0000
  C   C10       1.0  0.69992  0.04214  0.03812  1.0000
  C   C11       1.0  0.19992  0.45786  0.03812  1.0000
  C   C12       1.0  0.30009  0.95786  0.96188  1.0000
  C   C13       1.0  0.77450  0.52268  0.84932  1.0000
  C   C14       1.0  0.72550  0.02268  0.15068  1.0000
  C   C15       1.0  0.22550  0.47732  0.15069  1.0000
  C   C16       1.0  0.27450  0.97732  0.84932  1.0000
  C   C17       1.0  0.79184  0.61302  0.78233  1.0000
  C   C18       1.0  0.70816  0.11303  0.21767  1.0000
  C   C19       1.0  0.20816  0.38698  0.21767  1.0000
  C   C20       1.0  0.29184  0.88697  0.78233  1.0000
  C   C21       1.0  0.72876  0.40707  0.80329  1.0000
  C   C22       1.0  0.77124  0.90707  0.19671  1.0000
  C   C23       1.0  0.27124  0.59293  0.19671  1.0000
  C   C24       1.0  0.22876  0.09293  0.80329  1.0000
  C   C25       1.0  0.73186  0.60912  0.65847  1.0000
  C   C26       1.0  0.76814  0.10913  0.34154  1.0000
  C   C27       1.0  0.26814  0.39088  0.34154  1.0000
  C   C28       1.0  0.23186  0.89088  0.65847  1.0000
  C   C29       1.0  0.83772  0.59816  0.59246  1.0000
  C   C30       1.0  0.66228  0.09816  0.40754  1.0000
  C   C31       1.0  0.16228  0.40184  0.40754  1.0000
  C   C32       1.0  0.33772  0.90184  0.59246  1.0000
  C   C33       1.0  0.77253  0.62016  0.47928  1.0000
  C   C34       1.0  0.72747  0.12016  0.52072  1.0000
  C   C35       1.0  0.22747  0.37984  0.52072  1.0000
  C   C36       1.0  0.27253  0.87984  0.47928  1.0000
  C   C37       1.0  0.60408  0.64451  0.43498  1.0000
  C   C38       1.0  0.89592  0.14451  0.56502  1.0000
  C   C39       1.0  0.39592  0.35549  0.56502  1.0000
  C   C40       1.0  0.10408  0.85549  0.43498  1.0000
  C   C41       1.0  0.50429  0.64390  0.50456  1.0000
  C   C42       1.0  0.99570  0.14390  0.49544  1.0000
  C   C43       1.0  0.49571  0.35610  0.49544  1.0000
  C   C44       1.0  0.00430  0.85610  0.50456  1.0000
  C   C45       1.0  0.01606  0.56226  0.64013  1.0000
  C   C46       1.0  0.48394  0.06226  0.35988  1.0000
  C   C47       1.0  0.98394  0.43774  0.35988  1.0000
  C   C48       1.0  0.51606  0.93774  0.64013  1.0000
  N   N1        1.0  0.84673  0.71479  0.82570  1.0000
  N   N2        1.0  0.65327  0.21479  0.17430  1.0000
  N   N3        1.0  0.15327  0.28521  0.17430  1.0000
  N   N4        1.0  0.34673  0.78521  0.82570  1.0000
  N   N5        1.0  0.56724  0.62897  0.61446  1.0000
  N   N6        1.0  0.93276  0.12897  0.38554  1.0000
  N   N7        1.0  0.43276  0.37103  0.38554  1.0000
  N   N8        1.0  0.06724  0.87103  0.61446  1.0000
  O   O1        1.0  0.86895  0.99913  0.84522  1.0000
  O   O2        1.0  0.63105  0.49913  0.15478  1.0000
  O   O3        1.0  0.13105  0.00087  0.15479  1.0000
  O   O4        1.0  0.36895  0.50087  0.84522  1.0000
  O   O5        1.0  0.61972  0.35168  0.82744  1.0000
  O   O6        1.0  0.88029  0.85168  0.17256  1.0000
  O   O7        1.0  0.38029  0.64832  0.17256  1.0000
  O   O8        1.0  0.11972  0.14832  0.82744  1.0000
  O   O9        1.0  0.80984  0.36690  0.73737  1.0000
  O   O10       1.0  0.69016  0.86690  0.26263  1.0000
  O   O11       1.0  0.19016  0.63310  0.26263  1.0000
  O   O12       1.0  0.30984  0.13310  0.73737  1.0000
  O   O13       1.0  0.12261  0.60467  0.60153  1.0000
  O   O14       1.0  0.37739  0.10467  0.39847  1.0000
  O   O15       1.0  0.87739  0.39533  0.39847  1.0000
  O   O16       1.0  0.62261  0.89533  0.60153  1.0000
  O   O17       1.0  0.04562  0.48630  0.71732  1.0000
  O   O18       1.0  0.45438  0.98630  0.28268  1.0000
  O   O19       1.0  0.95438  0.51370  0.28268  1.0000
  O   O20       1.0  0.54562  0.01370  0.71732  1.0000
