data_image0
_chemical_formula_structural       Cu2H28C28N2O14
_chemical_formula_sum              "Cu2 H28 C28 N2 O14"
_cell_length_a       7.72127
_cell_length_b       10.2353
_cell_length_c       10.3039
_cell_angle_alpha    104.922
_cell_angle_beta     105.451
_cell_angle_gamma    99.663

_space_group_name_H-M_alt    "P 1"
_space_group_IT_number       1

loop_
  _space_group_symop_operation_xyz
  'x, y, z'

loop_
  _atom_site_type_symbol
  _atom_site_label
  _atom_site_symmetry_multiplicity
  _atom_site_fract_x
  _atom_site_fract_y
  _atom_site_fract_z
  _atom_site_occupancy
  Cu  Cu1       1.0  0.24194  0.05553  0.17017  1.0000
  Cu  Cu2       1.0  0.75805  0.94448  0.82983  1.0000
  H   H1        1.0  0.16565  0.81967  0.00912  1.0000
  H   H2        1.0  0.83434  0.18034  0.99087  1.0000
  H   H3        1.0  0.14724  0.91077  0.89544  1.0000
  H   H4        1.0  0.85276  0.08923  0.10456  1.0000
  H   H5        1.0  0.69534  0.07440  0.28653  1.0000
  H   H6        1.0  0.30465  0.92560  0.71347  1.0000
  H   H7        1.0  0.55408  0.99650  0.34440  1.0000
  H   H8        1.0  0.44593  0.00350  0.65560  1.0000
  H   H9        1.0  0.29995  0.54748  0.13790  1.0000
  H   H10       1.0  0.70006  0.45253  0.86211  1.0000
  H   H11       1.0  0.22496  0.60886  0.73207  1.0000
  H   H12       1.0  0.77504  0.39114  0.26793  1.0000
  H   H13       1.0  0.92518  0.09936  0.54676  1.0000
  H   H14       1.0  0.07483  0.90064  0.45324  1.0000
  H   H15       1.0  0.06567  0.49716  0.86977  1.0000
  H   H16       1.0  0.93432  0.50284  0.13023  1.0000
  H   H17       1.0  0.44814  0.09796  0.98043  1.0000
  H   H18       1.0  0.55186  0.90205  0.01956  1.0000
  H   H19       1.0  0.18530  0.34664  0.20774  1.0000
  H   H20       1.0  0.81471  0.65337  0.79227  1.0000
  H   H21       1.0  0.58427  0.28948  0.90937  1.0000
  H   H22       1.0  0.41573  0.71053  0.09062  1.0000
  H   H23       1.0  0.40787  0.63287  0.45025  1.0000
  H   H24       1.0  0.59215  0.36712  0.54975  1.0000
  H   H25       1.0  0.46387  0.63844  0.63070  1.0000
  H   H26       1.0  0.53613  0.36156  0.36930  1.0000
  H   H27       1.0  0.25401  0.68034  0.54705  1.0000
  H   H28       1.0  0.74600  0.31966  0.45295  1.0000
  C   C1        1.0  0.34139  0.45150  0.10242  1.0000
  C   C2        1.0  0.65861  0.54850  0.89758  1.0000
  C   C3        1.0  0.17140  0.41607  0.56210  1.0000
  C   C4        1.0  0.82860  0.58393  0.43791  1.0000
  C   C5        1.0  0.98810  0.29003  0.71845  1.0000
  C   C6        1.0  0.01189  0.70996  0.28155  1.0000
  C   C7        1.0  0.45853  0.43992  0.01885  1.0000
  C   C8        1.0  0.54147  0.56009  0.98115  1.0000
  C   C9        1.0  0.16223  0.49678  0.69179  1.0000
  C   C10       1.0  0.83776  0.50321  0.30821  1.0000
  C   C11       1.0  0.07694  0.18334  0.36568  1.0000
  C   C12       1.0  0.92306  0.81666  0.63432  1.0000
  C   C13       1.0  0.99355  0.21063  0.58732  1.0000
  C   C14       1.0  0.00645  0.78937  0.41268  1.0000
  C   C15       1.0  0.07147  0.43407  0.76877  1.0000
  C   C16       1.0  0.92852  0.56592  0.23122  1.0000
  C   C17       1.0  0.89699  0.22031  0.80197  1.0000
  C   C18       1.0  0.10300  0.77969  0.19802  1.0000
  C   C19       1.0  0.41857  0.19909  0.01377  1.0000
  C   C20       1.0  0.58143  0.80092  0.98623  1.0000
  C   C21       1.0  0.08299  0.27115  0.50859  1.0000
  C   C22       1.0  0.91701  0.72885  0.49141  1.0000
  C   C23       1.0  0.27155  0.33768  0.13960  1.0000
  C   C24       1.0  0.72845  0.66233  0.86040  1.0000
  C   C25       1.0  0.49382  0.30859  0.97318  1.0000
  C   C26       1.0  0.50618  0.69141  0.02682  1.0000
  C   C27       1.0  0.34965  0.61436  0.53164  1.0000
  C   C28       1.0  0.65036  0.38563  0.46837  1.0000
  N   N1        1.0  0.31060  0.21307  0.09742  1.0000
  N   N2        1.0  0.68940  0.78694  0.90258  1.0000
  O   O1        1.0  0.23278  0.18751  0.34377  1.0000
  O   O2        1.0  0.76722  0.81249  0.65623  1.0000
  O   O3        1.0  0.21779  0.91053  0.99239  1.0000
  O   O4        1.0  0.78220  0.08947  0.00761  1.0000
  O   O5        1.0  0.82167  0.08808  0.74253  1.0000
  O   O6        1.0  0.17832  0.91192  0.25747  1.0000
  O   O7        1.0  0.89836  0.29118  0.92354  1.0000
  O   O8        1.0  0.10164  0.70882  0.07645  1.0000
  O   O9        1.0  0.25462  0.46852  0.47983  1.0000
  O   O10       1.0  0.74539  0.53148  0.52017  1.0000
  O   O11       1.0  0.92011  0.11161  0.27626  1.0000
  O   O12       1.0  0.07989  0.88839  0.72374  1.0000
  O   O13       1.0  0.56166  0.04574  0.27637  1.0000
  O   O14       1.0  0.43834  0.95426  0.72363  1.0000
