data_image0
_chemical_formula_structural       Cu6H32C16I6Br2N4
_chemical_formula_sum              "Cu6 H32 C16 I6 Br2 N4"
_cell_length_a       9.44178
_cell_length_b       9.65115
_cell_length_c       10.4832
_cell_angle_alpha    61.9972
_cell_angle_beta     66.2232
_cell_angle_gamma    83.8993

_space_group_name_H-M_alt    "P 1"
_space_group_IT_number       1

loop_
  _space_group_symop_operation_xyz
  'x, y, z'

loop_
  _atom_site_type_symbol
  _atom_site_label
  _atom_site_symmetry_multiplicity
  _atom_site_fract_x
  _atom_site_fract_y
  _atom_site_fract_z
  _atom_site_occupancy
  Cu  Cu1       1.0  0.14056  0.48571  0.48161  1.0000
  Cu  Cu2       1.0  0.85944  0.51429  0.51839  1.0000
  Cu  Cu3       1.0  0.48902  0.48621  0.39060  1.0000
  Cu  Cu4       1.0  0.51099  0.51379  0.60940  1.0000
  Cu  Cu5       1.0  0.51406  0.86300  0.51433  1.0000
  Cu  Cu6       1.0  0.48595  0.13701  0.48567  1.0000
  H   H1        1.0  0.98773  0.68462  0.87312  1.0000
  H   H2        1.0  0.01226  0.31538  0.12687  1.0000
  H   H3        1.0  0.83518  0.64926  0.82902  1.0000
  H   H4        1.0  0.16481  0.35074  0.17098  1.0000
  H   H5        1.0  0.72135  0.45898  0.09614  1.0000
  H   H6        1.0  0.27865  0.54102  0.90386  1.0000
  H   H7        1.0  0.84055  0.53412  0.14954  1.0000
  H   H8        1.0  0.15945  0.46588  0.85045  1.0000
  H   H9        1.0  0.82146  0.00560  0.95638  1.0000
  H   H10       1.0  0.17854  0.99440  0.04362  1.0000
  H   H11       1.0  0.94820  0.85403  0.99111  1.0000
  H   H12       1.0  0.05180  0.14597  0.00889  1.0000
  H   H13       1.0  0.74967  0.72525  0.24620  1.0000
  H   H14       1.0  0.25033  0.27475  0.75380  1.0000
  H   H15       1.0  0.60732  0.84208  0.18973  1.0000
  H   H16       1.0  0.39268  0.15792  0.81027  1.0000
  H   H17       1.0  0.61953  0.96735  0.88441  1.0000
  H   H18       1.0  0.38047  0.03265  0.11559  1.0000
  H   H19       1.0  0.64409  0.84840  0.79056  1.0000
  H   H20       1.0  0.35591  0.15160  0.20944  1.0000
  H   H21       1.0  0.44175  0.74881  0.10992  1.0000
  H   H22       1.0  0.55825  0.25119  0.89008  1.0000
  H   H23       1.0  0.51995  0.61838  0.03015  1.0000
  H   H24       1.0  0.48005  0.38162  0.96985  1.0000
  H   H25       1.0  0.03971  0.96768  0.71690  1.0000
  H   H26       1.0  0.96029  0.03232  0.28311  1.0000
  H   H27       1.0  0.88209  0.08145  0.69601  1.0000
  H   H28       1.0  0.11791  0.91855  0.30399  1.0000
  H   H29       1.0  0.82853  0.94132  0.56686  1.0000
  H   H30       1.0  0.17148  0.05868  0.43314  1.0000
  H   H31       1.0  0.97890  0.82016  0.59527  1.0000
  H   H32       1.0  0.02111  0.17983  0.40473  1.0000
  C   C1        1.0  0.86161  0.68010  0.90578  1.0000
  C   C2        1.0  0.13839  0.31990  0.09422  1.0000
  C   C3        1.0  0.76792  0.56725  0.08202  1.0000
  C   C4        1.0  0.23208  0.43275  0.91797  1.0000
  C   C5        1.0  0.83095  0.87920  0.99394  1.0000
  C   C6        1.0  0.16905  0.12080  0.00606  1.0000
  C   C7        1.0  0.70267  0.77474  0.15505  1.0000
  C   C8        1.0  0.29732  0.22526  0.84495  1.0000
  C   C9        1.0  0.65090  0.85220  0.89065  1.0000
  C   C10       1.0  0.34910  0.14780  0.10935  1.0000
  C   C11       1.0  0.55096  0.71187  0.04871  1.0000
  C   C12       1.0  0.44904  0.28813  0.95129  1.0000
  C   C13       1.0  0.92614  0.96709  0.71083  1.0000
  C   C14       1.0  0.07386  0.03291  0.28918  1.0000
  C   C15       1.0  0.94053  0.93718  0.57692  1.0000
  C   C16       1.0  0.05948  0.06281  0.42308  1.0000
  I   I1        1.0  0.32375  0.69115  0.48171  1.0000
  I   I2        1.0  0.67625  0.30885  0.51829  1.0000
  I   I3        1.0  0.06933  0.65441  0.23463  1.0000
  I   I4        1.0  0.93067  0.34559  0.76537  1.0000
  I   I5        1.0  0.67751  0.09807  0.24314  1.0000
  I   I6        1.0  0.32250  0.90194  0.75686  1.0000
  Br  Br1       1.0  0.32354  0.33044  0.36597  1.0000
  Br  Br2       1.0  0.67646  0.66956  0.63403  1.0000
  N   N1        1.0  0.81832  0.84547  0.87195  1.0000
  N   N2        1.0  0.18167  0.15453  0.12805  1.0000
  N   N3        1.0  0.63720  0.64392  0.15206  1.0000
  N   N4        1.0  0.36280  0.35608  0.84794  1.0000
