data_image0
_chemical_formula_structural       Co2H14C14N4Cl2O8
_chemical_formula_sum              "Co2 H14 C14 N4 Cl2 O8"
_cell_length_a       7.65192
_cell_length_b       8.0006
_cell_length_c       9.01144
_cell_angle_alpha    80.0517
_cell_angle_beta     64.8339
_cell_angle_gamma    66.0174

_space_group_name_H-M_alt    "P 1"
_space_group_IT_number       1

loop_
  _space_group_symop_operation_xyz
  'x, y, z'

loop_
  _atom_site_type_symbol
  _atom_site_label
  _atom_site_symmetry_multiplicity
  _atom_site_fract_x
  _atom_site_fract_y
  _atom_site_fract_z
  _atom_site_occupancy
  Co  Co1       1.0  0.50000  0.50000  1.00000  1.0000
  Co  Co2       1.0  0.50000  0.00000  0.00000  1.0000
  H   H1        1.0  0.18468  0.06952  0.78463  1.0000
  H   H2        1.0  0.03079  0.43043  0.78473  1.0000
  H   H3        1.0  0.81532  0.93048  0.21537  1.0000
  H   H4        1.0  0.96921  0.56957  0.21527  1.0000
  H   H5        1.0  0.12345  0.15934  0.61026  1.0000
  H   H6        1.0  0.26682  0.34051  0.61051  1.0000
  H   H7        1.0  0.87654  0.84066  0.38974  1.0000
  H   H8        1.0  0.73318  0.65949  0.38948  1.0000
  H   H9        1.0  0.05529  0.75007  0.88967  1.0000
  H   H10       1.0  0.94471  0.24993  0.11034  1.0000
  H   H11       1.0  0.27780  0.93302  0.39793  1.0000
  H   H12       1.0  0.32459  0.56672  0.39809  1.0000
  H   H13       1.0  0.72220  0.06698  0.60207  1.0000
  H   H14       1.0  0.67541  0.43328  0.60191  1.0000
  C   C1        1.0  0.85829  0.15405  0.82873  1.0000
  C   C2        1.0  0.31278  0.34601  0.82910  1.0000
  C   C3        1.0  0.14171  0.84595  0.17127  1.0000
  C   C4        1.0  0.68722  0.65398  0.17090  1.0000
  C   C5        1.0  0.09121  0.07187  0.71850  1.0000
  C   C6        1.0  0.19049  0.42810  0.71872  1.0000
  C   C7        1.0  0.90879  0.92813  0.28150  1.0000
  C   C8        1.0  0.80951  0.57190  0.28128  1.0000
  C   C9        1.0  0.12165  0.75000  0.75705  1.0000
  C   C10       1.0  0.87835  0.25000  0.24295  1.0000
  C   C11       1.0  0.24089  0.83905  0.49762  1.0000
  C   C12       1.0  0.26185  0.66076  0.49770  1.0000
  C   C13       1.0  0.75911  0.16095  0.50238  1.0000
  C   C14       1.0  0.73815  0.33924  0.50231  1.0000
  N   N1        1.0  0.15377  0.89062  0.66013  1.0000
  N   N2        1.0  0.18644  0.60930  0.66025  1.0000
  N   N3        1.0  0.84623  0.10938  0.33987  1.0000
  N   N4        1.0  0.81356  0.39070  0.33975  1.0000
  Cl  Cl1       1.0  0.59969  0.75006  0.80051  1.0000
  Cl  Cl2       1.0  0.40031  0.24994  0.19949  1.0000
  O   O1        1.0  0.79985  0.31205  0.88372  1.0000
  O   O2        1.0  0.31610  0.18805  0.88412  1.0000
  O   O3        1.0  0.20015  0.68795  0.11628  1.0000
  O   O4        1.0  0.68390  0.81195  0.11588  1.0000
  O   O5        1.0  0.75155  0.05982  0.85054  1.0000
  O   O6        1.0  0.39756  0.44031  0.85099  1.0000
  O   O7        1.0  0.24845  0.94018  0.14946  1.0000
  O   O8        1.0  0.60244  0.55969  0.14901  1.0000
