data_image0
_chemical_formula_structural       Cu12H40C24N12Cl16
_chemical_formula_sum              "Cu12 H40 C24 N12 Cl16"
_cell_length_a       8.87794
_cell_length_b       9.92607
_cell_length_c       14.254
_cell_angle_alpha    89.9998
_cell_angle_beta     90.0001
_cell_angle_gamma    94.2261

_space_group_name_H-M_alt    "P 1"
_space_group_IT_number       1

loop_
  _space_group_symop_operation_xyz
  'x, y, z'

loop_
  _atom_site_type_symbol
  _atom_site_label
  _atom_site_symmetry_multiplicity
  _atom_site_fract_x
  _atom_site_fract_y
  _atom_site_fract_z
  _atom_site_occupancy
  Cu  Cu1       1.0  0.38660  0.30706  0.35581  1.0000
  Cu  Cu2       1.0  0.11340  0.19294  0.85580  1.0000
  Cu  Cu3       1.0  0.61340  0.69294  0.64419  1.0000
  Cu  Cu4       1.0  0.88660  0.80706  0.14420  1.0000
  Cu  Cu5       1.0  0.43200  0.47471  0.20712  1.0000
  Cu  Cu6       1.0  0.06800  0.02530  0.70712  1.0000
  Cu  Cu7       1.0  0.56800  0.52529  0.79288  1.0000
  Cu  Cu8       1.0  0.93200  0.97471  0.29288  1.0000
  Cu  Cu9       1.0  0.58040  0.64540  0.02495  1.0000
  Cu  Cu10      1.0  0.91961  0.85460  0.52495  1.0000
  Cu  Cu11      1.0  0.41960  0.35460  0.97505  1.0000
  Cu  Cu12      1.0  0.08039  0.14540  0.47505  1.0000
  H   H1        1.0  0.67300  0.97455  0.73618  1.0000
  H   H2        1.0  0.82700  0.52545  0.23618  1.0000
  H   H3        1.0  0.32700  0.02545  0.26382  1.0000
  H   H4        1.0  0.17300  0.47455  0.76382  1.0000
  H   H5        1.0  0.50972  0.92433  0.78503  1.0000
  H   H6        1.0  0.99029  0.57566  0.28503  1.0000
  H   H7        1.0  0.49028  0.07567  0.21497  1.0000
  H   H8        1.0  0.00971  0.42434  0.71497  1.0000
  H   H9        1.0  0.65106  0.23396  0.65039  1.0000
  H   H10       1.0  0.84894  0.26604  0.15039  1.0000
  H   H11       1.0  0.34894  0.76603  0.34961  1.0000
  H   H12       1.0  0.15107  0.73397  0.84961  1.0000
  H   H13       1.0  0.68605  0.08297  0.58994  1.0000
  H   H14       1.0  0.81395  0.41703  0.08994  1.0000
  H   H15       1.0  0.31395  0.91703  0.41006  1.0000
  H   H16       1.0  0.18606  0.58297  0.91007  1.0000
  H   H17       1.0  0.39892  0.12417  0.70749  1.0000
  H   H18       1.0  0.10108  0.37583  0.20749  1.0000
  H   H19       1.0  0.60108  0.87583  0.29251  1.0000
  H   H20       1.0  0.89892  0.62417  0.79251  1.0000
  H   H21       1.0  0.43281  0.97528  0.64382  1.0000
  H   H22       1.0  0.06719  0.52472  0.14382  1.0000
  H   H23       1.0  0.56719  0.02472  0.35618  1.0000
  H   H24       1.0  0.93281  0.47529  0.85618  1.0000
  H   H25       1.0  0.49279  0.12856  0.86969  1.0000
  H   H26       1.0  0.00721  0.37144  0.36969  1.0000
  H   H27       1.0  0.50720  0.87145  0.13031  1.0000
  H   H28       1.0  0.99279  0.62856  0.63031  1.0000
  H   H29       1.0  0.65446  0.20405  0.80968  1.0000
  H   H30       1.0  0.84553  0.29595  0.30968  1.0000
  H   H31       1.0  0.34554  0.79595  0.19032  1.0000
  H   H32       1.0  0.15447  0.70405  0.69032  1.0000
  H   H33       1.0  0.82358  0.04942  0.88038  1.0000
  H   H34       1.0  0.67643  0.45058  0.38038  1.0000
  H   H35       1.0  0.17642  0.95058  0.11963  1.0000
  H   H36       1.0  0.32357  0.54941  0.61962  1.0000
  H   H37       1.0  0.72233  0.12756  0.96967  1.0000
  H   H38       1.0  0.77768  0.37244  0.46967  1.0000
  H   H39       1.0  0.27767  0.87244  0.03033  1.0000
  H   H40       1.0  0.22232  0.62756  0.53033  1.0000
  C   C1        1.0  0.52097  0.19457  0.53281  1.0000
  C   C2        1.0  0.97904  0.30543  0.03281  1.0000
  C   C3        1.0  0.47904  0.80543  0.46719  1.0000
  C   C4        1.0  0.02096  0.69457  0.96718  1.0000
  C   C5        1.0  0.59581  0.14507  0.61447  1.0000
  C   C6        1.0  0.90419  0.35493  0.11447  1.0000
  C   C7        1.0  0.40420  0.85493  0.38553  1.0000
  C   C8        1.0  0.09580  0.64506  0.88553  1.0000
  C   C9        1.0  0.48709  0.06348  0.67973  1.0000
  C   C10       1.0  0.01291  0.43653  0.17973  1.0000
  C   C11       1.0  0.51291  0.93652  0.32027  1.0000
  C   C12       1.0  0.98708  0.56348  0.82027  1.0000
  C   C13       1.0  0.60208  0.10971  0.83870  1.0000
  C   C14       1.0  0.89792  0.39029  0.33870  1.0000
  C   C15       1.0  0.39792  0.89029  0.16130  1.0000
  C   C16       1.0  0.10209  0.60971  0.66130  1.0000
  C   C17       1.0  0.70993  0.05576  0.91090  1.0000
  C   C18       1.0  0.79008  0.44425  0.41090  1.0000
  C   C19       1.0  0.29007  0.94424  0.08911  1.0000
  C   C20       1.0  0.20992  0.55575  0.58910  1.0000
  C   C21       1.0  0.65869  0.92438  0.94766  1.0000
  C   C22       1.0  0.84132  0.57562  0.44766  1.0000
  C   C23       1.0  0.34130  0.07562  0.05235  1.0000
  C   C24       1.0  0.15868  0.42437  0.55235  1.0000
  N   N1        1.0  0.46530  0.23707  0.46597  1.0000
  N   N2        1.0  0.03470  0.26293  0.96597  1.0000
  N   N3        1.0  0.53470  0.76292  0.53403  1.0000
  N   N4        1.0  0.96530  0.73708  0.03403  1.0000
  N   N5        1.0  0.57187  0.01139  0.76087  1.0000
  N   N6        1.0  0.92814  0.48861  0.26087  1.0000
  N   N7        1.0  0.42814  0.98861  0.23913  1.0000
  N   N8        1.0  0.07186  0.51139  0.73914  1.0000
  N   N9        1.0  0.61763  0.81676  0.97413  1.0000
  N   N10       1.0  0.88238  0.68324  0.47414  1.0000
  N   N11       1.0  0.38235  0.18324  0.02587  1.0000
  N   N12       1.0  0.11763  0.31675  0.52586  1.0000
  Cl  Cl1       1.0  0.16730  0.14938  0.31302  1.0000
  Cl  Cl2       1.0  0.33270  0.35062  0.81302  1.0000
  Cl  Cl3       1.0  0.83269  0.85062  0.68698  1.0000
  Cl  Cl4       1.0  0.66730  0.64938  0.18698  1.0000
  Cl  Cl5       1.0  0.29934  0.51915  0.34012  1.0000
  Cl  Cl6       1.0  0.20065  0.98085  0.84012  1.0000
  Cl  Cl7       1.0  0.70066  0.48085  0.65988  1.0000
  Cl  Cl8       1.0  0.79934  0.01916  0.15988  1.0000
  Cl  Cl9       1.0  0.66127  0.46200  0.93686  1.0000
  Cl  Cl10      1.0  0.83873  0.03799  0.43686  1.0000
  Cl  Cl11      1.0  0.33873  0.53800  0.06314  1.0000
  Cl  Cl12      1.0  0.16128  0.96200  0.56314  1.0000
  Cl  Cl13      1.0  0.56330  0.28660  0.22774  1.0000
  Cl  Cl14      1.0  0.93670  0.21340  0.72774  1.0000
  Cl  Cl15      1.0  0.43670  0.71340  0.77226  1.0000
  Cl  Cl16      1.0  0.06330  0.78660  0.27226  1.0000
