data_image0
_chemical_formula_structural       Cu2H36C48N8O12
_chemical_formula_sum              "Cu2 H36 C48 N8 O12"
_cell_length_a       10.8143
_cell_length_b       10.8146
_cell_length_c       12.5967
_cell_angle_alpha    68.5399
_cell_angle_beta     68.5423
_cell_angle_gamma    82.8608

_space_group_name_H-M_alt    "P 1"
_space_group_IT_number       1

loop_
  _space_group_symop_operation_xyz
  'x, y, z'

loop_
  _atom_site_type_symbol
  _atom_site_label
  _atom_site_symmetry_multiplicity
  _atom_site_fract_x
  _atom_site_fract_y
  _atom_site_fract_z
  _atom_site_occupancy
  Cu  Cu1       1.0  0.50000  0.00000  1.00000  1.0000
  Cu  Cu2       1.0  1.00000  0.50000  0.50000  1.0000
  H   H1        1.0  0.11403  0.81564  0.97274  1.0000
  H   H2        1.0  0.18435  0.88597  0.52727  1.0000
  H   H3        1.0  0.88597  0.18433  0.02727  1.0000
  H   H4        1.0  0.81564  0.11404  0.47272  1.0000
  H   H5        1.0  0.86763  0.78972  0.04803  1.0000
  H   H6        1.0  0.21026  0.13237  0.45198  1.0000
  H   H7        1.0  0.13237  0.21026  0.95198  1.0000
  H   H8        1.0  0.78973  0.86764  0.54802  1.0000
  H   H9        1.0  0.72900  0.85307  0.23351  1.0000
  H   H10       1.0  0.14691  0.27100  0.26649  1.0000
  H   H11       1.0  0.27100  0.14691  0.76649  1.0000
  H   H12       1.0  0.85309  0.72900  0.73351  1.0000
  H   H13       1.0  0.33727  0.24299  0.97730  1.0000
  H   H14       1.0  0.75701  0.66273  0.52270  1.0000
  H   H15       1.0  0.66273  0.75702  0.02269  1.0000
  H   H16       1.0  0.24298  0.33727  0.47731  1.0000
  H   H17       1.0  0.31802  0.44554  0.80562  1.0000
  H   H18       1.0  0.55447  0.68199  0.69437  1.0000
  H   H19       1.0  0.68198  0.55448  0.19437  1.0000
  H   H20       1.0  0.44553  0.31801  0.30563  1.0000
  H   H21       1.0  0.61000  0.27152  0.55974  1.0000
  H   H22       1.0  0.72848  0.39000  0.94027  1.0000
  H   H23       1.0  0.39001  0.72849  0.44026  1.0000
  H   H24       1.0  0.27152  0.61000  0.05974  1.0000
  H   H25       1.0  0.61553  0.07887  0.73954  1.0000
  H   H26       1.0  0.92113  0.38447  0.76048  1.0000
  H   H27       1.0  0.38448  0.92114  0.26046  1.0000
  H   H28       1.0  0.07887  0.61553  0.23953  1.0000
  H   H29       1.0  0.34808  0.50504  0.56312  1.0000
  H   H30       1.0  0.49497  0.65193  0.93687  1.0000
  H   H31       1.0  0.65194  0.49496  0.43686  1.0000
  H   H32       1.0  0.50503  0.34807  0.06314  1.0000
  H   H33       1.0  0.46560  0.58570  0.58111  1.0000
  H   H34       1.0  0.41430  0.53441  0.91889  1.0000
  H   H35       1.0  0.53441  0.41431  0.41888  1.0000
  H   H36       1.0  0.58570  0.46559  0.08112  1.0000
  C   C1        1.0  0.25810  0.90978  0.05915  1.0000
  C   C2        1.0  0.09025  0.74189  0.44085  1.0000
  C   C3        1.0  0.74190  0.09021  0.94085  1.0000
  C   C4        1.0  0.90976  0.25811  0.55915  1.0000
  C   C5        1.0  0.02911  0.92159  0.21355  1.0000
  C   C6        1.0  0.07841  0.97089  0.28645  1.0000
  C   C7        1.0  0.97089  0.07841  0.78644  1.0000
  C   C8        1.0  0.92158  0.02911  0.71356  1.0000
  C   C9        1.0  0.10949  0.88876  0.11196  1.0000
  C   C10       1.0  0.11125  0.89051  0.38804  1.0000
  C   C11       1.0  0.89051  0.11124  0.88805  1.0000
  C   C12       1.0  0.88874  0.10949  0.61196  1.0000
  C   C13       1.0  0.05165  0.83826  0.05324  1.0000
  C   C14       1.0  0.16174  0.94836  0.44676  1.0000
  C   C15       1.0  0.94836  0.16173  0.94675  1.0000
  C   C16       1.0  0.83826  0.05165  0.55324  1.0000
  C   C17       1.0  0.91413  0.82348  0.09607  1.0000
  C   C18       1.0  0.17651  0.08586  0.40394  1.0000
  C   C19       1.0  0.08586  0.17650  0.90394  1.0000
  C   C20       1.0  0.82349  0.91414  0.59606  1.0000
  C   C21       1.0  0.83682  0.85848  0.19520  1.0000
  C   C22       1.0  0.14151  0.16317  0.30480  1.0000
  C   C23       1.0  0.16318  0.14151  0.80480  1.0000
  C   C24       1.0  0.85849  0.83683  0.69519  1.0000
  C   C25       1.0  0.39629  0.25538  0.88282  1.0000
  C   C26       1.0  0.74462  0.60371  0.61718  1.0000
  C   C27       1.0  0.60371  0.74463  0.11716  1.0000
  C   C28       1.0  0.25538  0.39629  0.38283  1.0000
  C   C29       1.0  0.38609  0.36670  0.78673  1.0000
  C   C30       1.0  0.63330  0.61392  0.71327  1.0000
  C   C31       1.0  0.61392  0.63331  0.21327  1.0000
  C   C32       1.0  0.36669  0.38608  0.28673  1.0000
  C   C33       1.0  0.46173  0.37660  0.66640  1.0000
  C   C34       1.0  0.62339  0.53828  0.83359  1.0000
  C   C35       1.0  0.53828  0.62341  0.33359  1.0000
  C   C36       1.0  0.37661  0.46172  0.16641  1.0000
  C   C37       1.0  0.54494  0.27045  0.64946  1.0000
  C   C38       1.0  0.72955  0.45506  0.85055  1.0000
  C   C39       1.0  0.45507  0.72957  0.35053  1.0000
  C   C40       1.0  0.27045  0.54494  0.14946  1.0000
  C   C41       1.0  0.55012  0.16192  0.74981  1.0000
  C   C42       1.0  0.83808  0.44987  0.75019  1.0000
  C   C43       1.0  0.44988  0.83808  0.25019  1.0000
  C   C44       1.0  0.16192  0.55013  0.24981  1.0000
  C   C45       1.0  0.45119  0.49765  0.56234  1.0000
  C   C46       1.0  0.50235  0.54881  0.93766  1.0000
  C   C47       1.0  0.54882  0.50235  0.43764  1.0000
  C   C48       1.0  0.49765  0.45118  0.06236  1.0000
  N   N1        1.0  0.89254  0.90743  0.25371  1.0000
  N   N2        1.0  0.09257  0.10745  0.24628  1.0000
  N   N3        1.0  0.10745  0.09258  0.74628  1.0000
  N   N4        1.0  0.90742  0.89255  0.75371  1.0000
  N   N5        1.0  0.47766  0.15458  0.86425  1.0000
  N   N6        1.0  0.84542  0.52234  0.63575  1.0000
  N   N7        1.0  0.52235  0.84543  0.13574  1.0000
  N   N8        1.0  0.15458  0.47766  0.36425  1.0000
  O   O1        1.0  0.30448  0.99174  0.08961  1.0000
  O   O2        1.0  0.00827  0.69552  0.41039  1.0000
  O   O3        1.0  0.69552  0.00826  0.91040  1.0000
  O   O4        1.0  0.99173  0.30448  0.58961  1.0000
  O   O5        1.0  0.32847  0.85201  0.98792  1.0000
  O   O6        1.0  0.14802  0.67152  0.51207  1.0000
  O   O7        1.0  0.67153  0.14798  0.01209  1.0000
  O   O8        1.0  0.85199  0.32848  0.48792  1.0000
  O   O9        1.0  0.81750  0.93883  0.34647  1.0000
  O   O10       1.0  0.06118  0.18249  0.15352  1.0000
  O   O11       1.0  0.18248  0.06118  0.65352  1.0000
  O   O12       1.0  0.93882  0.81752  0.84648  1.0000
