data_image0
_chemical_formula_structural       Ni2H24C36S4N4
_chemical_formula_sum              "Ni2 H24 C36 S4 N4"
_cell_length_a       3.64514
_cell_length_b       12.8497
_cell_length_c       14.3864
_cell_angle_alpha    89.9996
_cell_angle_beta     90.0001
_cell_angle_gamma    91.8461

_space_group_name_H-M_alt    "P 1"
_space_group_IT_number       1

loop_
  _space_group_symop_operation_xyz
  'x, y, z'

loop_
  _atom_site_type_symbol
  _atom_site_label
  _atom_site_symmetry_multiplicity
  _atom_site_fract_x
  _atom_site_fract_y
  _atom_site_fract_z
  _atom_site_occupancy
  Ni  Ni1       1.0  0.50001  0.00000  0.00000  1.0000
  Ni  Ni2       1.0  0.50001  0.50000  0.50001  1.0000
  H   H1        1.0  0.70953  0.01632  0.20222  1.0000
  H   H2        1.0  0.29044  0.48367  0.70223  1.0000
  H   H3        1.0  0.29044  0.98368  0.79779  1.0000
  H   H4        1.0  0.70955  0.51634  0.29778  1.0000
  H   H5        1.0  0.73855  0.89378  0.33750  1.0000
  H   H6        1.0  0.26145  0.60622  0.83750  1.0000
  H   H7        1.0  0.26140  0.10622  0.66251  1.0000
  H   H8        1.0  0.73856  0.39379  0.16250  1.0000
  H   H9        1.0  0.50129  0.71003  0.31794  1.0000
  H   H10       1.0  0.49870  0.78996  0.81795  1.0000
  H   H11       1.0  0.49866  0.28997  0.68205  1.0000
  H   H12       1.0  0.50131  0.21005  0.18205  1.0000
  H   H13       1.0  0.18459  0.57725  0.21538  1.0000
  H   H14       1.0  0.81538  0.92275  0.71538  1.0000
  H   H15       1.0  0.81543  0.42275  0.78462  1.0000
  H   H16       1.0  0.18461  0.07725  0.28461  1.0000
  H   H17       1.0  0.86849  0.53444  0.06574  1.0000
  H   H18       1.0  0.13145  0.96555  0.56573  1.0000
  H   H19       1.0  0.13155  0.46556  0.93426  1.0000
  H   H20       1.0  0.86851  0.03444  0.43426  1.0000
  H   H21       1.0  0.79248  0.67049  0.94588  1.0000
  H   H22       1.0  0.20752  0.82950  0.44588  1.0000
  H   H23       1.0  0.20754  0.32952  0.05412  1.0000
  H   H24       1.0  0.79248  0.17048  0.55411  1.0000
  C   C1        1.0  0.58861  0.93772  0.19793  1.0000
  C   C2        1.0  0.41135  0.56227  0.69794  1.0000
  C   C3        1.0  0.41137  0.06229  0.80207  1.0000
  C   C4        1.0  0.58866  0.43773  0.30207  1.0000
  C   C5        1.0  0.60762  0.86818  0.27305  1.0000
  C   C6        1.0  0.39234  0.63181  0.77305  1.0000
  C   C7        1.0  0.39237  0.13183  0.72695  1.0000
  C   C8        1.0  0.60767  0.36820  0.22695  1.0000
  C   C9        1.0  0.47662  0.76702  0.26220  1.0000
  C   C10       1.0  0.52332  0.73298  0.76221  1.0000
  C   C11       1.0  0.52337  0.23298  0.73779  1.0000
  C   C12       1.0  0.47665  0.26703  0.23780  1.0000
  C   C13       1.0  0.30505  0.73739  0.17754  1.0000
  C   C14       1.0  0.69494  0.76261  0.67753  1.0000
  C   C15       1.0  0.69495  0.26261  0.82247  1.0000
  C   C16       1.0  0.30506  0.23739  0.32246  1.0000
  C   C17       1.0  0.15894  0.63563  0.16111  1.0000
  C   C18       1.0  0.84104  0.86437  0.66112  1.0000
  C   C19       1.0  0.84108  0.36438  0.83890  1.0000
  C   C20       1.0  0.15895  0.13562  0.33888  1.0000
  C   C21       1.0  0.98489  0.61244  0.07805  1.0000
  C   C22       1.0  0.01509  0.88755  0.57804  1.0000
  C   C23       1.0  0.01512  0.38756  0.92195  1.0000
  C   C24       1.0  0.98493  0.11244  0.42195  1.0000
  C   C25       1.0  0.94386  0.68923  0.00934  1.0000
  C   C26       1.0  0.05610  0.81076  0.50935  1.0000
  C   C27       1.0  0.05615  0.31077  0.99066  1.0000
  C   C28       1.0  0.94392  0.18922  0.49066  1.0000
  C   C29       1.0  0.08466  0.79052  0.02177  1.0000
  C   C30       1.0  0.91532  0.70947  0.52178  1.0000
  C   C31       1.0  0.91535  0.20948  0.97822  1.0000
  C   C32       1.0  0.08468  0.29053  0.47822  1.0000
  C   C33       1.0  0.27872  0.81432  0.10621  1.0000
  C   C34       1.0  0.72123  0.68568  0.60621  1.0000
  C   C35       1.0  0.72131  0.18568  0.89379  1.0000
  C   C36       1.0  0.27875  0.31432  0.39379  1.0000
  S   S1        1.0  0.01734  0.88970  0.94172  1.0000
  S   S2        1.0  0.98267  0.61030  0.44173  1.0000
  S   S3        1.0  0.98266  0.11031  0.05828  1.0000
  S   S4        1.0  0.01735  0.38969  0.55827  1.0000
  N   N1        1.0  0.43515  0.91194  0.11674  1.0000
  N   N2        1.0  0.56485  0.58804  0.61674  1.0000
  N   N3        1.0  0.56485  0.08805  0.88326  1.0000
  N   N4        1.0  0.43516  0.41195  0.38326  1.0000
