data_image0
_chemical_formula_structural       Cd4H36C48N16O16
_chemical_formula_sum              "Cd4 H36 C48 N16 O16"
_cell_length_a       7.50558
_cell_length_b       10.7087
_cell_length_c       17.5393
_cell_angle_alpha    90.0001
_cell_angle_beta     95.2454
_cell_angle_gamma    89.9998

_space_group_name_H-M_alt    "P 1"
_space_group_IT_number       1

loop_
  _space_group_symop_operation_xyz
  'x, y, z'

loop_
  _atom_site_type_symbol
  _atom_site_label
  _atom_site_symmetry_multiplicity
  _atom_site_fract_x
  _atom_site_fract_y
  _atom_site_fract_z
  _atom_site_occupancy
  Cd  Cd1       1.0  0.75000  0.53929  0.50000  1.0000
  Cd  Cd2       1.0  0.25000  0.46071  0.50000  1.0000
  Cd  Cd3       1.0  0.75000  0.93522  0.00000  1.0000
  Cd  Cd4       1.0  0.25000  0.06478  1.00000  1.0000
  H   H1        1.0  0.07014  0.72924  0.62892  1.0000
  H   H2        1.0  0.42986  0.72924  0.37108  1.0000
  H   H3        1.0  0.92986  0.27076  0.37108  1.0000
  H   H4        1.0  0.57015  0.27076  0.62892  1.0000
  H   H5        1.0  0.87389  0.97693  0.75413  1.0000
  H   H6        1.0  0.62610  0.97693  0.24587  1.0000
  H   H7        1.0  0.12610  0.02307  0.24587  1.0000
  H   H8        1.0  0.37390  0.02307  0.75413  1.0000
  H   H9        1.0  0.08111  0.93008  0.72033  1.0000
  H   H10       1.0  0.41889  0.93008  0.27967  1.0000
  H   H11       1.0  0.91888  0.06992  0.27967  1.0000
  H   H12       1.0  0.58112  0.06992  0.72034  1.0000
  H   H13       1.0  0.09450  0.74768  0.80891  1.0000
  H   H14       1.0  0.40549  0.74767  0.19109  1.0000
  H   H15       1.0  0.90549  0.25232  0.19109  1.0000
  H   H16       1.0  0.59450  0.25233  0.80892  1.0000
  H   H17       1.0  0.88164  0.78855  0.83967  1.0000
  H   H18       1.0  0.61835  0.78855  0.16033  1.0000
  H   H19       1.0  0.11835  0.21145  0.16033  1.0000
  H   H20       1.0  0.38165  0.21145  0.83967  1.0000
  H   H21       1.0  0.99534  0.84447  0.15835  1.0000
  H   H22       1.0  0.50466  0.84448  0.84165  1.0000
  H   H23       1.0  0.00466  0.15553  0.84165  1.0000
  H   H24       1.0  0.49534  0.15553  0.15835  1.0000
  H   H25       1.0  0.09414  0.65063  0.22897  1.0000
  H   H26       1.0  0.40585  0.65064  0.77103  1.0000
  H   H27       1.0  0.90586  0.34937  0.77103  1.0000
  H   H28       1.0  0.59415  0.34937  0.22897  1.0000
  H   H29       1.0  0.00705  0.44244  0.16970  1.0000
  H   H30       1.0  0.49294  0.44245  0.83030  1.0000
  H   H31       1.0  0.99294  0.55755  0.83030  1.0000
  H   H32       1.0  0.50706  0.55756  0.16970  1.0000
  H   H33       1.0  0.84635  0.32238  0.05977  1.0000
  H   H34       1.0  0.65364  0.32238  0.94023  1.0000
  H   H35       1.0  0.15364  0.67762  0.94023  1.0000
  H   H36       1.0  0.34636  0.67762  0.05977  1.0000
  C   C1        1.0  0.64320  0.71958  0.63214  1.0000
  C   C2        1.0  0.85679  0.71959  0.36787  1.0000
  C   C3        1.0  0.35679  0.28041  0.36786  1.0000
  C   C4        1.0  0.14321  0.28041  0.63213  1.0000
  C   C5        1.0  0.46048  0.66940  0.60708  1.0000
  C   C6        1.0  0.03952  0.66941  0.39292  1.0000
  C   C7        1.0  0.53951  0.33060  0.39291  1.0000
  C   C8        1.0  0.96049  0.33060  0.60708  1.0000
  C   C9        1.0  0.92797  0.73952  0.63664  1.0000
  C   C10       1.0  0.57203  0.73951  0.36336  1.0000
  C   C11       1.0  0.07203  0.26048  0.36336  1.0000
  C   C12       1.0  0.42798  0.26048  0.63664  1.0000
  C   C13       1.0  0.96002  0.89703  0.74435  1.0000
  C   C14       1.0  0.53998  0.89702  0.25565  1.0000
  C   C15       1.0  0.03997  0.10297  0.25565  1.0000
  C   C16       1.0  0.46003  0.10297  0.74435  1.0000
  C   C17       1.0  0.00438  0.82592  0.81923  1.0000
  C   C18       1.0  0.49562  0.82592  0.18076  1.0000
  C   C19       1.0  0.99562  0.17408  0.18077  1.0000
  C   C20       1.0  0.50438  0.17408  0.81924  1.0000
  C   C21       1.0  0.10026  0.90808  0.88067  1.0000
  C   C22       1.0  0.39974  0.90807  0.11933  1.0000
  C   C23       1.0  0.89974  0.09193  0.11933  1.0000
  C   C24       1.0  0.60026  0.09193  0.88067  1.0000
  C   C25       1.0  0.95841  0.75312  0.13474  1.0000
  C   C26       1.0  0.54158  0.75312  0.86527  1.0000
  C   C27       1.0  0.04159  0.24688  0.86527  1.0000
  C   C28       1.0  0.45841  0.24688  0.13473  1.0000
  C   C29       1.0  0.01487  0.64329  0.17379  1.0000
  C   C30       1.0  0.48512  0.64329  0.82621  1.0000
  C   C31       1.0  0.98513  0.35671  0.82621  1.0000
  C   C32       1.0  0.51488  0.35671  0.17379  1.0000
  C   C33       1.0  0.96448  0.52957  0.14151  1.0000
  C   C34       1.0  0.53551  0.52957  0.85848  1.0000
  C   C35       1.0  0.03552  0.47043  0.85849  1.0000
  C   C36       1.0  0.46448  0.47043  0.14152  1.0000
  C   C37       1.0  0.85821  0.52535  0.07075  1.0000
  C   C38       1.0  0.64179  0.52535  0.92924  1.0000
  C   C39       1.0  0.14178  0.47465  0.92925  1.0000
  C   C40       1.0  0.35821  0.47465  0.07076  1.0000
  C   C41       1.0  0.80550  0.64141  0.03606  1.0000
  C   C42       1.0  0.69449  0.64141  0.96394  1.0000
  C   C43       1.0  0.19449  0.35859  0.96394  1.0000
  C   C44       1.0  0.30550  0.35859  0.03606  1.0000
  C   C45       1.0  0.80276  0.41086  0.03380  1.0000
  C   C46       1.0  0.69724  0.41086  0.96620  1.0000
  C   C47       1.0  0.19724  0.58914  0.96620  1.0000
  C   C48       1.0  0.30276  0.58914  0.03380  1.0000
  N   N1        1.0  0.85650  0.75219  0.06854  1.0000
  N   N2        1.0  0.64350  0.75219  0.93146  1.0000
  N   N3        1.0  0.14350  0.24781  0.93146  1.0000
  N   N4        1.0  0.35650  0.24781  0.06854  1.0000
  N   N5        1.0  0.79202  0.67696  0.60043  1.0000
  N   N6        1.0  0.70798  0.67696  0.39957  1.0000
  N   N7        1.0  0.20798  0.32304  0.39957  1.0000
  N   N8        1.0  0.29203  0.32304  0.60043  1.0000
  N   N9        1.0  0.86156  0.81707  0.68778  1.0000
  N   N10       1.0  0.63844  0.81706  0.31222  1.0000
  N   N11       1.0  0.13844  0.18293  0.31222  1.0000
  N   N12       1.0  0.36157  0.18294  0.68778  1.0000
  N   N13       1.0  0.68104  0.80545  0.68616  1.0000
  N   N14       1.0  0.81896  0.80545  0.31384  1.0000
  N   N15       1.0  0.31896  0.19454  0.31384  1.0000
  N   N16       1.0  0.18105  0.19455  0.68616  1.0000
  O   O1        1.0  0.45991  0.59923  0.54689  1.0000
  O   O2        1.0  0.04009  0.59924  0.45311  1.0000
  O   O3        1.0  0.54009  0.40077  0.45311  1.0000
  O   O4        1.0  0.95992  0.40077  0.54689  1.0000
  O   O5        1.0  0.33063  0.69451  0.64369  1.0000
  O   O6        1.0  0.16937  0.69452  0.35631  1.0000
  O   O7        1.0  0.66937  0.30548  0.35630  1.0000
  O   O8        1.0  0.83064  0.30548  0.64369  1.0000
  O   O9        1.0  0.05524  0.90058  0.94938  1.0000
  O   O10       1.0  0.44476  0.90058  0.05062  1.0000
  O   O11       1.0  0.94476  0.09942  0.05063  1.0000
  O   O12       1.0  0.55524  0.09942  0.94938  1.0000
  O   O13       1.0  0.22318  0.97928  0.86210  1.0000
  O   O14       1.0  0.27681  0.97927  0.13790  1.0000
  O   O15       1.0  0.77681  0.02073  0.13790  1.0000
  O   O16       1.0  0.72319  0.02073  0.86210  1.0000
