data_image0
_chemical_formula_structural       Cd4H28C24N12O20
_chemical_formula_sum              "Cd4 H28 C24 N12 O20"
_cell_length_a       5.0035
_cell_length_b       9.70163
_cell_length_c       18.1527
_cell_angle_alpha    89.9996
_cell_angle_beta     89.9999
_cell_angle_gamma    89.9999

_space_group_name_H-M_alt    "P 1"
_space_group_IT_number       1

loop_
  _space_group_symop_operation_xyz
  'x, y, z'

loop_
  _atom_site_type_symbol
  _atom_site_label
  _atom_site_symmetry_multiplicity
  _atom_site_fract_x
  _atom_site_fract_y
  _atom_site_fract_z
  _atom_site_occupancy
  Cd  Cd1       1.0  0.31405  0.30490  0.79250  1.0000
  Cd  Cd2       1.0  0.18594  0.69510  0.29250  1.0000
  Cd  Cd3       1.0  0.68597  0.80490  0.70750  1.0000
  Cd  Cd4       1.0  0.81403  0.19510  0.20750  1.0000
  H   H1        1.0  0.71977  0.17216  0.95550  1.0000
  H   H2        1.0  0.78021  0.82784  0.45549  1.0000
  H   H3        1.0  0.28024  0.67217  0.54450  1.0000
  H   H4        1.0  0.21976  0.32782  0.04451  1.0000
  H   H5        1.0  0.76693  0.98182  0.05080  1.0000
  H   H6        1.0  0.73307  0.01817  0.55080  1.0000
  H   H7        1.0  0.23306  0.48183  0.44920  1.0000
  H   H8        1.0  0.26695  0.51817  0.94920  1.0000
  H   H9        1.0  0.68398  0.81640  0.01478  1.0000
  H   H10       1.0  0.81601  0.18360  0.51478  1.0000
  H   H11       1.0  0.31601  0.31640  0.48522  1.0000
  H   H12       1.0  0.18400  0.68359  0.98522  1.0000
  H   H13       1.0  0.21936  0.84173  0.06873  1.0000
  H   H14       1.0  0.28064  0.15827  0.56873  1.0000
  H   H15       1.0  0.78061  0.34173  0.43127  1.0000
  H   H16       1.0  0.71939  0.65828  0.93127  1.0000
  H   H17       1.0  0.47728  0.83123  0.13348  1.0000
  H   H18       1.0  0.02273  0.16877  0.63348  1.0000
  H   H19       1.0  0.52268  0.33124  0.36652  1.0000
  H   H20       1.0  0.97732  0.66877  0.86652  1.0000
  H   H21       1.0  0.52303  0.13081  0.68427  1.0000
  H   H22       1.0  0.97697  0.86921  0.18427  1.0000
  H   H23       1.0  0.47698  0.63081  0.81573  1.0000
  H   H24       1.0  0.02302  0.36920  0.31573  1.0000
  H   H25       1.0  0.76248  0.17573  0.73339  1.0000
  H   H26       1.0  0.73752  0.82429  0.23339  1.0000
  H   H27       1.0  0.23754  0.67572  0.76660  1.0000
  H   H28       1.0  0.26246  0.32428  0.26660  1.0000
  C   C1        1.0  0.55981  0.10629  0.93575  1.0000
  C   C2        1.0  0.94018  0.89371  0.43575  1.0000
  C   C3        1.0  0.44021  0.60630  0.56425  1.0000
  C   C4        1.0  0.05981  0.39370  0.06425  1.0000
  C   C5        1.0  0.24058  0.01674  0.87420  1.0000
  C   C6        1.0  0.25941  0.98326  0.37420  1.0000
  C   C7        1.0  0.75942  0.51674  0.62580  1.0000
  C   C8        1.0  0.74058  0.48326  0.12580  1.0000
  C   C9        1.0  0.60297  0.91691  0.03094  1.0000
  C   C10       1.0  0.89704  0.08309  0.53095  1.0000
  C   C11       1.0  0.39703  0.41691  0.46905  1.0000
  C   C12       1.0  0.10299  0.58307  0.96907  1.0000
  C   C13       1.0  0.04057  0.00289  0.81311  1.0000
  C   C14       1.0  0.45942  0.99712  0.31312  1.0000
  C   C15       1.0  0.95945  0.50288  0.68689  1.0000
  C   C16       1.0  0.54053  0.49711  0.18689  1.0000
  C   C17       1.0  0.29764  0.03107  0.12598  1.0000
  C   C18       1.0  0.20240  0.96893  0.62597  1.0000
  C   C19       1.0  0.70236  0.53106  0.37402  1.0000
  C   C20       1.0  0.79762  0.46892  0.87402  1.0000
  C   C21       1.0  0.39287  0.89783  0.09035  1.0000
  C   C22       1.0  0.10715  0.10216  0.59036  1.0000
  C   C23       1.0  0.60712  0.39783  0.40964  1.0000
  C   C24       1.0  0.89290  0.60217  0.90965  1.0000
  N   N1        1.0  0.40340  0.13006  0.87796  1.0000
  N   N2        1.0  0.09658  0.86993  0.37796  1.0000
  N   N3        1.0  0.59663  0.63007  0.62204  1.0000
  N   N4        1.0  0.90339  0.36994  0.12204  1.0000
  N   N5        1.0  0.49150  0.98399  0.96577  1.0000
  N   N6        1.0  0.00849  0.01600  0.46577  1.0000
  N   N7        1.0  0.50851  0.48399  0.53423  1.0000
  N   N8        1.0  0.99150  0.51600  0.03423  1.0000
  N   N9        1.0  0.28852  0.92546  0.92757  1.0000
  N   N10       1.0  0.21149  0.07455  0.42758  1.0000
  N   N11       1.0  0.71151  0.42545  0.57243  1.0000
  N   N12       1.0  0.78852  0.57453  0.07242  1.0000
  O   O1        1.0  0.44437  0.13658  0.12722  1.0000
  O   O2        1.0  0.05565  0.86341  0.62722  1.0000
  O   O3        1.0  0.55563  0.63658  0.37278  1.0000
  O   O4        1.0  0.94437  0.36341  0.87278  1.0000
  O   O5        1.0  0.89963  0.89506  0.80966  1.0000
  O   O6        1.0  0.60036  0.10494  0.30967  1.0000
  O   O7        1.0  0.10037  0.39507  0.69034  1.0000
  O   O8        1.0  0.39962  0.60494  0.19033  1.0000
  O   O9        1.0  0.60123  0.21404  0.70842  1.0000
  O   O10       1.0  0.89876  0.78597  0.20842  1.0000
  O   O11       1.0  0.39878  0.71404  0.79158  1.0000
  O   O12       1.0  0.10122  0.28596  0.29158  1.0000
  O   O13       1.0  0.03328  0.10432  0.76849  1.0000
  O   O14       1.0  0.46671  0.89568  0.26850  1.0000
  O   O15       1.0  0.96672  0.60431  0.73150  1.0000
  O   O16       1.0  0.53326  0.39569  0.23150  1.0000
  O   O17       1.0  0.05920  0.02562  0.15295  1.0000
  O   O18       1.0  0.44083  0.97440  0.65295  1.0000
  O   O19       1.0  0.94077  0.52561  0.34705  1.0000
  O   O20       1.0  0.55916  0.47440  0.84705  1.0000
