data_image0
_chemical_formula_structural       K2P2H48C30S4O6
_chemical_formula_sum              "K2 P2 H48 C30 S4 O6"
_cell_length_a       8.20267
_cell_length_b       11.2111
_cell_length_c       11.3366
_cell_angle_alpha    96.7664
_cell_angle_beta     102.861
_cell_angle_gamma    111.523

_space_group_name_H-M_alt    "P 1"
_space_group_IT_number       1

loop_
  _space_group_symop_operation_xyz
  'x, y, z'

loop_
  _atom_site_type_symbol
  _atom_site_label
  _atom_site_symmetry_multiplicity
  _atom_site_fract_x
  _atom_site_fract_y
  _atom_site_fract_z
  _atom_site_occupancy
  K   K1        1.0  0.55217  0.36320  0.60247  1.0000
  K   K2        1.0  0.44783  0.63680  0.39752  1.0000
  P   P1        1.0  0.43458  0.31161  0.27024  1.0000
  P   P2        1.0  0.56542  0.68839  0.72976  1.0000
  H   H1        1.0  0.58528  0.46499  0.10339  1.0000
  H   H2        1.0  0.41472  0.53501  0.89661  1.0000
  H   H3        1.0  0.58337  0.40825  0.88439  1.0000
  H   H4        1.0  0.41663  0.59175  0.11561  1.0000
  H   H5        1.0  0.34053  0.99605  0.88683  1.0000
  H   H6        1.0  0.65947  0.00395  0.11317  1.0000
  H   H7        1.0  0.33467  0.05486  0.10364  1.0000
  H   H8        1.0  0.66533  0.94514  0.89636  1.0000
  H   H9        1.0  0.38812  0.05183  0.58516  1.0000
  H   H10       1.0  0.61188  0.94817  0.41484  1.0000
  H   H11       1.0  0.23271  0.99559  0.67605  1.0000
  H   H12       1.0  0.76729  0.00441  0.32395  1.0000
  H   H13       1.0  0.45442  0.98901  0.71678  1.0000
  H   H14       1.0  0.54558  0.01099  0.28322  1.0000
  H   H15       1.0  0.08274  0.51385  0.20290  1.0000
  H   H16       1.0  0.91726  0.48615  0.79710  1.0000
  H   H17       1.0  0.89399  0.38782  0.08892  1.0000
  H   H18       1.0  0.10601  0.61218  0.91108  1.0000
  H   H19       1.0  0.11083  0.45096  0.05948  1.0000
  H   H20       1.0  0.88917  0.54904  0.94052  1.0000
  H   H21       1.0  0.04928  0.37771  0.36478  1.0000
  H   H22       1.0  0.95072  0.62229  0.63522  1.0000
  H   H23       1.0  0.03614  0.21430  0.33221  1.0000
  H   H24       1.0  0.96386  0.78570  0.66780  1.0000
  H   H25       1.0  0.85165  0.25388  0.25628  1.0000
  H   H26       1.0  0.14835  0.74612  0.74372  1.0000
  H   H27       1.0  0.05581  0.11891  0.12379  1.0000
  H   H28       1.0  0.94419  0.88109  0.87621  1.0000
  H   H29       1.0  0.09598  0.21945  0.01347  1.0000
  H   H30       1.0  0.90402  0.78055  0.98653  1.0000
  H   H31       1.0  0.87951  0.16127  0.04281  1.0000
  H   H32       1.0  0.12049  0.83874  0.95720  1.0000
  H   H33       1.0  0.98062  0.35371  0.56092  1.0000
  H   H34       1.0  0.01938  0.64629  0.43908  1.0000
  H   H35       1.0  0.78572  0.20963  0.47191  1.0000
  H   H36       1.0  0.21428  0.79037  0.52809  1.0000
  H   H37       1.0  0.91590  0.06728  0.56762  1.0000
  H   H38       1.0  0.08410  0.93272  0.43238  1.0000
  H   H39       1.0  0.12070  0.19801  0.56699  1.0000
  H   H40       1.0  0.87929  0.80199  0.43301  1.0000
  H   H41       1.0  0.16364  0.30631  0.77993  1.0000
  H   H42       1.0  0.83635  0.69369  0.22007  1.0000
  H   H43       1.0  0.08158  0.13755  0.78892  1.0000
  H   H44       1.0  0.91842  0.86245  0.21108  1.0000
  H   H45       1.0  0.77327  0.11883  0.76198  1.0000
  H   H46       1.0  0.22673  0.88117  0.23802  1.0000
  H   H47       1.0  0.89455  0.28614  0.84646  1.0000
  H   H48       1.0  0.10545  0.71386  0.15354  1.0000
  C   C1        1.0  0.45559  0.26307  0.11709  1.0000
  C   C2        1.0  0.54441  0.73694  0.88291  1.0000
  C   C3        1.0  0.52891  0.36233  0.05495  1.0000
  C   C4        1.0  0.47109  0.63768  0.94505  1.0000
  C   C5        1.0  0.52993  0.33115  0.93322  1.0000
  C   C6        1.0  0.47008  0.66885  0.06678  1.0000
  C   C7        1.0  0.45815  0.19887  0.87070  1.0000
  C   C8        1.0  0.54185  0.80113  0.12930  1.0000
  C   C9        1.0  0.39274  0.09890  0.93304  1.0000
  C   C10       1.0  0.60726  0.90110  0.06696  1.0000
  C   C11       1.0  0.39121  0.13207  0.05552  1.0000
  C   C12       1.0  0.60879  0.86793  0.94448  1.0000
  C   C13       1.0  0.37725  0.04486  0.67892  1.0000
  C   C14       1.0  0.62275  0.95514  0.32108  1.0000
  C   C15       1.0  0.08748  0.31964  0.18695  1.0000
  C   C16       1.0  0.91252  0.68036  0.81306  1.0000
  C   C17       1.0  0.04237  0.42503  0.13139  1.0000
  C   C18       1.0  0.95763  0.57497  0.86861  1.0000
  C   C19       1.0  0.00111  0.28896  0.29166  1.0000
  C   C20       1.0  0.99889  0.71104  0.70834  1.0000
  C   C21       1.0  0.02756  0.19720  0.08586  1.0000
  C   C22       1.0  0.97244  0.80280  0.91414  1.0000
  C   C23       1.0  0.89031  0.25330  0.56228  1.0000
  C   C24       1.0  0.10969  0.74670  0.43772  1.0000
  C   C25       1.0  0.00022  0.17332  0.60160  1.0000
  C   C26       1.0  0.99978  0.82667  0.39840  1.0000
  C   C27       1.0  0.04764  0.20992  0.74338  1.0000
  C   C28       1.0  0.95236  0.79007  0.25662  1.0000
  C   C29       1.0  0.87260  0.21677  0.76155  1.0000
  C   C30       1.0  0.12740  0.78323  0.23845  1.0000
  S   S1        1.0  0.34173  0.15533  0.34257  1.0000
  S   S2        1.0  0.65827  0.84467  0.65743  1.0000
  S   S3        1.0  0.66882  0.46073  0.36896  1.0000
  S   S4        1.0  0.33118  0.53927  0.63104  1.0000
  O   O1        1.0  0.29040  0.38280  0.24217  1.0000
  O   O2        1.0  0.70960  0.61720  0.75783  1.0000
  O   O3        1.0  0.45468  0.17812  0.74886  1.0000
  O   O4        1.0  0.54532  0.82188  0.25114  1.0000
  O   O5        1.0  0.79722  0.26124  0.65605  1.0000
  O   O6        1.0  0.20278  0.73875  0.34395  1.0000
