data_image0
_chemical_formula_structural       Ga4P6H12C6O18
_chemical_formula_sum              "Ga4 P6 H12 C6 O18"
_cell_length_a       5.1424
_cell_length_b       8.04896
_cell_length_c       12.4143
_cell_angle_alpha    91.5226
_cell_angle_beta     101.015
_cell_angle_gamma    90.5685

_space_group_name_H-M_alt    "P 1"
_space_group_IT_number       1

loop_
  _space_group_symop_operation_xyz
  'x, y, z'

loop_
  _atom_site_type_symbol
  _atom_site_label
  _atom_site_symmetry_multiplicity
  _atom_site_fract_x
  _atom_site_fract_y
  _atom_site_fract_z
  _atom_site_occupancy
  Ga  Ga1       1.0  0.04442  0.55800  0.81023  1.0000
  Ga  Ga2       1.0  0.95557  0.44200  0.18977  1.0000
  Ga  Ga3       1.0  0.49434  0.88448  0.26258  1.0000
  Ga  Ga4       1.0  0.50566  0.11552  0.73742  1.0000
  P   P1        1.0  0.50592  0.73244  0.71902  1.0000
  P   P2        1.0  0.49409  0.26756  0.28098  1.0000
  P   P3        1.0  0.05887  0.74044  0.37728  1.0000
  P   P4        1.0  0.94114  0.25956  0.62272  1.0000
  P   P5        1.0  0.13199  0.74957  0.05313  1.0000
  P   P6        1.0  0.86801  0.25043  0.94687  1.0000
  H   H1        1.0  0.56265  0.82238  0.54334  1.0000
  H   H2        1.0  0.43735  0.17762  0.45666  1.0000
  H   H3        1.0  0.51881  0.60441  0.54597  1.0000
  H   H4        1.0  0.48119  0.39559  0.45403  1.0000
  H   H5        1.0  0.07696  0.86092  0.55471  1.0000
  H   H6        1.0  0.92305  0.13908  0.44529  1.0000
  H   H7        1.0  0.03182  0.64334  0.55347  1.0000
  H   H8        1.0  0.96818  0.35666  0.44653  1.0000
  H   H9        1.0  0.91589  0.98593  0.11244  1.0000
  H   H10       1.0  0.08411  0.01407  0.88756  1.0000
  H   H11       1.0  0.74010  0.89514  0.98819  1.0000
  H   H12       1.0  0.25990  0.10486  0.01182  1.0000
  C   C1        1.0  0.44373  0.72363  0.57089  1.0000
  C   C2        1.0  0.55626  0.27637  0.42911  1.0000
  C   C3        1.0  0.14794  0.74294  0.52498  1.0000
  C   C4        1.0  0.85205  0.25706  0.47502  1.0000
  C   C5        1.0  0.93855  0.93526  0.03164  1.0000
  C   C6        1.0  0.06146  0.06474  0.96836  1.0000
  O   O1        1.0  0.36160  0.58512  0.75826  1.0000
  O   O2        1.0  0.63841  0.41489  0.24175  1.0000
  O   O3        1.0  0.12116  0.57055  0.33181  1.0000
  O   O4        1.0  0.87885  0.42945  0.66819  1.0000
  O   O5        1.0  0.80531  0.72977  0.76466  1.0000
  O   O6        1.0  0.19469  0.27023  0.23534  1.0000
  O   O7        1.0  0.18817  0.67844  0.94566  1.0000
  O   O8        1.0  0.81182  0.32156  0.05435  1.0000
  O   O9        1.0  0.97057  0.63878  0.11568  1.0000
  O   O10       1.0  0.02941  0.36122  0.88432  1.0000
  O   O11       1.0  0.21168  0.88734  0.33616  1.0000
  O   O12       1.0  0.78833  0.11266  0.66384  1.0000
  O   O13       1.0  0.75939  0.77985  0.35549  1.0000
  O   O14       1.0  0.24061  0.22014  0.64450  1.0000
  O   O15       1.0  0.39330  0.90018  0.75341  1.0000
  O   O16       1.0  0.60670  0.09982  0.24659  1.0000
  O   O17       1.0  0.41050  0.79364  0.12441  1.0000
  O   O18       1.0  0.58950  0.20636  0.87559  1.0000
