data_image0
_chemical_formula_structural       H36Ru4C36N8O16
_chemical_formula_sum              "H36 Ru4 C36 N8 O16"
_cell_length_a       8.62182
_cell_length_b       10.2519
_cell_length_c       19.1408
_cell_angle_alpha    103.746
_cell_angle_beta     89.998
_cell_angle_gamma    114.824

_space_group_name_H-M_alt    "P 1"
_space_group_IT_number       1

loop_
  _space_group_symop_operation_xyz
  'x, y, z'

loop_
  _atom_site_type_symbol
  _atom_site_label
  _atom_site_symmetry_multiplicity
  _atom_site_fract_x
  _atom_site_fract_y
  _atom_site_fract_z
  _atom_site_occupancy
  H   H1        1.0  0.71876  0.70280  0.58249  1.0000
  H   H2        1.0  0.01545  0.29671  0.91746  1.0000
  H   H3        1.0  0.28125  0.29718  0.41752  1.0000
  H   H4        1.0  0.98452  0.70328  0.08255  1.0000
  H   H5        1.0  0.74426  0.65137  0.66411  1.0000
  H   H6        1.0  0.09253  0.34832  0.83590  1.0000
  H   H7        1.0  0.25574  0.34863  0.33591  1.0000
  H   H8        1.0  0.90746  0.65169  0.16411  1.0000
  H   H9        1.0  0.90048  0.81818  0.64692  1.0000
  H   H10       1.0  0.08186  0.18131  0.85298  1.0000
  H   H11       1.0  0.09952  0.18181  0.35309  1.0000
  H   H12       1.0  0.91813  0.81869  0.14703  1.0000
  H   H13       1.0  0.88403  0.38576  0.70522  1.0000
  H   H14       1.0  0.49807  0.61398  0.79470  1.0000
  H   H15       1.0  0.11599  0.61425  0.29479  1.0000
  H   H16       1.0  0.50191  0.38600  0.20529  1.0000
  H   H17       1.0  0.94042  0.54102  0.60019  1.0000
  H   H18       1.0  0.39896  0.45866  0.89968  1.0000
  H   H19       1.0  0.05959  0.45899  0.39982  1.0000
  H   H20       1.0  0.60103  0.54134  0.10032  1.0000
  H   H21       1.0  0.79239  0.31542  0.42984  1.0000
  H   H22       1.0  0.47687  0.68417  0.06999  1.0000
  H   H23       1.0  0.20762  0.68459  0.57016  1.0000
  H   H24       1.0  0.52314  0.31583  0.93000  1.0000
  H   H25       1.0  0.79425  0.48848  0.47819  1.0000
  H   H26       1.0  0.30572  0.51125  0.02167  1.0000
  H   H27       1.0  0.20577  0.51153  0.52181  1.0000
  H   H28       1.0  0.69427  0.48875  0.97833  1.0000
  H   H29       1.0  0.59547  0.32615  0.44779  1.0000
  H   H30       1.0  0.26928  0.67370  0.05224  1.0000
  H   H31       1.0  0.40454  0.67387  0.55222  1.0000
  H   H32       1.0  0.73071  0.32630  0.94776  1.0000
  H   H33       1.0  0.47267  0.09596  0.45484  1.0000
  H   H34       1.0  0.37680  0.90416  0.04519  1.0000
  H   H35       1.0  0.52736  0.90405  0.54515  1.0000
  H   H36       1.0  0.62316  0.09583  0.95480  1.0000
  Ru  Ru1       1.0  0.55901  0.07894  0.70009  1.0000
  Ru  Ru2       1.0  0.48017  0.92104  0.79988  1.0000
  Ru  Ru3       1.0  0.44100  0.92106  0.29990  1.0000
  Ru  Ru4       1.0  0.51982  0.07897  0.20012  1.0000
  C   C1        1.0  0.50881  0.22575  0.75384  1.0000
  C   C2        1.0  0.28321  0.77433  0.74623  1.0000
  C   C3        1.0  0.49122  0.77426  0.24616  1.0000
  C   C4        1.0  0.71679  0.22568  0.25377  1.0000
  C   C5        1.0  0.33978  0.99312  0.65455  1.0000
  C   C6        1.0  0.34682  0.00702  0.84548  1.0000
  C   C7        1.0  0.66023  0.00689  0.34545  1.0000
  C   C8        1.0  0.65317  0.99298  0.15452  1.0000
  C   C9        1.0  0.66947  0.83107  0.67861  1.0000
  C   C10       1.0  0.83815  0.16871  0.82134  1.0000
  C   C11       1.0  0.33053  0.16892  0.32139  1.0000
  C   C12       1.0  0.16184  0.83129  0.17867  1.0000
  C   C13       1.0  0.76239  0.74362  0.64070  1.0000
  C   C14       1.0  0.01839  0.25601  0.85925  1.0000
  C   C15       1.0  0.23762  0.25637  0.35931  1.0000
  C   C16       1.0  0.98160  0.74399  0.14076  1.0000
  C   C17       1.0  0.64645  0.19797  0.55351  1.0000
  C   C18       1.0  0.44829  0.80193  0.94644  1.0000
  C   C19       1.0  0.35358  0.80203  0.44648  1.0000
  C   C20       1.0  0.55167  0.19806  0.05355  1.0000
  C   C21       1.0  0.82301  0.34970  0.65026  1.0000
  C   C22       1.0  0.47310  0.65010  0.84966  1.0000
  C   C23       1.0  0.17701  0.65031  0.34974  1.0000
  C   C24       1.0  0.52687  0.34989  0.15033  1.0000
  C   C25       1.0  0.85200  0.42786  0.59864  1.0000
  C   C26       1.0  0.42379  0.57189  0.90124  1.0000
  C   C27       1.0  0.14802  0.57215  0.40136  1.0000
  C   C28       1.0  0.57619  0.42811  0.09875  1.0000
  C   C29       1.0  0.72988  0.36745  0.46960  1.0000
  C   C30       1.0  0.36230  0.63231  0.03030  1.0000
  C   C31       1.0  0.27013  0.63256  0.53040  1.0000
  C   C32       1.0  0.63769  0.36769  0.96969  1.0000
  C   C33       1.0  0.52496  0.07180  0.49952  1.0000
  C   C34       1.0  0.45313  0.92822  0.00047  1.0000
  C   C35       1.0  0.47507  0.92821  0.50048  1.0000
  C   C36       1.0  0.54683  0.07177  0.99951  1.0000
  N   N1        1.0  0.69513  0.20854  0.62249  1.0000
  N   N2        1.0  0.48649  0.79135  0.87746  1.0000
  N   N3        1.0  0.30490  0.79147  0.37750  1.0000
  N   N4        1.0  0.51347  0.20863  0.12253  1.0000
  N   N5        1.0  0.73914  0.33304  0.53855  1.0000
  N   N6        1.0  0.40577  0.66677  0.96135  1.0000
  N   N7        1.0  0.26089  0.66698  0.46145  1.0000
  N   N8        1.0  0.59421  0.33322  0.03864  1.0000
  O   O1        1.0  0.47927  0.32161  0.78908  1.0000
  O   O2        1.0  0.15773  0.67853  0.71112  1.0000
  O   O3        1.0  0.52076  0.67840  0.21093  1.0000
  O   O4        1.0  0.84225  0.32148  0.28888  1.0000
  O   O5        1.0  0.19713  0.94113  0.62764  1.0000
  O   O6        1.0  0.25617  0.05908  0.87243  1.0000
  O   O7        1.0  0.80288  0.05887  0.37236  1.0000
  O   O8        1.0  0.74382  0.94092  0.12756  1.0000
  O   O9        1.0  0.63363  0.82198  0.74241  1.0000
  O   O10       1.0  0.81136  0.17794  0.75757  1.0000
  O   O11       1.0  0.36636  0.17801  0.25759  1.0000
  O   O12       1.0  0.18865  0.82205  0.24244  1.0000
  O   O13       1.0  0.63397  0.91006  0.64462  1.0000
  O   O14       1.0  0.72379  0.08970  0.85532  1.0000
  O   O15       1.0  0.36604  0.08993  0.35538  1.0000
  O   O16       1.0  0.27620  0.91029  0.14468  1.0000
