data_image0
_chemical_formula_structural       MnH8C10S2N6O4
_chemical_formula_sum              "Mn1 H8 C10 S2 N6 O4"
_cell_length_a       6.89774
_cell_length_b       7.03125
_cell_length_c       8.30276
_cell_angle_alpha    83.2862
_cell_angle_beta     66.1956
_cell_angle_gamma    74.6336

_space_group_name_H-M_alt    "P 1"
_space_group_IT_number       1

loop_
  _space_group_symop_operation_xyz
  'x, y, z'

loop_
  _atom_site_type_symbol
  _atom_site_label
  _atom_site_symmetry_multiplicity
  _atom_site_fract_x
  _atom_site_fract_y
  _atom_site_fract_z
  _atom_site_occupancy
  Mn  Mn1       1.0  0.00000  0.00001  1.00000  1.0000
  H   H1        1.0  0.67020  0.15877  0.44494  1.0000
  H   H2        1.0  0.32978  0.84124  0.55507  1.0000
  H   H3        1.0  0.35071  0.02400  0.26618  1.0000
  H   H4        1.0  0.64928  0.97600  0.73383  1.0000
  H   H5        1.0  0.62235  0.77345  0.05470  1.0000
  H   H6        1.0  0.37766  0.22655  0.94530  1.0000
  H   H7        1.0  0.24788  0.57975  0.84835  1.0000
  H   H8        1.0  0.75213  0.42024  0.15166  1.0000
  C   C1        1.0  0.81443  0.08726  0.47244  1.0000
  C   C2        1.0  0.18555  0.91275  0.52756  1.0000
  C   C3        1.0  0.19720  0.00921  0.37154  1.0000
  C   C4        1.0  0.80277  0.99081  0.62846  1.0000
  C   C5        1.0  0.56855  0.64979  0.03411  1.0000
  C   C6        1.0  0.43146  0.35019  0.96590  1.0000
  C   C7        1.0  0.35990  0.53974  0.91558  1.0000
  C   C8        1.0  0.64011  0.46025  0.08442  1.0000
  C   C9        1.0  0.15346  0.30393  0.69000  1.0000
  C   C10       1.0  0.84655  0.69609  0.30998  1.0000
  S   S1        1.0  0.27835  0.41297  0.51208  1.0000
  S   S2        1.0  0.72164  0.58703  0.48790  1.0000
  N   N1        1.0  0.01202  0.09472  0.34267  1.0000
  N   N2        1.0  0.98797  0.90529  0.65734  1.0000
  N   N3        1.0  0.42854  0.69027  0.94972  1.0000
  N   N4        1.0  0.57147  0.30972  0.05028  1.0000
  N   N5        1.0  0.06216  0.22287  0.82342  1.0000
  N   N6        1.0  0.93787  0.77712  0.17657  1.0000
  O   O1        1.0  0.02452  0.17824  0.19004  1.0000
  O   O2        1.0  0.97546  0.82177  0.80997  1.0000
  O   O3        1.0  0.35731  0.87294  0.90498  1.0000
  O   O4        1.0  0.64270  0.12705  0.09502  1.0000
