data_image0
_chemical_formula_structural       Ni2H38C52S4N8O8
_chemical_formula_sum              "Ni2 H38 C52 S4 N8 O8"
_cell_length_a       8.98113
_cell_length_b       10.954
_cell_length_c       12.7371
_cell_angle_alpha    93.8113
_cell_angle_beta     94.2166
_cell_angle_gamma    100.666

_space_group_name_H-M_alt    "P 1"
_space_group_IT_number       1

loop_
  _space_group_symop_operation_xyz
  'x, y, z'

loop_
  _atom_site_type_symbol
  _atom_site_label
  _atom_site_symmetry_multiplicity
  _atom_site_fract_x
  _atom_site_fract_y
  _atom_site_fract_z
  _atom_site_occupancy
  Ni  Ni1       1.0  1.00000  0.50000  1.00000  1.0000
  Ni  Ni2       1.0  0.00000  0.00000  1.00000  1.0000
  H   H1        1.0  0.96201  0.36878  0.55063  1.0000
  H   H2        1.0  0.03799  0.63122  0.44937  1.0000
  H   H3        1.0  0.93181  0.70563  0.58364  1.0000
  H   H4        1.0  0.06819  0.29438  0.41636  1.0000
  H   H5        1.0  0.95811  0.46590  0.76517  1.0000
  H   H6        1.0  0.04189  0.53410  0.23483  1.0000
  H   H7        1.0  0.74322  0.42785  0.62429  1.0000
  H   H8        1.0  0.25678  0.57215  0.37571  1.0000
  H   H9        1.0  0.46153  0.54490  0.85823  1.0000
  H   H10       1.0  0.53847  0.45510  0.14177  1.0000
  H   H11       1.0  0.68668  0.57512  0.98865  1.0000
  H   H12       1.0  0.31332  0.42488  0.01135  1.0000
  H   H13       1.0  0.48063  0.40921  0.57145  1.0000
  H   H14       1.0  0.51937  0.59079  0.42856  1.0000
  H   H15       1.0  0.27012  0.47179  0.74026  1.0000
  H   H16       1.0  0.72988  0.52821  0.25974  1.0000
  H   H17       1.0  0.93845  0.85665  0.78441  1.0000
  H   H18       1.0  0.06155  0.14336  0.21559  1.0000
  H   H19       1.0  0.71706  0.77082  0.65450  1.0000
  H   H20       1.0  0.28294  0.22918  0.34550  1.0000
  H   H21       1.0  0.42756  0.88568  0.88342  1.0000
  H   H22       1.0  0.57244  0.11432  0.11659  1.0000
  H   H23       1.0  0.66079  0.96496  0.00376  1.0000
  H   H24       1.0  0.33922  0.03504  0.99624  1.0000
  H   H25       1.0  0.44621  0.72336  0.60818  1.0000
  H   H26       1.0  0.55379  0.27664  0.39182  1.0000
  H   H27       1.0  0.24800  0.84316  0.75727  1.0000
  H   H28       1.0  0.75200  0.15684  0.24273  1.0000
  H   H29       1.0  0.86098  0.13268  0.70775  1.0000
  H   H30       1.0  0.13902  0.86732  0.29224  1.0000
  H   H31       1.0  0.68309  0.21125  0.82320  1.0000
  H   H32       1.0  0.31691  0.78875  0.17680  1.0000
  H   H33       1.0  0.40651  0.17911  0.76507  1.0000
  H   H34       1.0  0.59350  0.82089  0.23493  1.0000
  H   H35       1.0  0.19107  0.09770  0.63014  1.0000
  H   H36       1.0  0.80893  0.90230  0.36985  1.0000
  H   H37       1.0  0.90629  0.01825  0.54277  1.0000
  H   H38       1.0  0.09371  0.98175  0.45723  1.0000
  C   C1        1.0  0.07868  0.26062  0.88733  1.0000
  C   C2        1.0  0.92132  0.73938  0.11266  1.0000
  C   C3        1.0  0.14739  0.77280  0.93626  1.0000
  C   C4        1.0  0.85261  0.22720  0.06374  1.0000
  C   C5        1.0  0.84637  0.48220  0.78230  1.0000
  C   C6        1.0  0.15363  0.51780  0.21770  1.0000
  C   C7        1.0  0.72611  0.46120  0.70410  1.0000
  C   C8        1.0  0.27389  0.53879  0.29590  1.0000
  C   C9        1.0  0.58154  0.47799  0.72942  1.0000
  C   C10       1.0  0.41846  0.52200  0.27058  1.0000
  C   C11       1.0  0.56831  0.52375  0.83362  1.0000
  C   C12       1.0  0.43169  0.47624  0.16638  1.0000
  C   C13       1.0  0.69375  0.54173  0.90700  1.0000
  C   C14       1.0  0.30625  0.45826  0.09300  1.0000
  C   C15       1.0  0.45375  0.44234  0.64940  1.0000
  C   C16       1.0  0.54625  0.55766  0.35060  1.0000
  C   C17       1.0  0.30668  0.44138  0.66475  1.0000
  C   C18       1.0  0.69331  0.55862  0.33525  1.0000
  C   C19       1.0  0.18463  0.39597  0.58083  1.0000
  C   C20       1.0  0.81537  0.60402  0.41917  1.0000
  C   C21       1.0  0.82355  0.86161  0.80332  1.0000
  C   C22       1.0  0.17645  0.13839  0.19668  1.0000
  C   C23       1.0  0.69951  0.81378  0.73107  1.0000
  C   C24       1.0  0.30050  0.18622  0.26893  1.0000
  C   C25       1.0  0.55232  0.82295  0.75633  1.0000
  C   C26       1.0  0.44768  0.17705  0.24367  1.0000
  C   C27       1.0  0.53833  0.87787  0.85727  1.0000
  C   C28       1.0  0.46167  0.12213  0.14273  1.0000
  C   C29       1.0  0.66764  0.92221  0.92508  1.0000
  C   C30       1.0  0.33236  0.07779  0.07492  1.0000
  C   C31       1.0  0.42328  0.77530  0.67950  1.0000
  C   C32       1.0  0.57672  0.22471  0.32050  1.0000
  C   C33       1.0  0.27915  0.78973  0.68999  1.0000
  C   C34       1.0  0.72085  0.21027  0.31001  1.0000
  C   C35       1.0  0.15405  0.73294  0.61179  1.0000
  C   C36       1.0  0.84595  0.26706  0.38821  1.0000
  C   C37       1.0  0.68693  0.05388  0.58287  1.0000
  C   C38       1.0  0.31307  0.94612  0.41713  1.0000
  C   C39       1.0  0.74023  0.11905  0.68136  1.0000
  C   C40       1.0  0.25978  0.88095  0.31864  1.0000
  C   C41       1.0  0.63979  0.16277  0.74632  1.0000
  C   C42       1.0  0.36021  0.83723  0.25368  1.0000
  C   C43       1.0  0.48489  0.14520  0.71382  1.0000
  C   C44       1.0  0.51511  0.85480  0.28617  1.0000
  C   C45       1.0  0.42670  0.08189  0.61538  1.0000
  C   C46       1.0  0.57330  0.91812  0.38462  1.0000
  C   C47       1.0  0.52838  0.03414  0.54926  1.0000
  C   C48       1.0  0.47162  0.96586  0.45074  1.0000
  C   C49       1.0  0.26816  0.06106  0.57932  1.0000
  C   C50       1.0  0.73184  0.93894  0.42068  1.0000
  C   C51       1.0  0.78578  0.00388  0.51548  1.0000
  C   C52       1.0  0.21422  0.99612  0.48452  1.0000
  S   S1        1.0  0.10857  0.12176  0.85370  1.0000
  S   S2        1.0  0.89143  0.87824  0.14630  1.0000
  S   S3        1.0  0.19642  0.63818  0.91598  1.0000
  S   S4        1.0  0.80358  0.36182  0.08402  1.0000
  N   N1        1.0  0.05704  0.36151  0.91208  1.0000
  N   N2        1.0  0.94296  0.63849  0.08791  1.0000
  N   N3        1.0  0.11233  0.87131  0.94928  1.0000
  N   N4        1.0  0.88767  0.12869  0.05072  1.0000
  N   N5        1.0  0.83008  0.51795  0.88306  1.0000
  N   N6        1.0  0.16992  0.48205  0.11694  1.0000
  N   N7        1.0  0.80892  0.91617  0.89873  1.0000
  N   N8        1.0  0.19108  0.08383  0.10127  1.0000
  O   O1        1.0  0.20738  0.35702  0.48981  1.0000
  O   O2        1.0  0.79262  0.64298  0.51019  1.0000
  O   O3        1.0  0.04781  0.39861  0.61169  1.0000
  O   O4        1.0  0.95219  0.60139  0.38832  1.0000
  O   O5        1.0  0.01960  0.75223  0.63750  1.0000
  O   O6        1.0  0.98040  0.24777  0.36250  1.0000
  O   O7        1.0  0.17209  0.67030  0.52927  1.0000
  O   O8        1.0  0.82791  0.32970  0.47073  1.0000
