data_image0
_chemical_formula_structural       Hg2H12C14S2I4N4
_chemical_formula_sum              "Hg2 H12 C14 S2 I4 N4"
_cell_length_a       6.63694
_cell_length_b       9.25672
_cell_length_c       10.9586
_cell_angle_alpha    112.108
_cell_angle_beta     89.9704
_cell_angle_gamma    111.089

_space_group_name_H-M_alt    "P 1"
_space_group_IT_number       1

loop_
  _space_group_symop_operation_xyz
  'x, y, z'

loop_
  _atom_site_type_symbol
  _atom_site_label
  _atom_site_symmetry_multiplicity
  _atom_site_fract_x
  _atom_site_fract_y
  _atom_site_fract_z
  _atom_site_occupancy
  Hg  Hg1       1.0  0.64807  0.29747  0.44813  1.0000
  Hg  Hg2       1.0  0.35194  0.70253  0.55187  1.0000
  H   H1        1.0  0.61444  0.22912  0.90480  1.0000
  H   H2        1.0  0.38556  0.77088  0.09520  1.0000
  H   H3        1.0  0.78081  0.56061  0.72122  1.0000
  H   H4        1.0  0.21919  0.43939  0.27879  1.0000
  H   H5        1.0  0.93778  0.87307  0.94856  1.0000
  H   H6        1.0  0.06221  0.12694  0.05144  1.0000
  H   H7        1.0  0.99456  0.98745  0.19996  1.0000
  H   H8        1.0  0.00542  0.01255  0.80004  1.0000
  H   H9        1.0  0.89657  0.79254  0.31361  1.0000
  H   H10       1.0  0.10342  0.20746  0.68639  1.0000
  H   H11       1.0  0.74017  0.47977  0.18590  1.0000
  H   H12       1.0  0.25982  0.52023  0.81410  1.0000
  C   C1        1.0  0.67518  0.35021  0.77296  1.0000
  C   C2        1.0  0.32482  0.64979  0.22704  1.0000
  C   C3        1.0  0.75213  0.50372  0.99579  1.0000
  C   C4        1.0  0.24787  0.49628  0.00420  1.0000
  C   C5        1.0  0.80840  0.61584  0.93130  1.0000
  C   C6        1.0  0.19161  0.38416  0.06870  1.0000
  C   C7        1.0  0.89595  0.79043  0.00147  1.0000
  C   C8        1.0  0.10405  0.20957  0.99853  1.0000
  C   C9        1.0  0.92628  0.85143  0.14025  1.0000
  C   C10       1.0  0.07372  0.14857  0.85975  1.0000
  C   C11       1.0  0.87059  0.74049  0.20511  1.0000
  C   C12       1.0  0.12941  0.25951  0.79489  1.0000
  C   C13       1.0  0.78263  0.56480  0.13468  1.0000
  C   C14       1.0  0.21737  0.43520  0.86533  1.0000
  S   S1        1.0  0.58944  0.17972  0.62432  1.0000
  S   S2        1.0  0.41056  0.82028  0.37568  1.0000
  I   I1        1.0  0.56560  0.12849  0.17703  1.0000
  I   I2        1.0  0.43439  0.87151  0.82296  1.0000
  I   I3        1.0  0.83062  0.66121  0.53159  1.0000
  I   I4        1.0  0.16938  0.33879  0.46841  1.0000
  N   N1        1.0  0.67078  0.34151  0.89433  1.0000
  N   N2        1.0  0.32923  0.65850  0.10567  1.0000
  N   N3        1.0  0.75859  0.51639  0.79541  1.0000
  N   N4        1.0  0.24141  0.48361  0.20459  1.0000
