data_image0
_chemical_formula_structural       Cu2Hg2H28C44I4N8O8
_chemical_formula_sum              "Cu2 Hg2 H28 C44 I4 N8 O8"
_cell_length_a       5.06187
_cell_length_b       15.4118
_cell_length_c       16.3625
_cell_angle_alpha    107.868
_cell_angle_beta     89.9923
_cell_angle_gamma    99.4611

_space_group_name_H-M_alt    "P 1"
_space_group_IT_number       1

loop_
  _space_group_symop_operation_xyz
  'x, y, z'

loop_
  _atom_site_type_symbol
  _atom_site_label
  _atom_site_symmetry_multiplicity
  _atom_site_fract_x
  _atom_site_fract_y
  _atom_site_fract_z
  _atom_site_occupancy
  Cu  Cu1       1.0  1.00000  0.50000  0.00000  1.0000
  Cu  Cu2       1.0  0.50000  0.50000  0.50000  1.0000
  Hg  Hg1       1.0  0.05457  0.00000  0.75004  1.0000
  Hg  Hg2       1.0  0.94542  1.00000  0.24996  1.0000
  H   H1        1.0  0.43830  0.72501  0.99095  1.0000
  H   H2        1.0  0.71340  0.27501  0.50912  1.0000
  H   H3        1.0  0.56170  0.27499  0.00905  1.0000
  H   H4        1.0  0.28661  0.72499  0.49088  1.0000
  H   H5        1.0  0.92627  0.66001  0.76894  1.0000
  H   H6        1.0  0.26661  0.33997  0.73102  1.0000
  H   H7        1.0  0.07372  0.33999  0.23106  1.0000
  H   H8        1.0  0.73340  0.66003  0.26898  1.0000
  H   H9        1.0  0.10794  0.55071  0.83142  1.0000
  H   H10       1.0  0.55749  0.44935  0.66855  1.0000
  H   H11       1.0  0.89205  0.44929  0.16858  1.0000
  H   H12       1.0  0.44252  0.55065  0.33146  1.0000
  H   H13       1.0  0.30152  0.97225  0.92177  1.0000
  H   H14       1.0  0.32914  0.02776  0.57823  1.0000
  H   H15       1.0  0.69847  0.02775  0.07823  1.0000
  H   H16       1.0  0.67086  0.97224  0.42177  1.0000
  H   H17       1.0  0.53250  0.86705  0.97471  1.0000
  H   H18       1.0  0.66530  0.13300  0.52528  1.0000
  H   H19       1.0  0.46750  0.13295  0.02529  1.0000
  H   H20       1.0  0.33470  0.86700  0.47472  1.0000
  H   H21       1.0  0.54414  0.69769  0.70895  1.0000
  H   H22       1.0  0.84650  0.30228  0.79106  1.0000
  H   H23       1.0  0.45586  0.30231  0.29105  1.0000
  H   H24       1.0  0.15350  0.69772  0.20894  1.0000
  H   H25       1.0  0.31405  0.80930  0.66826  1.0000
  H   H26       1.0  0.50460  0.19067  0.83173  1.0000
  H   H27       1.0  0.68595  0.19070  0.33174  1.0000
  H   H28       1.0  0.49540  0.80933  0.16827  1.0000
  C   C1        1.0  0.69612  0.62663  0.98195  1.0000
  C   C2        1.0  0.06962  0.37337  0.51807  1.0000
  C   C3        1.0  0.30387  0.37337  0.01805  1.0000
  C   C4        1.0  0.93039  0.62663  0.48194  1.0000
  C   C5        1.0  0.58919  0.68991  0.95325  1.0000
  C   C6        1.0  0.89941  0.31012  0.54680  1.0000
  C   C7        1.0  0.41081  0.31009  0.04675  1.0000
  C   C8        1.0  0.10060  0.68988  0.45320  1.0000
  C   C9        1.0  0.67210  0.70506  0.87622  1.0000
  C   C10       1.0  0.96738  0.29490  0.62377  1.0000
  C   C11       1.0  0.32789  0.29494  0.12378  1.0000
  C   C12       1.0  0.03263  0.70510  0.37623  1.0000
  C   C13       1.0  0.85791  0.65285  0.83010  1.0000
  C   C14       1.0  0.20542  0.34714  0.66986  1.0000
  C   C15       1.0  0.14209  0.34715  0.16990  1.0000
  C   C16       1.0  0.79458  0.65287  0.33014  1.0000
  C   C17       1.0  0.96054  0.59179  0.86390  1.0000
  C   C18       1.0  0.36903  0.40824  0.63606  1.0000
  C   C19       1.0  0.03945  0.40821  0.13610  1.0000
  C   C20       1.0  0.63098  0.59176  0.36394  1.0000
  C   C21       1.0  0.60577  0.60261  0.06139  1.0000
  C   C22       1.0  0.00323  0.39732  0.43861  1.0000
  C   C23       1.0  0.39423  0.39739  0.93861  1.0000
  C   C24       1.0  0.99677  0.60268  0.56139  1.0000
  C   C25       1.0  0.36168  0.91084  0.87713  1.0000
  C   C26       1.0  0.45072  0.08917  0.62286  1.0000
  C   C27       1.0  0.63832  0.08916  0.12287  1.0000
  C   C28       1.0  0.54928  0.91083  0.37714  1.0000
  C   C29       1.0  0.48766  0.85153  0.90610  1.0000
  C   C30       1.0  0.63603  0.14851  0.59389  1.0000
  C   C31       1.0  0.51233  0.14847  0.09390  1.0000
  C   C32       1.0  0.36397  0.85149  0.40611  1.0000
  C   C33       1.0  0.55792  0.77275  0.84623  1.0000
  C   C34       1.0  0.78533  0.22724  0.65377  1.0000
  C   C35       1.0  0.44208  0.22725  0.15377  1.0000
  C   C36       1.0  0.21468  0.77276  0.34623  1.0000
  C   C37       1.0  0.50179  0.75840  0.75886  1.0000
  C   C38       1.0  0.74340  0.24159  0.74114  1.0000
  C   C39       1.0  0.49821  0.24160  0.24114  1.0000
  C   C40       1.0  0.25660  0.75841  0.25886  1.0000
  C   C41       1.0  0.37032  0.82053  0.73544  1.0000
  C   C42       1.0  0.54963  0.17948  0.76455  1.0000
  C   C43       1.0  0.62968  0.17947  0.26456  1.0000
  C   C44       1.0  0.45037  0.82052  0.23545  1.0000
  I   I1        1.0  0.85051  0.89134  0.59153  1.0000
  I   I2        1.0  0.95912  0.10880  0.90849  1.0000
  I   I3        1.0  0.14949  0.10866  0.40847  1.0000
  I   I4        1.0  0.04088  0.89120  0.09151  1.0000
  N   N1        1.0  0.88306  0.58025  0.93901  1.0000
  N   N2        1.0  0.30299  0.41977  0.56097  1.0000
  N   N3        1.0  0.11693  0.41975  0.06099  1.0000
  N   N4        1.0  0.69702  0.58023  0.43903  1.0000
  N   N5        1.0  0.30133  0.89504  0.79331  1.0000
  N   N6        1.0  0.40615  0.10496  0.70668  1.0000
  N   N7        1.0  0.69867  0.10496  0.20669  1.0000
  N   N8        1.0  0.59385  0.89504  0.29332  1.0000
  O   O1        1.0  0.74476  0.55016  0.08546  1.0000
  O   O2        1.0  0.19469  0.44972  0.41446  1.0000
  O   O3        1.0  0.25524  0.44985  0.91455  1.0000
  O   O4        1.0  0.80531  0.55028  0.58554  1.0000
  O   O5        1.0  0.40444  0.63021  0.09686  1.0000
  O   O6        1.0  0.77417  0.36974  0.40320  1.0000
  O   O7        1.0  0.59556  0.36979  0.90314  1.0000
  O   O8        1.0  0.22583  0.63026  0.59680  1.0000
