data_image0
_chemical_formula_structural       H32Pb8C24Br8O16
_chemical_formula_sum              "H32 Pb8 C24 Br8 O16"
_cell_length_a       9.00555
_cell_length_b       9.00556
_cell_length_c       14.2332
_cell_angle_alpha    89.9707
_cell_angle_beta     89.9824
_cell_angle_gamma    89.9876

_space_group_name_H-M_alt    "P 1"
_space_group_IT_number       1

loop_
  _space_group_symop_operation_xyz
  'x, y, z'

loop_
  _atom_site_type_symbol
  _atom_site_label
  _atom_site_symmetry_multiplicity
  _atom_site_fract_x
  _atom_site_fract_y
  _atom_site_fract_z
  _atom_site_occupancy
  H   H1        1.0  0.51587  0.21069  0.38210  1.0000
  H   H2        1.0  0.48440  0.78956  0.88193  1.0000
  H   H3        1.0  0.28934  0.01578  0.63202  1.0000
  H   H4        1.0  0.71055  0.98429  0.13200  1.0000
  H   H5        1.0  0.98416  0.71064  0.86801  1.0000
  H   H6        1.0  0.01581  0.28943  0.36797  1.0000
  H   H7        1.0  0.21057  0.51582  0.61799  1.0000
  H   H8        1.0  0.78942  0.48419  0.11801  1.0000
  H   H9        1.0  0.50225  0.35221  0.29664  1.0000
  H   H10       1.0  0.49780  0.64792  0.79654  1.0000
  H   H11       1.0  0.14770  0.00227  0.54663  1.0000
  H   H12       1.0  0.85213  0.99784  0.04663  1.0000
  H   H13       1.0  0.99779  0.85211  0.95350  1.0000
  H   H14       1.0  0.00220  0.14786  0.45337  1.0000
  H   H15       1.0  0.35206  0.50227  0.70348  1.0000
  H   H16       1.0  0.64782  0.49778  0.20340  1.0000
  H   H17       1.0  0.76289  0.29831  0.35460  1.0000
  H   H18       1.0  0.23734  0.70175  0.85459  1.0000
  H   H19       1.0  0.20171  0.26287  0.60463  1.0000
  H   H20       1.0  0.79825  0.73731  0.10459  1.0000
  H   H21       1.0  0.73716  0.79818  0.89544  1.0000
  H   H22       1.0  0.26280  0.20175  0.39550  1.0000
  H   H23       1.0  0.29822  0.76279  0.64545  1.0000
  H   H24       1.0  0.70170  0.23715  0.14545  1.0000
  H   H25       1.0  0.75102  0.11704  0.30900  1.0000
  H   H26       1.0  0.24901  0.88303  0.80902  1.0000
  H   H27       1.0  0.38298  0.25100  0.55905  1.0000
  H   H28       1.0  0.61698  0.74899  0.05897  1.0000
  H   H29       1.0  0.74893  0.61697  0.94106  1.0000
  H   H30       1.0  0.25108  0.38302  0.44110  1.0000
  H   H31       1.0  0.11697  0.75110  0.69104  1.0000
  H   H32       1.0  0.88299  0.24905  0.19106  1.0000
  Pb  Pb1       1.0  0.30172  0.91224  0.12628  1.0000
  Pb  Pb2       1.0  0.69830  0.08788  0.62613  1.0000
  Pb  Pb3       1.0  0.58809  0.80117  0.37685  1.0000
  Pb  Pb4       1.0  0.41221  0.19837  0.87611  1.0000
  Pb  Pb5       1.0  0.19895  0.41226  0.12343  1.0000
  Pb  Pb6       1.0  0.80181  0.58757  0.62396  1.0000
  Pb  Pb7       1.0  0.91197  0.30141  0.87364  1.0000
  Pb  Pb8       1.0  0.08795  0.69841  0.37353  1.0000
  C   C1        1.0  0.46278  0.13196  0.24627  1.0000
  C   C2        1.0  0.53721  0.86798  0.74605  1.0000
  C   C3        1.0  0.36782  0.96273  0.49621  1.0000
  C   C4        1.0  0.63199  0.03724  0.99616  1.0000
  C   C5        1.0  0.03724  0.63194  0.00380  1.0000
  C   C6        1.0  0.96278  0.36802  0.50381  1.0000
  C   C7        1.0  0.13190  0.46275  0.75380  1.0000
  C   C8        1.0  0.86801  0.53720  0.25385  1.0000
  C   C9        1.0  0.54427  0.23964  0.30914  1.0000
  C   C10       1.0  0.45579  0.76046  0.80904  1.0000
  C   C11       1.0  0.26024  0.04428  0.55910  1.0000
  C   C12       1.0  0.73958  0.95576  0.05908  1.0000
  C   C13       1.0  0.95572  0.73962  0.94095  1.0000
  C   C14       1.0  0.04426  0.26042  0.44091  1.0000
  C   C15       1.0  0.23952  0.54430  0.69092  1.0000
  C   C16       1.0  0.76037  0.45574  0.19095  1.0000
  C   C17       1.0  0.71318  0.23190  0.29788  1.0000
  C   C18       1.0  0.28689  0.76821  0.79783  1.0000
  C   C19       1.0  0.26812  0.21316  0.54789  1.0000
  C   C20       1.0  0.73181  0.78688  0.04784  1.0000
  C   C21       1.0  0.78683  0.73180  0.95220  1.0000
  C   C22       1.0  0.21316  0.26819  0.45222  1.0000
  C   C23       1.0  0.23179  0.71318  0.70221  1.0000
  C   C24       1.0  0.76812  0.28685  0.20218  1.0000
  Br  Br1       1.0  0.12744  0.12717  0.99964  1.0000
  Br  Br2       1.0  0.87282  0.87251  0.50027  1.0000
  Br  Br3       1.0  0.37297  0.62751  0.24986  1.0000
  Br  Br4       1.0  0.62677  0.37306  0.74994  1.0000
  Br  Br5       1.0  0.04465  0.95516  0.24977  1.0000
  Br  Br6       1.0  0.95520  0.04476  0.74982  1.0000
  Br  Br7       1.0  0.54467  0.54428  0.50027  1.0000
  Br  Br8       1.0  0.45557  0.45562  0.99962  1.0000
  O   O1        1.0  0.35721  0.17558  0.19343  1.0000
  O   O2        1.0  0.64289  0.82433  0.69335  1.0000
  O   O3        1.0  0.32435  0.85673  0.44376  1.0000
  O   O4        1.0  0.67565  0.14304  0.94353  1.0000
  O   O5        1.0  0.14287  0.67551  0.05655  1.0000
  O   O6        1.0  0.85719  0.32430  0.55658  1.0000
  O   O7        1.0  0.17556  0.35716  0.80657  1.0000
  O   O8        1.0  0.82447  0.64291  0.30658  1.0000
  O   O9        1.0  0.50041  0.99393  0.24686  1.0000
  O   O10       1.0  0.49938  0.00600  0.74642  1.0000
  O   O11       1.0  0.50576  0.00080  0.49652  1.0000
  O   O12       1.0  0.49401  0.99937  0.99650  1.0000
  O   O13       1.0  0.99956  0.49392  0.00321  1.0000
  O   O14       1.0  0.00047  0.50605  0.50335  1.0000
  O   O15       1.0  0.99383  0.50041  0.75330  1.0000
  O   O16       1.0  0.00601  0.49940  0.25334  1.0000
