data_image0
_chemical_formula_structural       Ni2H48C64N12Cl8O12
_chemical_formula_sum              "Ni2 H48 C64 N12 Cl8 O12"
_cell_length_a       10.8767
_cell_length_b       12.0796
_cell_length_c       14.1524
_cell_angle_alpha    106.539
_cell_angle_beta     89.9907
_cell_angle_gamma    116.761

_space_group_name_H-M_alt    "P 1"
_space_group_IT_number       1

loop_
  _space_group_symop_operation_xyz
  'x, y, z'

loop_
  _atom_site_type_symbol
  _atom_site_label
  _atom_site_symmetry_multiplicity
  _atom_site_fract_x
  _atom_site_fract_y
  _atom_site_fract_z
  _atom_site_occupancy
  Ni  Ni1       1.0  0.69854  0.00002  0.25006  1.0000
  Ni  Ni2       1.0  0.30146  0.99998  0.74994  1.0000
  H   H1        1.0  0.54567  0.06350  0.12516  1.0000
  H   H2        1.0  0.51797  0.06353  0.62528  1.0000
  H   H3        1.0  0.45434  0.93650  0.87484  1.0000
  H   H4        1.0  0.48203  0.93647  0.37472  1.0000
  H   H5        1.0  0.31952  0.06502  0.12008  1.0000
  H   H6        1.0  0.74566  0.06517  0.62025  1.0000
  H   H7        1.0  0.68049  0.93498  0.87992  1.0000
  H   H8        1.0  0.25434  0.93483  0.37974  1.0000
  H   H9        1.0  0.07311  0.92576  0.08832  1.0000
  H   H10       1.0  0.85254  0.92568  0.58844  1.0000
  H   H11       1.0  0.92689  0.07425  0.91168  1.0000
  H   H12       1.0  0.14747  0.07433  0.41155  1.0000
  H   H13       1.0  0.85051  0.93767  0.09528  1.0000
  H   H14       1.0  0.08702  0.93756  0.59531  1.0000
  H   H15       1.0  0.14948  0.06232  0.90472  1.0000
  H   H16       1.0  0.91298  0.06243  0.40469  1.0000
  H   H17       1.0  0.52234  0.85471  0.05795  1.0000
  H   H18       1.0  0.33246  0.85461  0.55778  1.0000
  H   H19       1.0  0.47766  0.14529  0.94206  1.0000
  H   H20       1.0  0.66754  0.14540  0.44223  1.0000
  H   H21       1.0  0.43591  0.63613  0.94027  1.0000
  H   H22       1.0  0.20024  0.63598  0.44015  1.0000
  H   H23       1.0  0.56409  0.36388  0.05974  1.0000
  H   H24       1.0  0.79976  0.36402  0.55985  1.0000
  H   H25       1.0  0.61895  0.54242  0.15898  1.0000
  H   H26       1.0  0.92352  0.54252  0.65903  1.0000
  H   H27       1.0  0.38104  0.45757  0.84102  1.0000
  H   H28       1.0  0.07647  0.45748  0.34097  1.0000
  H   H29       1.0  0.69472  0.76600  0.27014  1.0000
  H   H30       1.0  0.07164  0.76602  0.77018  1.0000
  H   H31       1.0  0.30527  0.23400  0.72987  1.0000
  H   H32       1.0  0.92836  0.23398  0.22982  1.0000
  H   H33       1.0  0.65625  0.31036  0.20128  1.0000
  H   H34       1.0  0.65312  0.30983  0.70119  1.0000
  H   H35       1.0  0.34376  0.68965  0.79871  1.0000
  H   H36       1.0  0.34687  0.69015  0.29882  1.0000
  H   H37       1.0  0.50176  0.25633  0.33133  1.0000
  H   H38       1.0  0.75430  0.25611  0.83105  1.0000
  H   H39       1.0  0.49825  0.74367  0.66867  1.0000
  H   H40       1.0  0.24569  0.74387  0.16896  1.0000
  H   H41       1.0  0.55124  0.42096  0.49507  1.0000
  H   H42       1.0  0.87002  0.42101  0.99457  1.0000
  H   H43       1.0  0.44877  0.57904  0.50493  1.0000
  H   H44       1.0  0.12998  0.57898  0.00543  1.0000
  H   H45       1.0  0.74805  0.64845  0.52978  1.0000
  H   H46       1.0  0.90076  0.64847  0.02917  1.0000
  H   H47       1.0  0.25194  0.35156  0.47022  1.0000
  H   H48       1.0  0.09925  0.35152  0.97083  1.0000
  C   C1        1.0  0.47714  0.03364  0.17946  1.0000
  C   C2        1.0  0.55657  0.03366  0.67960  1.0000
  C   C3        1.0  0.52286  0.96637  0.82054  1.0000
  C   C4        1.0  0.44342  0.96633  0.32040  1.0000
  C   C5        1.0  0.35009  0.03482  0.17769  1.0000
  C   C6        1.0  0.68479  0.03485  0.67781  1.0000
  C   C7        1.0  0.64991  0.96518  0.82231  1.0000
  C   C8        1.0  0.31522  0.96515  0.32219  1.0000
  C   C9        1.0  0.26553  0.99999  0.24994  1.0000
  C   C10       1.0  0.73447  0.00001  0.75005  1.0000
  C   C11       1.0  0.13004  0.00001  0.24992  1.0000
  C   C12       1.0  0.86996  0.99999  0.75008  1.0000
  C   C13       1.0  0.04445  0.96182  0.16029  1.0000
  C   C14       1.0  0.91729  0.96179  0.66041  1.0000
  C   C15       1.0  0.95555  0.03818  0.83971  1.0000
  C   C16       1.0  0.08272  0.03822  0.33959  1.0000
  C   C17       1.0  0.91808  0.96391  0.16317  1.0000
  C   C18       1.0  0.04570  0.96379  0.66322  1.0000
  C   C19       1.0  0.08192  0.03609  0.83683  1.0000
  C   C20       1.0  0.95430  0.03621  0.33678  1.0000
  C   C21       1.0  0.54238  0.78330  0.07794  1.0000
  C   C22       1.0  0.24109  0.78321  0.57785  1.0000
  C   C23       1.0  0.45762  0.21670  0.92206  1.0000
  C   C24       1.0  0.75891  0.21679  0.42215  1.0000
  C   C25       1.0  0.49513  0.65837  0.01104  1.0000
  C   C26       1.0  0.16335  0.65827  0.51097  1.0000
  C   C27       1.0  0.50487  0.34163  0.98896  1.0000
  C   C28       1.0  0.83665  0.34173  0.48903  1.0000
  C   C29       1.0  0.52274  0.56635  0.03554  1.0000
  C   C30       1.0  0.04369  0.56633  0.53554  1.0000
  C   C31       1.0  0.47725  0.43365  0.96446  1.0000
  C   C32       1.0  0.95631  0.43368  0.46446  1.0000
  C   C33       1.0  0.59522  0.60724  0.13172  1.0000
  C   C34       1.0  0.01209  0.60729  0.63173  1.0000
  C   C35       1.0  0.40478  0.39276  0.86828  1.0000
  C   C36       1.0  0.98791  0.39272  0.36827  1.0000
  C   C37       1.0  0.63866  0.73296  0.19555  1.0000
  C   C38       1.0  0.09457  0.73297  0.69555  1.0000
  C   C39       1.0  0.36133  0.26703  0.80445  1.0000
  C   C40       1.0  0.90543  0.26704  0.30445  1.0000
  C   C41       1.0  0.81052  0.60473  0.38557  1.0000
  C   C42       1.0  0.79381  0.60448  0.88521  1.0000
  C   C43       1.0  0.18948  0.39527  0.61442  1.0000
  C   C44       1.0  0.20619  0.39552  0.11479  1.0000
  C   C45       1.0  0.78532  0.50895  0.29340  1.0000
  C   C46       1.0  0.72286  0.50853  0.79318  1.0000
  C   C47       1.0  0.21469  0.49106  0.70660  1.0000
  C   C48       1.0  0.27713  0.49146  0.20682  1.0000
  C   C49       1.0  0.67320  0.38345  0.27319  1.0000
  C   C50       1.0  0.70946  0.38302  0.77302  1.0000
  C   C51       1.0  0.32681  0.61656  0.72680  1.0000
  C   C52       1.0  0.29053  0.61697  0.22699  1.0000
  C   C53       1.0  0.58888  0.35386  0.34593  1.0000
  C   C54       1.0  0.76471  0.35363  0.84560  1.0000
  C   C55       1.0  0.41113  0.64615  0.65407  1.0000
  C   C56       1.0  0.23529  0.64636  0.15440  1.0000
  C   C57       1.0  0.61617  0.44791  0.43859  1.0000
  C   C58       1.0  0.83171  0.44781  0.93817  1.0000
  C   C59       1.0  0.38384  0.55209  0.56140  1.0000
  C   C60       1.0  0.16828  0.55219  0.06184  1.0000
  C   C61       1.0  0.72651  0.57353  0.45844  1.0000
  C   C62       1.0  0.84705  0.57342  0.95795  1.0000
  C   C63       1.0  0.27349  0.42647  0.54156  1.0000
  C   C64       1.0  0.15295  0.42657  0.04205  1.0000
  N   N1        1.0  0.75827  0.15741  0.03973  1.0000
  N   N2        1.0  0.39901  0.15732  0.53985  1.0000
  N   N3        1.0  0.24173  0.84260  0.96027  1.0000
  N   N4        1.0  0.60099  0.84268  0.46015  1.0000
  N   N5        1.0  0.52324  0.00003  0.24997  1.0000
  N   N6        1.0  0.47676  0.99997  0.75003  1.0000
  N   N7        1.0  0.87318  0.00008  0.25000  1.0000
  N   N8        1.0  0.12682  0.99992  0.75000  1.0000
  N   N9        1.0  0.61485  0.82147  0.16856  1.0000
  N   N10       1.0  0.20684  0.82145  0.66849  1.0000
  N   N11       1.0  0.38515  0.17853  0.83144  1.0000
  N   N12       1.0  0.79315  0.17855  0.33151  1.0000
  Cl  Cl1       1.0  0.94562  0.76132  0.40912  1.0000
  Cl  Cl2       1.0  0.81547  0.76110  0.90876  1.0000
  Cl  Cl3       1.0  0.05437  0.23868  0.59087  1.0000
  Cl  Cl4       1.0  0.18454  0.23889  0.09123  1.0000
  Cl  Cl5       1.0  0.89531  0.54287  0.20581  1.0000
  Cl  Cl6       1.0  0.64635  0.54229  0.70577  1.0000
  Cl  Cl7       1.0  0.10469  0.45714  0.79419  1.0000
  Cl  Cl8       1.0  0.35366  0.45770  0.29423  1.0000
  O   O1        1.0  0.74325  0.05996  0.06656  1.0000
  O   O2        1.0  0.31656  0.05967  0.56647  1.0000
  O   O3        1.0  0.25674  0.94005  0.93343  1.0000
  O   O4        1.0  0.68343  0.94032  0.43352  1.0000
  O   O5        1.0  0.66571  0.19491  0.05128  1.0000
  O   O6        1.0  0.52912  0.19501  0.55154  1.0000
  O   O7        1.0  0.33429  0.80510  0.94872  1.0000
  O   O8        1.0  0.47088  0.80499  0.44848  1.0000
  O   O9        1.0  0.86340  0.21476  0.00133  1.0000
  O   O10       1.0  0.35121  0.21469  0.50152  1.0000
  O   O11       1.0  0.13661  0.78527  0.99868  1.0000
  O   O12       1.0  0.64880  0.78531  0.49848  1.0000
