data_image0
_chemical_formula_structural       Ni2H32C40N12O12
_chemical_formula_sum              "Ni2 H32 C40 N12 O12"
_cell_length_a       10.8203
_cell_length_b       11.3329
_cell_length_c       12.9991
_cell_angle_alpha    100.03
_cell_angle_beta     89.9837
_cell_angle_gamma    118.549

_space_group_name_H-M_alt    "P 1"
_space_group_IT_number       1

loop_
  _space_group_symop_operation_xyz
  'x, y, z'

loop_
  _atom_site_type_symbol
  _atom_site_label
  _atom_site_symmetry_multiplicity
  _atom_site_fract_x
  _atom_site_fract_y
  _atom_site_fract_z
  _atom_site_occupancy
  Ni  Ni1       1.0  0.31683  0.99993  0.75009  1.0000
  Ni  Ni2       1.0  0.68317  0.00010  0.24993  1.0000
  H   H1        1.0  0.06204  0.75256  0.77679  1.0000
  H   H2        1.0  0.69035  0.75303  0.27663  1.0000
  H   H3        1.0  0.93799  0.24746  0.22322  1.0000
  H   H4        1.0  0.30963  0.24698  0.72337  1.0000
  H   H5        1.0  0.90648  0.53245  0.66253  1.0000
  H   H6        1.0  0.62589  0.53292  0.16258  1.0000
  H   H7        1.0  0.09357  0.46760  0.33748  1.0000
  H   H8        1.0  0.37413  0.46711  0.83740  1.0000
  H   H9        1.0  0.22895  0.63544  0.44370  1.0000
  H   H10       1.0  0.40603  0.63513  0.94358  1.0000
  H   H11       1.0  0.77108  0.36459  0.55632  1.0000
  H   H12       1.0  0.59400  0.36493  0.05642  1.0000
  H   H13       1.0  0.36879  0.85206  0.56414  1.0000
  H   H14       1.0  0.48303  0.85188  0.06376  1.0000
  H   H15       1.0  0.63125  0.14796  0.43587  1.0000
  H   H16       1.0  0.51696  0.14813  0.93627  1.0000
  H   H17       1.0  0.43746  0.87839  0.86334  1.0000
  H   H18       1.0  0.44096  0.87847  0.36331  1.0000
  H   H19       1.0  0.56254  0.12166  0.13670  1.0000
  H   H20       1.0  0.55906  0.12153  0.63669  1.0000
  H   H21       1.0  0.66791  0.87812  0.87034  1.0000
  H   H22       1.0  0.21013  0.87808  0.37039  1.0000
  H   H23       1.0  0.33206  0.12186  0.12967  1.0000
  H   H24       1.0  0.78984  0.12184  0.62959  1.0000
  H   H25       1.0  0.92924  0.05203  0.92004  1.0000
  H   H26       1.0  0.12252  0.05174  0.42018  1.0000
  H   H27       1.0  0.07068  0.94787  0.07996  1.0000
  H   H28       1.0  0.87745  0.94822  0.57981  1.0000
  H   H29       1.0  0.15564  0.04063  0.91241  1.0000
  H   H30       1.0  0.88468  0.04033  0.41248  1.0000
  H   H31       1.0  0.84433  0.95935  0.08758  1.0000
  H   H32       1.0  0.11534  0.95971  0.58751  1.0000
  C   C1        1.0  0.09431  0.72398  0.70132  1.0000
  C   C2        1.0  0.62938  0.72425  0.20116  1.0000
  C   C3        1.0  0.90573  0.27605  0.29870  1.0000
  C   C4        1.0  0.37060  0.27576  0.79883  1.0000
  C   C5        1.0  0.00705  0.59941  0.63576  1.0000
  C   C6        1.0  0.59226  0.59973  0.13566  1.0000
  C   C7        1.0  0.99299  0.40061  0.36426  1.0000
  C   C8        1.0  0.40775  0.40030  0.86433  1.0000
  C   C9        1.0  0.04745  0.56387  0.53743  1.0000
  C   C10       1.0  0.51631  0.56393  0.03730  1.0000
  C   C11       1.0  0.95259  0.43616  0.46259  1.0000
  C   C12       1.0  0.48369  0.43611  0.96268  1.0000
  C   C13       1.0  0.18312  0.65586  0.51456  1.0000
  C   C14       1.0  0.47252  0.65573  0.01434  1.0000
  C   C15       1.0  0.81694  0.34417  0.48546  1.0000
  C   C16       1.0  0.52749  0.34431  0.98565  1.0000
  C   C17       1.0  0.26557  0.77921  0.58343  1.0000
  C   C18       1.0  0.51343  0.77915  0.08307  1.0000
  C   C19       1.0  0.73446  0.22081  0.41659  1.0000
  C   C20       1.0  0.48654  0.22089  0.91693  1.0000
  C   C21       1.0  0.51957  0.93178  0.81381  1.0000
  C   C22       1.0  0.41225  0.93186  0.31378  1.0000
  C   C23       1.0  0.48043  0.06824  0.18621  1.0000
  C   C24       1.0  0.58775  0.06813  0.68622  1.0000
  C   C25       1.0  0.64761  0.93166  0.81641  1.0000
  C   C26       1.0  0.28401  0.93171  0.31647  1.0000
  C   C27       1.0  0.35237  0.06831  0.18359  1.0000
  C   C28       1.0  0.71596  0.06824  0.68352  1.0000
  C   C29       1.0  0.74839  0.99994  0.74995  1.0000
  C   C30       1.0  0.25157  0.99999  0.25004  1.0000
  C   C31       1.0  0.88457  0.00001  0.74993  1.0000
  C   C32       1.0  0.11539  0.99993  0.25006  1.0000
  C   C33       1.0  0.96338  0.02542  0.84456  1.0000
  C   C34       1.0  0.06181  0.02515  0.34468  1.0000
  C   C35       1.0  0.03657  0.97451  0.15541  1.0000
  C   C36       1.0  0.93816  0.97480  0.65530  1.0000
  C   C37       1.0  0.09099  0.02447  0.84173  1.0000
  C   C38       1.0  0.93324  0.02419  0.34177  1.0000
  C   C39       1.0  0.90898  0.97549  0.15826  1.0000
  C   C40       1.0  0.06675  0.97579  0.65823  1.0000
  N   N1        1.0  0.20401  0.81987  0.94896  1.0000
  N   N2        1.0  0.61565  0.81996  0.44904  1.0000
  N   N3        1.0  0.79600  0.18011  0.05102  1.0000
  N   N4        1.0  0.38434  0.18003  0.55096  1.0000
  N   N5        1.0  0.22029  0.81574  0.67417  1.0000
  N   N6        1.0  0.59523  0.81588  0.17388  1.0000
  N   N7        1.0  0.77975  0.18428  0.32584  1.0000
  N   N8        1.0  0.40476  0.18415  0.82613  1.0000
  N   N9        1.0  0.49131  0.99998  0.75003  1.0000
  N   N10       1.0  0.50871  0.00005  0.24998  1.0000
  N   N11       1.0  0.14155  0.00005  0.74999  1.0000
  N   N12       1.0  0.85844  0.99994  0.25001  1.0000
  O   O1        1.0  0.28865  0.94830  0.95480  1.0000
  O   O2        1.0  0.65928  0.94832  0.45473  1.0000
  O   O3        1.0  0.71137  0.05169  0.04519  1.0000
  O   O4        1.0  0.34076  0.05168  0.54530  1.0000
  O   O5        1.0  0.25239  0.73702  0.93371  1.0000
  O   O6        1.0  0.48441  0.73686  0.43374  1.0000
  O   O7        1.0  0.74762  0.26297  0.06628  1.0000
  O   O8        1.0  0.51558  0.26315  0.56621  1.0000
  O   O9        1.0  0.07372  0.77849  0.95608  1.0000
  O   O10       1.0  0.70472  0.77887  0.45634  1.0000
  O   O11       1.0  0.92629  0.22151  0.04390  1.0000
  O   O12       1.0  0.29524  0.22108  0.54368  1.0000
