data_image0
_chemical_formula_structural       Co2H32C40N12O12
_chemical_formula_sum              "Co2 H32 C40 N12 O12"
_cell_length_a       10.9994
_cell_length_b       11.3296
_cell_length_c       12.6744
_cell_angle_alpha    98.251
_cell_angle_beta     90.0205
_cell_angle_gamma    119.044

_space_group_name_H-M_alt    "P 1"
_space_group_IT_number       1

loop_
  _space_group_symop_operation_xyz
  'x, y, z'

loop_
  _atom_site_type_symbol
  _atom_site_label
  _atom_site_symmetry_multiplicity
  _atom_site_fract_x
  _atom_site_fract_y
  _atom_site_fract_z
  _atom_site_occupancy
  Co  Co1       1.0  0.31676  0.99999  0.75005  1.0000
  Co  Co2       1.0  0.68324  0.00001  0.24995  1.0000
  H   H1        1.0  0.15970  0.05841  0.91435  1.0000
  H   H2        1.0  0.89894  0.05864  0.41421  1.0000
  H   H3        1.0  0.84030  0.94158  0.08565  1.0000
  H   H4        1.0  0.10107  0.94137  0.58578  1.0000
  H   H5        1.0  0.93848  0.06846  0.92148  1.0000
  H   H6        1.0  0.13043  0.06913  0.42133  1.0000
  H   H7        1.0  0.06151  0.93152  0.07852  1.0000
  H   H8        1.0  0.86957  0.93086  0.57866  1.0000
  H   H9        1.0  0.68770  0.91684  0.89767  1.0000
  H   H10       1.0  0.22938  0.91738  0.39753  1.0000
  H   H11       1.0  0.31230  0.08315  0.10233  1.0000
  H   H12       1.0  0.77062  0.08261  0.60246  1.0000
  H   H13       1.0  0.46127  0.91433  0.88857  1.0000
  H   H14       1.0  0.45304  0.91439  0.38841  1.0000
  H   H15       1.0  0.53873  0.08567  0.11143  1.0000
  H   H16       1.0  0.54696  0.08561  0.61159  1.0000
  H   H17       1.0  0.52802  0.15755  0.93111  1.0000
  H   H18       1.0  0.62962  0.15736  0.43109  1.0000
  H   H19       1.0  0.47199  0.84246  0.06889  1.0000
  H   H20       1.0  0.37038  0.84264  0.56890  1.0000
  H   H21       1.0  0.60341  0.37045  0.05167  1.0000
  H   H22       1.0  0.76712  0.37027  0.55168  1.0000
  H   H23       1.0  0.39659  0.62955  0.94833  1.0000
  H   H24       1.0  0.23288  0.62975  0.44831  1.0000
  H   H25       1.0  0.36162  0.46342  0.84070  1.0000
  H   H26       1.0  0.10173  0.46359  0.34069  1.0000
  H   H27       1.0  0.63836  0.53657  0.15931  1.0000
  H   H28       1.0  0.89827  0.53642  0.65930  1.0000
  H   H29       1.0  0.29927  0.24699  0.72603  1.0000
  H   H30       1.0  0.94766  0.24716  0.22598  1.0000
  H   H31       1.0  0.70072  0.75301  0.27398  1.0000
  H   H32       1.0  0.05235  0.75284  0.77401  1.0000
  C   C1        1.0  0.09303  0.03374  0.84222  1.0000
  C   C2        1.0  0.94095  0.03407  0.34208  1.0000
  C   C3        1.0  0.90697  0.96625  0.15778  1.0000
  C   C4        1.0  0.05906  0.96592  0.65792  1.0000
  C   C5        1.0  0.96759  0.03469  0.84541  1.0000
  C   C6        1.0  0.06746  0.03528  0.34526  1.0000
  C   C7        1.0  0.03241  0.96529  0.15459  1.0000
  C   C8        1.0  0.93254  0.96472  0.65473  1.0000
  C   C9        1.0  0.88420  0.99966  0.75007  1.0000
  C   C10       1.0  0.11579  0.00032  0.24993  1.0000
  C   C11       1.0  0.75042  0.99970  0.75005  1.0000
  C   C12       1.0  0.24957  0.00028  0.24995  1.0000
  C   C13       1.0  0.66089  0.95361  0.83141  1.0000
  C   C14       1.0  0.29293  0.95408  0.33129  1.0000
  C   C15       1.0  0.33911  0.04638  0.16858  1.0000
  C   C16       1.0  0.70707  0.04591  0.66870  1.0000
  C   C17       1.0  0.53475  0.95341  0.82834  1.0000
  C   C18       1.0  0.41873  0.95362  0.32820  1.0000
  C   C19       1.0  0.46525  0.04659  0.17166  1.0000
  C   C20       1.0  0.58127  0.04638  0.67180  1.0000
  C   C21       1.0  0.49189  0.22687  0.91344  1.0000
  C   C22       1.0  0.73501  0.22678  0.41341  1.0000
  C   C23       1.0  0.50811  0.77313  0.08657  1.0000
  C   C24       1.0  0.26499  0.77323  0.58658  1.0000
  C   C25       1.0  0.53287  0.34853  0.98248  1.0000
  C   C26       1.0  0.81570  0.34843  0.48247  1.0000
  C   C27       1.0  0.46712  0.65147  0.01753  1.0000
  C   C28       1.0  0.18430  0.65159  0.51752  1.0000
  C   C29       1.0  0.48342  0.43723  0.96233  1.0000
  C   C30       1.0  0.95380  0.43723  0.46231  1.0000
  C   C31       1.0  0.51656  0.56276  0.03768  1.0000
  C   C32       1.0  0.04620  0.56278  0.53768  1.0000
  C   C33       1.0  0.40103  0.39949  0.86569  1.0000
  C   C34       1.0  0.99840  0.39958  0.36567  1.0000
  C   C35       1.0  0.59894  0.60050  0.13432  1.0000
  C   C36       1.0  0.00160  0.60043  0.63433  1.0000
  C   C37       1.0  0.36484  0.27681  0.79986  1.0000
  C   C38       1.0  0.91192  0.27691  0.29981  1.0000
  C   C39       1.0  0.63514  0.72318  0.20015  1.0000
  C   C40       1.0  0.08808  0.72310  0.70019  1.0000
  N   N1        1.0  0.20747  0.81997  0.93896  1.0000
  N   N2        1.0  0.61240  0.81995  0.43887  1.0000
  N   N3        1.0  0.79253  0.18003  0.06103  1.0000
  N   N4        1.0  0.38762  0.18008  0.56114  1.0000
  N   N5        1.0  0.13934  0.99991  0.75006  1.0000
  N   N6        1.0  0.86066  0.00009  0.24993  1.0000
  N   N7        1.0  0.49464  0.99995  0.75007  1.0000
  N   N8        1.0  0.50537  0.00005  0.24993  1.0000
  N   N9        1.0  0.40470  0.18732  0.82448  1.0000
  N   N10       1.0  0.78261  0.18733  0.32442  1.0000
  N   N11       1.0  0.59530  0.81269  0.17552  1.0000
  N   N12       1.0  0.21739  0.81267  0.67557  1.0000
  O   O1        1.0  0.28063  0.94418  0.91806  1.0000
  O   O2        1.0  0.66374  0.94416  0.41794  1.0000
  O   O3        1.0  0.71937  0.05582  0.08194  1.0000
  O   O4        1.0  0.33626  0.05585  0.58206  1.0000
  O   O5        1.0  0.08473  0.78023  0.96395  1.0000
  O   O6        1.0  0.69515  0.77991  0.46387  1.0000
  O   O7        1.0  0.91527  0.21977  0.03605  1.0000
  O   O8        1.0  0.30487  0.22010  0.53609  1.0000
  O   O9        1.0  0.26214  0.74460  0.93330  1.0000
  O   O10       1.0  0.48230  0.74484  0.43322  1.0000
  O   O11       1.0  0.73786  0.25540  0.06670  1.0000
  O   O12       1.0  0.51772  0.25520  0.56685  1.0000
