data_image0
_chemical_formula_structural       Cu2H40C16S8Cl4O24
_chemical_formula_sum              "Cu2 H40 C16 S8 Cl4 O24"
_cell_length_a       8.26394
_cell_length_b       9.40346
_cell_length_c       12.4001
_cell_angle_alpha    90.0002
_cell_angle_beta     90
_cell_angle_gamma    97.4218

_space_group_name_H-M_alt    "P 1"
_space_group_IT_number       1

loop_
  _space_group_symop_operation_xyz
  'x, y, z'

loop_
  _atom_site_type_symbol
  _atom_site_label
  _atom_site_symmetry_multiplicity
  _atom_site_fract_x
  _atom_site_fract_y
  _atom_site_fract_z
  _atom_site_occupancy
  Cu  Cu1       1.0  0.00000  0.00000  1.00000  1.0000
  Cu  Cu2       1.0  0.50000  1.00000  0.50000  1.0000
  H   H1        1.0  0.82592  0.41163  0.07797  1.0000
  H   H2        1.0  0.32593  0.41163  0.42202  1.0000
  H   H3        1.0  0.17408  0.58837  0.92202  1.0000
  H   H4        1.0  0.67407  0.58836  0.57798  1.0000
  H   H5        1.0  0.64962  0.38100  0.16422  1.0000
  H   H6        1.0  0.14963  0.38101  0.33578  1.0000
  H   H7        1.0  0.35037  0.61899  0.83578  1.0000
  H   H8        1.0  0.85036  0.61899  0.66422  1.0000
  H   H9        1.0  0.62928  0.33808  0.02344  1.0000
  H   H10       1.0  0.12929  0.33808  0.47656  1.0000
  H   H11       1.0  0.37072  0.66192  0.97656  1.0000
  H   H12       1.0  0.87071  0.66191  0.52344  1.0000
  H   H13       1.0  0.50755  0.13261  0.21689  1.0000
  H   H14       1.0  0.00755  0.13262  0.28311  1.0000
  H   H15       1.0  0.49245  0.86739  0.78311  1.0000
  H   H16       1.0  0.99245  0.86739  0.71689  1.0000
  H   H17       1.0  0.48221  0.10976  0.07551  1.0000
  H   H18       1.0  0.98222  0.10977  0.42449  1.0000
  H   H19       1.0  0.51779  0.89024  0.92449  1.0000
  H   H20       1.0  0.01778  0.89023  0.57552  1.0000
  H   H21       1.0  0.63004  0.87490  0.10163  1.0000
  H   H22       1.0  0.13005  0.87491  0.39836  1.0000
  H   H23       1.0  0.36996  0.12510  0.89837  1.0000
  H   H24       1.0  0.86995  0.12509  0.60163  1.0000
  H   H25       1.0  0.41986  0.87149  0.13748  1.0000
  H   H26       1.0  0.91986  0.87149  0.36252  1.0000
  H   H27       1.0  0.58014  0.12851  0.86252  1.0000
  H   H28       1.0  0.08014  0.12851  0.63748  1.0000
  H   H29       1.0  0.42663  0.64782  0.24277  1.0000
  H   H30       1.0  0.92663  0.64783  0.25723  1.0000
  H   H31       1.0  0.57337  0.35218  0.75723  1.0000
  H   H32       1.0  0.07337  0.35219  0.74277  1.0000
  H   H33       1.0  0.63888  0.64519  0.21472  1.0000
  H   H34       1.0  0.13888  0.64519  0.28527  1.0000
  H   H35       1.0  0.36112  0.35480  0.78527  1.0000
  H   H36       1.0  0.86112  0.35481  0.71473  1.0000
  H   H37       1.0  0.56603  0.62816  0.35218  1.0000
  H   H38       1.0  0.06603  0.62817  0.14781  1.0000
  H   H39       1.0  0.43397  0.37184  0.64781  1.0000
  H   H40       1.0  0.93397  0.37184  0.85218  1.0000
  C   C1        1.0  0.71095  0.34349  0.09335  1.0000
  C   C2        1.0  0.21095  0.34350  0.40665  1.0000
  C   C3        1.0  0.28905  0.65651  0.90665  1.0000
  C   C4        1.0  0.78904  0.65650  0.59335  1.0000
  C   C5        1.0  0.55410  0.08260  0.14514  1.0000
  C   C6        1.0  0.05410  0.08261  0.35486  1.0000
  C   C7        1.0  0.44590  0.91740  0.85486  1.0000
  C   C8        1.0  0.94590  0.91739  0.64515  1.0000
  C   C9        1.0  0.54470  0.92122  0.15532  1.0000
  C   C10       1.0  0.04470  0.92122  0.34468  1.0000
  C   C11       1.0  0.45530  0.07878  0.84468  1.0000
  C   C12       1.0  0.95530  0.07878  0.65532  1.0000
  C   C13       1.0  0.55084  0.67735  0.27328  1.0000
  C   C14       1.0  0.05084  0.67736  0.22671  1.0000
  C   C15       1.0  0.44916  0.32265  0.72672  1.0000
  C   C16       1.0  0.94916  0.32265  0.77328  1.0000
  S   S1        1.0  0.76102  0.16895  0.12375  1.0000
  S   S2        1.0  0.26103  0.16895  0.37625  1.0000
  S   S3        1.0  0.23898  0.83105  0.87625  1.0000
  S   S4        1.0  0.73897  0.83105  0.62375  1.0000
  S   S5        1.0  0.59255  0.86717  0.29020  1.0000
  S   S6        1.0  0.09255  0.86718  0.20980  1.0000
  S   S7        1.0  0.40745  0.13283  0.70980  1.0000
  S   S8        1.0  0.90745  0.13283  0.79020  1.0000
  Cl  Cl1       1.0  0.75995  0.66926  0.91971  1.0000
  Cl  Cl2       1.0  0.25994  0.66926  0.58029  1.0000
  Cl  Cl3       1.0  0.24006  0.33074  0.08028  1.0000
  Cl  Cl4       1.0  0.74006  0.33073  0.41971  1.0000
  O   O1        1.0  0.80794  0.10804  0.01340  1.0000
  O   O2        1.0  0.30794  0.10803  0.48660  1.0000
  O   O3        1.0  0.19206  0.89196  0.98660  1.0000
  O   O4        1.0  0.69206  0.89197  0.51340  1.0000
  O   O5        1.0  0.44863  0.90898  0.35809  1.0000
  O   O6        1.0  0.94863  0.90898  0.14191  1.0000
  O   O7        1.0  0.55136  0.09102  0.64192  1.0000
  O   O8        1.0  0.05136  0.09102  0.85809  1.0000
  O   O9        1.0  0.81320  0.81843  0.88590  1.0000
  O   O10       1.0  0.31319  0.81843  0.61410  1.0000
  O   O11       1.0  0.18680  0.18157  0.11410  1.0000
  O   O12       1.0  0.68681  0.18156  0.38590  1.0000
  O   O13       1.0  0.66045  0.67032  0.01710  1.0000
  O   O14       1.0  0.16045  0.67032  0.48291  1.0000
  O   O15       1.0  0.33956  0.32968  0.98290  1.0000
  O   O16       1.0  0.83955  0.32968  0.51709  1.0000
  O   O17       1.0  0.90281  0.59815  0.94185  1.0000
  O   O18       1.0  0.40280  0.59815  0.55816  1.0000
  O   O19       1.0  0.09721  0.40186  0.05815  1.0000
  O   O20       1.0  0.59720  0.40185  0.44184  1.0000
  O   O21       1.0  0.66367  0.59517  0.83309  1.0000
  O   O22       1.0  0.16366  0.59517  0.66692  1.0000
  O   O23       1.0  0.33634  0.40483  0.16692  1.0000
  O   O24       1.0  0.83634  0.40483  0.33308  1.0000
