data_image0
_chemical_formula_structural       Cd4H40C48N16O16
_chemical_formula_sum              "Cd4 H40 C48 N16 O16"
_cell_length_a       9.212
_cell_length_b       9.212
_cell_length_c       14.9631
_cell_angle_alpha    93.6941
_cell_angle_beta     93.6942
_cell_angle_gamma    95.2534

_space_group_name_H-M_alt    "P 1"
_space_group_IT_number       1

loop_
  _space_group_symop_operation_xyz
  'x, y, z'

loop_
  _atom_site_type_symbol
  _atom_site_label
  _atom_site_symmetry_multiplicity
  _atom_site_fract_x
  _atom_site_fract_y
  _atom_site_fract_z
  _atom_site_occupancy
  Cd  Cd1       1.0  0.45338  0.57875  0.61378  1.0000
  Cd  Cd2       1.0  0.42126  0.54662  0.88622  1.0000
  Cd  Cd3       1.0  0.54662  0.42126  0.38622  1.0000
  Cd  Cd4       1.0  0.57874  0.45338  0.11378  1.0000
  H   H1        1.0  0.13403  0.53133  0.70206  1.0000
  H   H2        1.0  0.46867  0.86597  0.79794  1.0000
  H   H3        1.0  0.86597  0.46867  0.29794  1.0000
  H   H4        1.0  0.53133  0.13403  0.20206  1.0000
  H   H5        1.0  0.29443  0.89641  0.57075  1.0000
  H   H6        1.0  0.10359  0.70557  0.92926  1.0000
  H   H7        1.0  0.70557  0.10360  0.42926  1.0000
  H   H8        1.0  0.89640  0.29443  0.07074  1.0000
  H   H9        1.0  0.80945  0.80027  0.68385  1.0000
  H   H10       1.0  0.19973  0.19055  0.81615  1.0000
  H   H11       1.0  0.19055  0.19973  0.31615  1.0000
  H   H12       1.0  0.80027  0.80945  0.18385  1.0000
  H   H13       1.0  0.90639  0.53821  0.78218  1.0000
  H   H14       1.0  0.46179  0.09361  0.71782  1.0000
  H   H15       1.0  0.09361  0.46179  0.21782  1.0000
  H   H16       1.0  0.53821  0.90639  0.28218  1.0000
  H   H17       1.0  0.72386  0.99939  0.64702  1.0000
  H   H18       1.0  0.00061  0.27614  0.85298  1.0000
  H   H19       1.0  0.27614  0.00061  0.35298  1.0000
  H   H20       1.0  0.99939  0.72386  0.14702  1.0000
  H   H21       1.0  0.83389  0.43638  0.59016  1.0000
  H   H22       1.0  0.56362  0.16611  0.90984  1.0000
  H   H23       1.0  0.16611  0.56362  0.40984  1.0000
  H   H24       1.0  0.43638  0.83389  0.09016  1.0000
  H   H25       1.0  0.11509  0.41224  0.54457  1.0000
  H   H26       1.0  0.58776  0.88490  0.95543  1.0000
  H   H27       1.0  0.88491  0.58776  0.45543  1.0000
  H   H28       1.0  0.41224  0.11509  0.04457  1.0000
  H   H29       1.0  0.20644  0.09929  0.53430  1.0000
  H   H30       1.0  0.90071  0.79356  0.96570  1.0000
  H   H31       1.0  0.79356  0.90071  0.46571  1.0000
  H   H32       1.0  0.09929  0.20644  0.03430  1.0000
  H   H33       1.0  0.03413  0.94806  0.61772  1.0000
  H   H34       1.0  0.05194  0.96587  0.88228  1.0000
  H   H35       1.0  0.96587  0.05194  0.38228  1.0000
  H   H36       1.0  0.94806  0.03413  0.11772  1.0000
  H   H37       1.0  0.63593  0.25831  0.63858  1.0000
  H   H38       1.0  0.74168  0.36407  0.86142  1.0000
  H   H39       1.0  0.36408  0.74168  0.36142  1.0000
  H   H40       1.0  0.25832  0.63592  0.13858  1.0000
  C   C1        1.0  0.02854  0.73450  0.67243  1.0000
  C   C2        1.0  0.26550  0.97146  0.82757  1.0000
  C   C3        1.0  0.97146  0.26550  0.32757  1.0000
  C   C4        1.0  0.73450  0.02854  0.17243  1.0000
  C   C5        1.0  0.13441  0.63648  0.67357  1.0000
  C   C6        1.0  0.36352  0.86558  0.82643  1.0000
  C   C7        1.0  0.86558  0.36352  0.32643  1.0000
  C   C8        1.0  0.63648  0.13442  0.17357  1.0000
  C   C9        1.0  0.22123  0.82412  0.60555  1.0000
  C   C10       1.0  0.17588  0.77877  0.89445  1.0000
  C   C11       1.0  0.77877  0.17588  0.39445  1.0000
  C   C12       1.0  0.82412  0.22123  0.10555  1.0000
  C   C13       1.0  0.88480  0.72192  0.70445  1.0000
  C   C14       1.0  0.27808  0.11519  0.79555  1.0000
  C   C15       1.0  0.11519  0.27807  0.29555  1.0000
  C   C16       1.0  0.72193  0.88481  0.20445  1.0000
  C   C17       1.0  0.83477  0.61669  0.75692  1.0000
  C   C18       1.0  0.38331  0.16523  0.74308  1.0000
  C   C19       1.0  0.16522  0.38331  0.24308  1.0000
  C   C20       1.0  0.61669  0.83478  0.25692  1.0000
  C   C21       1.0  0.68313  0.60289  0.78294  1.0000
  C   C22       1.0  0.39711  0.31687  0.71706  1.0000
  C   C23       1.0  0.31687  0.39711  0.21706  1.0000
  C   C24       1.0  0.60289  0.68313  0.28294  1.0000
  C   C25       1.0  0.96944  0.24304  0.59046  1.0000
  C   C26       1.0  0.75696  0.03056  0.90954  1.0000
  C   C27       1.0  0.03056  0.75696  0.40954  1.0000
  C   C28       1.0  0.24304  0.96944  0.09046  1.0000
  C   C29       1.0  0.79210  0.09553  0.63122  1.0000
  C   C30       1.0  0.90447  0.20790  0.86878  1.0000
  C   C31       1.0  0.20790  0.90447  0.36878  1.0000
  C   C32       1.0  0.09553  0.79210  0.13122  1.0000
  C   C33       1.0  0.85057  0.32384  0.60155  1.0000
  C   C34       1.0  0.67616  0.14943  0.89845  1.0000
  C   C35       1.0  0.14943  0.67616  0.39845  1.0000
  C   C36       1.0  0.32384  0.85056  0.10155  1.0000
  C   C37       1.0  0.10386  0.29564  0.55510  1.0000
  C   C38       1.0  0.70435  0.89614  0.94490  1.0000
  C   C39       1.0  0.89614  0.70436  0.44491  1.0000
  C   C40       1.0  0.29564  0.10386  0.05510  1.0000
  C   C41       1.0  0.21214  0.21667  0.52894  1.0000
  C   C42       1.0  0.78333  0.78786  0.97106  1.0000
  C   C43       1.0  0.78786  0.78333  0.47106  1.0000
  C   C44       1.0  0.21667  0.21215  0.02894  1.0000
  C   C45       1.0  0.33675  0.28247  0.48441  1.0000
  C   C46       1.0  0.71753  0.66325  0.01559  1.0000
  C   C47       1.0  0.66325  0.71753  0.51559  1.0000
  C   C48       1.0  0.28247  0.33675  0.98441  1.0000
  N   N1        1.0  0.25250  0.69313  0.63186  1.0000
  N   N2        1.0  0.30687  0.74750  0.86814  1.0000
  N   N3        1.0  0.74750  0.30687  0.36814  1.0000
  N   N4        1.0  0.69313  0.25250  0.13186  1.0000
  N   N5        1.0  0.08745  0.85255  0.62878  1.0000
  N   N6        1.0  0.14745  0.91255  0.87121  1.0000
  N   N7        1.0  0.91255  0.14745  0.37122  1.0000
  N   N8        1.0  0.85255  0.08745  0.12878  1.0000
  N   N9        1.0  0.74050  0.22895  0.62667  1.0000
  N   N10       1.0  0.77105  0.25950  0.87333  1.0000
  N   N11       1.0  0.25950  0.77105  0.37333  1.0000
  N   N12       1.0  0.22895  0.74050  0.12667  1.0000
  N   N13       1.0  0.93025  0.09917  0.60992  1.0000
  N   N14       1.0  0.90083  0.06975  0.89008  1.0000
  N   N15       1.0  0.06975  0.90083  0.39008  1.0000
  N   N16       1.0  0.09917  0.93025  0.10992  1.0000
  O   O1        1.0  0.58882  0.68082  0.74981  1.0000
  O   O2        1.0  0.31918  0.41118  0.75019  1.0000
  O   O3        1.0  0.41118  0.31918  0.25019  1.0000
  O   O4        1.0  0.68082  0.58882  0.24981  1.0000
  O   O5        1.0  0.65045  0.50896  0.84074  1.0000
  O   O6        1.0  0.49104  0.34955  0.65926  1.0000
  O   O7        1.0  0.34955  0.49104  0.15926  1.0000
  O   O8        1.0  0.50897  0.65045  0.34074  1.0000
  O   O9        1.0  0.35072  0.42388  0.47817  1.0000
  O   O10       1.0  0.57613  0.64928  0.02183  1.0000
  O   O11       1.0  0.64928  0.57613  0.52183  1.0000
  O   O12       1.0  0.42387  0.35072  0.97817  1.0000
  O   O13       1.0  0.42529  0.20161  0.44942  1.0000
  O   O14       1.0  0.79840  0.57471  0.05058  1.0000
  O   O15       1.0  0.57471  0.79840  0.55058  1.0000
  O   O16       1.0  0.20161  0.42529  0.94942  1.0000
