data_image0
_chemical_formula_structural       Cu6H36C18S6I6N12
_chemical_formula_sum              "Cu6 H36 C18 S6 I6 N12"
_cell_length_a       9.49309
_cell_length_b       10.5213
_cell_length_c       12.5509
_cell_angle_alpha    107.308
_cell_angle_beta     99.5078
_cell_angle_gamma    114.098

_space_group_name_H-M_alt    "P 1"
_space_group_IT_number       1

loop_
  _space_group_symop_operation_xyz
  'x, y, z'

loop_
  _atom_site_type_symbol
  _atom_site_label
  _atom_site_symmetry_multiplicity
  _atom_site_fract_x
  _atom_site_fract_y
  _atom_site_fract_z
  _atom_site_occupancy
  Cu  Cu1       1.0  0.35107  0.86221  0.38631  1.0000
  Cu  Cu2       1.0  0.64894  0.13779  0.61369  1.0000
  Cu  Cu3       1.0  0.24030  0.99489  0.69229  1.0000
  Cu  Cu4       1.0  0.75970  0.00511  0.30770  1.0000
  Cu  Cu5       1.0  0.05159  0.05817  0.40972  1.0000
  Cu  Cu6       1.0  0.94841  0.94183  0.59028  1.0000
  H   H1        1.0  0.44474  0.67079  0.47168  1.0000
  H   H2        1.0  0.55525  0.32920  0.52832  1.0000
  H   H3        1.0  0.47748  0.89962  0.80732  1.0000
  H   H4        1.0  0.52253  0.10038  0.19268  1.0000
  H   H5        1.0  0.30318  0.29987  0.85599  1.0000
  H   H6        1.0  0.69682  0.70014  0.14401  1.0000
  H   H7        1.0  0.09647  0.35687  0.57495  1.0000
  H   H8        1.0  0.90353  0.64313  0.42504  1.0000
  H   H9        1.0  0.93748  0.93508  0.13876  1.0000
  H   H10       1.0  0.06253  0.06492  0.86124  1.0000
  H   H11       1.0  0.23818  0.75004  0.13168  1.0000
  H   H12       1.0  0.76182  0.24996  0.86831  1.0000
  H   H13       1.0  0.62662  0.61369  0.61296  1.0000
  H   H14       1.0  0.37337  0.38630  0.38704  1.0000
  H   H15       1.0  0.41507  0.50840  0.59893  1.0000
  H   H16       1.0  0.58492  0.49159  0.40108  1.0000
  H   H17       1.0  0.50941  0.66176  0.80737  1.0000
  H   H18       1.0  0.49058  0.33824  0.19263  1.0000
  H   H19       1.0  0.68889  0.80263  0.80012  1.0000
  H   H20       1.0  0.31110  0.19736  0.19988  1.0000
  H   H21       1.0  0.34689  0.57769  0.92687  1.0000
  H   H22       1.0  0.65312  0.42232  0.07312  1.0000
  H   H23       1.0  0.14988  0.45406  0.92451  1.0000
  H   H24       1.0  0.85012  0.54594  0.07549  1.0000
  H   H25       1.0  0.01868  0.46720  0.75153  1.0000
  H   H26       1.0  0.98131  0.53280  0.24847  1.0000
  H   H27       1.0  0.21266  0.61222  0.76585  1.0000
  H   H28       1.0  0.78733  0.38778  0.23414  1.0000
  H   H29       1.0  0.96697  0.87149  0.92465  1.0000
  H   H30       1.0  0.03303  0.12852  0.07536  1.0000
  H   H31       1.0  0.83845  0.70960  0.94711  1.0000
  H   H32       1.0  0.16155  0.29040  0.05290  1.0000
  H   H33       1.0  0.03231  0.62918  0.91766  1.0000
  H   H34       1.0  0.96770  0.37083  0.08234  1.0000
  H   H35       1.0  0.18800  0.81667  0.94531  1.0000
  H   H36       1.0  0.81200  0.18333  0.05469  1.0000
  C   C1        1.0  0.44532  0.80708  0.62902  1.0000
  C   C2        1.0  0.55468  0.19292  0.37098  1.0000
  C   C3        1.0  0.51926  0.62271  0.62635  1.0000
  C   C4        1.0  0.48073  0.37728  0.37366  1.0000
  C   C5        1.0  0.55667  0.72600  0.75522  1.0000
  C   C6        1.0  0.44332  0.27401  0.24478  1.0000
  C   C7        1.0  0.20330  0.29799  0.69585  1.0000
  C   C8        1.0  0.79670  0.70201  0.30415  1.0000
  C   C9        1.0  0.22806  0.47724  0.86954  1.0000
  C   C10       1.0  0.77194  0.52277  0.13045  1.0000
  C   C11       1.0  0.14694  0.49655  0.76178  1.0000
  C   C12       1.0  0.85305  0.50345  0.23822  1.0000
  C   C13       1.0  0.11150  0.86861  0.16983  1.0000
  C   C14       1.0  0.88851  0.13139  0.83017  1.0000
  C   C15       1.0  0.96331  0.80590  0.97838  1.0000
  C   C16       1.0  0.03670  0.19411  0.02162  1.0000
  C   C17       1.0  0.09079  0.75087  0.97493  1.0000
  C   C18       1.0  0.90921  0.24914  0.02508  1.0000
  S   S1        1.0  0.38565  0.92029  0.58236  1.0000
  S   S2        1.0  0.61435  0.07971  0.41764  1.0000
  S   S3        1.0  0.21016  0.14585  0.60197  1.0000
  S   S4        1.0  0.78984  0.85415  0.39803  1.0000
  S   S5        1.0  0.17150  0.93186  0.31936  1.0000
  S   S6        1.0  0.82851  0.06813  0.68064  1.0000
  I   I1        1.0  0.32661  0.61137  0.24946  1.0000
  I   I2        1.0  0.67337  0.38863  0.75054  1.0000
  I   I3        1.0  0.38666  0.11493  0.91989  1.0000
  I   I4        1.0  0.61336  0.88507  0.08010  1.0000
  I   I5        1.0  0.97476  0.73390  0.64999  1.0000
  I   I6        1.0  0.02524  0.26610  0.35002  1.0000
  N   N1        1.0  0.47643  0.70402  0.56158  1.0000
  N   N2        1.0  0.52356  0.29597  0.43842  1.0000
  N   N3        1.0  0.47381  0.81389  0.73973  1.0000
  N   N4        1.0  0.52618  0.18611  0.26026  1.0000
  N   N5        1.0  0.24793  0.34492  0.81316  1.0000
  N   N6        1.0  0.75208  0.65509  0.18684  1.0000
  N   N7        1.0  0.15431  0.38640  0.66204  1.0000
  N   N8        1.0  0.84568  0.61359  0.33795  1.0000
  N   N9        1.0  0.01292  0.90072  0.10481  1.0000
  N   N10       1.0  0.98709  0.09928  0.89519  1.0000
  N   N11       1.0  0.15613  0.78012  0.09894  1.0000
  N   N12       1.0  0.84388  0.21988  0.90106  1.0000
