data_image0
_chemical_formula_structural       Ag2Sb4H36C48S12N2O6
_chemical_formula_sum              "Ag2 Sb4 H36 C48 S12 N2 O6"
_cell_length_a       8.65147
_cell_length_b       13.3238
_cell_length_c       14.6346
_cell_angle_alpha    117.091
_cell_angle_beta     93.6781
_cell_angle_gamma    90.0072

_space_group_name_H-M_alt    "P 1"
_space_group_IT_number       1

loop_
  _space_group_symop_operation_xyz
  'x, y, z'

loop_
  _atom_site_type_symbol
  _atom_site_label
  _atom_site_symmetry_multiplicity
  _atom_site_fract_x
  _atom_site_fract_y
  _atom_site_fract_z
  _atom_site_occupancy
  Ag  Ag1       1.0  0.14481  0.95207  0.09576  1.0000
  Ag  Ag2       1.0  0.64472  0.14368  0.09578  1.0000
  Sb  Sb1       1.0  0.17317  0.93787  0.27262  1.0000
  Sb  Sb2       1.0  0.67334  0.33475  0.27259  1.0000
  Sb  Sb3       1.0  0.21903  0.78066  0.92116  1.0000
  Sb  Sb4       1.0  0.71874  0.14046  0.92115  1.0000
  H   H1        1.0  0.97851  0.16566  0.32185  1.0000
  H   H2        1.0  0.47863  0.15606  0.32150  1.0000
  H   H3        1.0  0.84781  0.29761  0.49114  1.0000
  H   H4        1.0  0.34827  0.19307  0.49084  1.0000
  H   H5        1.0  0.89658  0.22846  0.63496  1.0000
  H   H6        1.0  0.39672  0.40610  0.63470  1.0000
  H   H7        1.0  0.53848  0.91446  0.22113  1.0000
  H   H8        1.0  0.03874  0.30681  0.22147  1.0000
  H   H9        1.0  0.78135  0.91557  0.33901  1.0000
  H   H10       1.0  0.28143  0.42373  0.33947  1.0000
  H   H11       1.0  0.70260  0.95570  0.52488  1.0000
  H   H12       1.0  0.20250  0.56952  0.52532  1.0000
  H   H13       1.0  0.99140  0.70101  0.10679  1.0000
  H   H14       1.0  0.49232  0.40575  0.10634  1.0000
  H   H15       1.0  0.87340  0.54167  0.14508  1.0000
  H   H16       1.0  0.37398  0.60323  0.14466  1.0000
  H   H17       1.0  0.92731  0.59012  0.34054  1.0000
  H   H18       1.0  0.42684  0.75014  0.34031  1.0000
  H   H19       1.0  0.54509  0.78897  0.05523  1.0000
  H   H20       1.0  0.04466  0.26704  0.05565  1.0000
  H   H21       1.0  0.69255  0.61788  0.05781  1.0000
  H   H22       1.0  0.19147  0.44084  0.05792  1.0000
  H   H23       1.0  0.55770  0.42190  0.92166  1.0000
  H   H24       1.0  0.05653  0.49977  0.92128  1.0000
  H   H25       1.0  0.85301  0.73331  0.94405  1.0000
  H   H26       1.0  0.35271  0.21057  0.94403  1.0000
  H   H27       1.0  0.66382  0.56972  0.80993  1.0000
  H   H28       1.0  0.16344  0.24004  0.81001  1.0000
  H   H29       1.0  0.80691  0.43271  0.64664  1.0000
  H   H30       1.0  0.30651  0.21385  0.64670  1.0000
  H   H31       1.0  0.22291  0.97285  0.83609  1.0000
  H   H32       1.0  0.72299  0.86308  0.83613  1.0000
  H   H33       1.0  0.35373  0.95844  0.67300  1.0000
  H   H34       1.0  0.85417  0.71449  0.67317  1.0000
  H   H35       1.0  0.49653  0.76472  0.57892  1.0000
  H   H36       1.0  0.99667  0.81423  0.57914  1.0000
  C   C1        1.0  0.05712  0.06354  0.39623  1.0000
  C   C2        1.0  0.55693  0.33267  0.39602  1.0000
  C   C3        1.0  0.98250  0.15238  0.39010  1.0000
  C   C4        1.0  0.48254  0.23756  0.38981  1.0000
  C   C5        1.0  0.91322  0.22435  0.48220  1.0000
  C   C6        1.0  0.41351  0.25750  0.48192  1.0000
  C   C7        1.0  0.93630  0.19023  0.55765  1.0000
  C   C8        1.0  0.43654  0.36708  0.55743  1.0000
  C   C9        1.0  0.39494  0.94460  0.34788  1.0000
  C   C10       1.0  0.89502  0.40335  0.34814  1.0000
  C   C11       1.0  0.53189  0.92676  0.29955  1.0000
  C   C12       1.0  0.03205  0.37292  0.29991  1.0000
  C   C13       1.0  0.66371  0.92850  0.36352  1.0000
  C   C14       1.0  0.16378  0.43523  0.36397  1.0000
  C   C15       1.0  0.62607  0.94849  0.46016  1.0000
  C   C16       1.0  0.12600  0.51195  0.46057  1.0000
  C   C17       1.0  0.07580  0.78904  0.26810  1.0000
  C   C18       1.0  0.57607  0.47895  0.26780  1.0000
  C   C19       1.0  0.00147  0.70202  0.18169  1.0000
  C   C20       1.0  0.50199  0.47958  0.18133  1.0000
  C   C21       1.0  0.93660  0.61706  0.20229  1.0000
  C   C22       1.0  0.43686  0.58505  0.20194  1.0000
  C   C23       1.0  0.96307  0.63995  0.30365  1.0000
  C   C24       1.0  0.46281  0.66347  0.30338  1.0000
  C   C25       1.0  0.38316  0.66809  0.93500  1.0000
  C   C26       1.0  0.88294  0.26679  0.93496  1.0000
  C   C27       1.0  0.51011  0.70111  0.00596  1.0000
  C   C28       1.0  0.00964  0.30524  0.00609  1.0000
  C   C29       1.0  0.59024  0.60844  0.00692  1.0000
  C   C30       1.0  0.08936  0.39894  0.00695  1.0000
  C   C31       1.0  0.52238  0.50613  0.93760  1.0000
  C   C32       1.0  0.02145  0.43153  0.93737  1.0000
  C   C33       1.0  0.03529  0.66059  0.83849  1.0000
  C   C34       1.0  0.53497  0.17784  0.83849  1.0000
  C   C35       1.0  0.88697  0.66742  0.87089  1.0000
  C   C36       1.0  0.38664  0.20333  0.87088  1.0000
  C   C37       1.0  0.78513  0.57910  0.79892  1.0000
  C   C38       1.0  0.28476  0.21964  0.79894  1.0000
  C   C39       1.0  0.85736  0.50611  0.71340  1.0000
  C   C40       1.0  0.35696  0.20719  0.71344  1.0000
  C   C41       1.0  0.31042  0.80668  0.80164  1.0000
  C   C42       1.0  0.81002  0.99491  0.80162  1.0000
  C   C43       1.0  0.28830  0.90086  0.78631  1.0000
  C   C44       1.0  0.78828  0.88538  0.78638  1.0000
  C   C45       1.0  0.35763  0.89274  0.69772  1.0000
  C   C46       1.0  0.85777  0.80494  0.69784  1.0000
  C   C47       1.0  0.43159  0.79275  0.64700  1.0000
  C   C48       1.0  0.93155  0.85426  0.64712  1.0000
  S   S1        1.0  0.04135  0.06991  0.51547  1.0000
  S   S2        1.0  0.54123  0.44544  0.51531  1.0000
  S   S3        1.0  0.43022  0.96463  0.47242  1.0000
  S   S4        1.0  0.93010  0.50791  0.47268  1.0000
  S   S5        1.0  0.06701  0.76399  0.37323  1.0000
  S   S6        1.0  0.56661  0.60904  0.37299  1.0000
  S   S7        1.0  0.36288  0.52281  0.87077  1.0000
  S   S8        1.0  0.86238  0.34751  0.87045  1.0000
  S   S9        1.0  0.04797  0.54580  0.71998  1.0000
  S   S10       1.0  0.54756  0.17413  0.71999  1.0000
  S   S11       1.0  0.41738  0.70944  0.70767  1.0000
  S   S12       1.0  0.91701  0.99824  0.70771  1.0000
  N   N1        1.0  0.78178  0.94550  0.10886  1.0000
  N   N2        1.0  0.28160  0.16347  0.10885  1.0000
  O   O1        1.0  0.87822  0.01243  0.09891  1.0000
  O   O2        1.0  0.37800  0.08655  0.09883  1.0000
  O   O3        1.0  0.63838  0.96722  0.10816  1.0000
  O   O4        1.0  0.13817  0.14097  0.10794  1.0000
  O   O5        1.0  0.82707  0.86148  0.11888  1.0000
  O   O6        1.0  0.32699  0.25763  0.11916  1.0000
