data_image0
_chemical_formula_structural       Sn2H56C44O6
_chemical_formula_sum              "Sn2 H56 C44 O6"
_cell_length_a       10.2479
_cell_length_b       10.8402
_cell_length_c       10.8403
_cell_angle_alpha    65.2059
_cell_angle_beta     72.0956
_cell_angle_gamma    72.0962

_space_group_name_H-M_alt    "P 1"
_space_group_IT_number       1

loop_
  _space_group_symop_operation_xyz
  'x, y, z'

loop_
  _atom_site_type_symbol
  _atom_site_label
  _atom_site_symmetry_multiplicity
  _atom_site_fract_x
  _atom_site_fract_y
  _atom_site_fract_z
  _atom_site_occupancy
  Sn  Sn1       1.0  0.43633  0.32160  0.50887  1.0000
  Sn  Sn2       1.0  0.93632  0.50888  0.32159  1.0000
  H   H1        1.0  0.61590  0.62940  0.55206  1.0000
  H   H2        1.0  0.11590  0.55206  0.62941  1.0000
  H   H3        1.0  0.54403  0.77634  0.69238  1.0000
  H   H4        1.0  0.04402  0.69237  0.77635  1.0000
  H   H5        1.0  0.23214  0.81724  0.39994  1.0000
  H   H6        1.0  0.73214  0.39993  0.81723  1.0000
  H   H7        1.0  0.15827  0.96580  0.54301  1.0000
  H   H8        1.0  0.65826  0.54301  0.96580  1.0000
  H   H9        1.0  0.31310  0.94700  0.68937  1.0000
  H   H10       1.0  0.81309  0.68935  0.94701  1.0000
  H   H11       1.0  0.32153  0.58573  0.22505  1.0000
  H   H12       1.0  0.82153  0.22504  0.58572  1.0000
  H   H13       1.0  0.58611  0.83826  0.20040  1.0000
  H   H14       1.0  0.08611  0.20040  0.83826  1.0000
  H   H15       1.0  0.32416  0.71022  0.97044  1.0000
  H   H16       1.0  0.82416  0.97043  0.71022  1.0000
  H   H17       1.0  0.46052  0.89651  0.83261  1.0000
  H   H18       1.0  0.96052  0.83262  0.89650  1.0000
  H   H19       1.0  0.41731  0.13040  0.42547  1.0000
  H   H20       1.0  0.91731  0.42547  0.13040  1.0000
  H   H21       1.0  0.37042  0.29785  0.30282  1.0000
  H   H22       1.0  0.87042  0.30282  0.29785  1.0000
  H   H23       1.0  0.55310  0.04182  0.23346  1.0000
  H   H24       1.0  0.05309  0.23345  0.04182  1.0000
  H   H25       1.0  0.51237  0.20681  0.10750  1.0000
  H   H26       1.0  0.01236  0.10749  0.20682  1.0000
  H   H27       1.0  0.67511  0.14082  0.32988  1.0000
  H   H28       1.0  0.17511  0.32988  0.14082  1.0000
  H   H29       1.0  0.62880  0.30616  0.20593  1.0000
  H   H30       1.0  0.12879  0.20593  0.30616  1.0000
  H   H31       1.0  0.77460  0.20701  0.01774  1.0000
  H   H32       1.0  0.27459  0.01774  0.20702  1.0000
  H   H33       1.0  0.72761  0.07127  0.00166  1.0000
  H   H34       1.0  0.22761  0.00166  0.07127  1.0000
  H   H35       1.0  0.81082  0.03591  0.13739  1.0000
  H   H36       1.0  0.31081  0.13739  0.03591  1.0000
  H   H37       1.0  0.40853  0.14926  0.77290  1.0000
  H   H38       1.0  0.90854  0.77289  0.14926  1.0000
  H   H39       1.0  0.59001  0.14082  0.69566  1.0000
  H   H40       1.0  0.09002  0.69566  0.14082  1.0000
  H   H41       1.0  0.59091  0.96124  0.94838  1.0000
  H   H42       1.0  0.09091  0.94838  0.96123  1.0000
  H   H43       1.0  0.27078  0.34356  0.86140  1.0000
  H   H44       1.0  0.77078  0.86140  0.34355  1.0000
  H   H45       1.0  0.32860  0.47838  0.71117  1.0000
  H   H46       1.0  0.82860  0.71117  0.47837  1.0000
  H   H47       1.0  0.37838  0.40794  0.00206  1.0000
  H   H48       1.0  0.87837  0.00206  0.40794  1.0000
  H   H49       1.0  0.25564  0.55071  0.91602  1.0000
  H   H50       1.0  0.75563  0.91602  0.55070  1.0000
  H   H51       1.0  0.43806  0.54264  0.84914  1.0000
  H   H52       1.0  0.93805  0.84913  0.54264  1.0000
  H   H53       1.0  0.52847  0.23759  0.88154  1.0000
  H   H54       1.0  0.02847  0.88154  0.23760  1.0000
  H   H55       1.0  0.57700  0.36523  0.71971  1.0000
  H   H56       1.0  0.07699  0.71971  0.36524  1.0000
  C   C1        1.0  0.46206  0.61947  0.38143  1.0000
  C   C2        1.0  0.96206  0.38143  0.61946  1.0000
  C   C3        1.0  0.42951  0.71462  0.46416  1.0000
  C   C4        1.0  0.92951  0.46416  0.71462  1.0000
  C   C5        1.0  0.51590  0.70350  0.54777  1.0000
  C   C6        1.0  0.01590  0.54777  0.70350  1.0000
  C   C7        1.0  0.47482  0.78750  0.62768  1.0000
  C   C8        1.0  0.97482  0.62767  0.78751  1.0000
  C   C9        1.0  0.30071  0.80998  0.46324  1.0000
  C   C10       1.0  0.80071  0.46323  0.80999  1.0000
  C   C11       1.0  0.25922  0.89302  0.54358  1.0000
  C   C12       1.0  0.75921  0.54356  0.89303  1.0000
  C   C13       1.0  0.34674  0.88226  0.62609  1.0000
  C   C14       1.0  0.84673  0.62608  0.88227  1.0000
  C   C15       1.0  0.38053  0.66781  0.16290  1.0000
  C   C16       1.0  0.88053  0.16290  0.66780  1.0000
  C   C17       1.0  0.45483  0.70311  0.22767  1.0000
  C   C18       1.0  0.95483  0.22768  0.70310  1.0000
  C   C19       1.0  0.52904  0.81027  0.14966  1.0000
  C   C20       1.0  0.02903  0.14967  0.81027  1.0000
  C   C21       1.0  0.38187  0.73813  0.02095  1.0000
  C   C22       1.0  0.88187  0.02095  0.73812  1.0000
  C   C23       1.0  0.45848  0.84252  0.94333  1.0000
  C   C24       1.0  0.95848  0.94333  0.84252  1.0000
  C   C25       1.0  0.61507  0.53413  0.37598  1.0000
  C   C26       1.0  0.11506  0.37599  0.53411  1.0000
  C   C27       1.0  0.45149  0.22944  0.36237  1.0000
  C   C28       1.0  0.95149  0.36237  0.22944  1.0000
  C   C29       1.0  0.59122  0.13914  0.17085  1.0000
  C   C30       1.0  0.09122  0.17084  0.13914  1.0000
  C   C31       1.0  0.59458  0.20682  0.26819  1.0000
  C   C32       1.0  0.09457  0.26819  0.20682  1.0000
  C   C33       1.0  0.73303  0.11175  0.07696  1.0000
  C   C34       1.0  0.23302  0.07696  0.11176  1.0000
  C   C35       1.0  0.48876  0.21191  0.71109  1.0000
  C   C36       1.0  0.98877  0.71110  0.21190  1.0000
  C   C37       1.0  0.53187  0.87882  0.00814  1.0000
  C   C38       1.0  0.03186  0.00814  0.87881  1.0000
  C   C39       1.0  0.35515  0.40275  0.81076  1.0000
  C   C40       1.0  0.85514  0.81076  0.40275  1.0000
  C   C41       1.0  0.35699  0.48003  0.89946  1.0000
  C   C42       1.0  0.85698  0.89946  0.48003  1.0000
  C   C43       1.0  0.49481  0.30471  0.78243  1.0000
  C   C44       1.0  0.99482  0.78242  0.30471  1.0000
  O   O1        1.0  0.63524  0.40254  0.41909  1.0000
  O   O2        1.0  0.13523  0.41910  0.40253  1.0000
  O   O3        1.0  0.71275  0.60171  0.32395  1.0000
  O   O4        1.0  0.21275  0.32396  0.60169  1.0000
  O   O5        1.0  0.36518  0.53156  0.44558  1.0000
  O   O6        1.0  0.86517  0.44559  0.53155  1.0000
