data_image0
_chemical_formula_structural       Cu4H44C32N12Cl8
_chemical_formula_sum              "Cu4 H44 C32 N12 Cl8"
_cell_length_a       7.28633
_cell_length_b       11.4941
_cell_length_c       13.1899
_cell_angle_alpha    106.664
_cell_angle_beta     90.0005
_cell_angle_gamma    90

_space_group_name_H-M_alt    "P 1"
_space_group_IT_number       1

loop_
  _space_group_symop_operation_xyz
  'x, y, z'

loop_
  _atom_site_type_symbol
  _atom_site_label
  _atom_site_symmetry_multiplicity
  _atom_site_fract_x
  _atom_site_fract_y
  _atom_site_fract_z
  _atom_site_occupancy
  Cu  Cu1       1.0  0.28707  0.26918  0.51258  1.0000
  Cu  Cu2       1.0  0.21292  0.76917  0.01257  1.0000
  Cu  Cu3       1.0  0.71292  0.73083  0.48742  1.0000
  Cu  Cu4       1.0  0.78707  0.23082  0.98743  1.0000
  H   H1        1.0  0.30634  0.53936  0.57439  1.0000
  H   H2        1.0  0.19366  0.03936  0.07439  1.0000
  H   H3        1.0  0.69366  0.46064  0.42561  1.0000
  H   H4        1.0  0.80633  0.96064  0.92561  1.0000
  H   H5        1.0  0.95738  0.20803  0.35060  1.0000
  H   H6        1.0  0.54261  0.70803  0.85059  1.0000
  H   H7        1.0  0.04262  0.79197  0.64941  1.0000
  H   H8        1.0  0.45738  0.29196  0.14941  1.0000
  H   H9        1.0  0.73470  0.24990  0.40414  1.0000
  H   H10       1.0  0.76530  0.74990  0.90414  1.0000
  H   H11       1.0  0.26530  0.75010  0.59586  1.0000
  H   H12       1.0  0.23470  0.25009  0.09586  1.0000
  H   H13       1.0  0.90911  0.20556  0.48275  1.0000
  H   H14       1.0  0.59089  0.70556  0.98275  1.0000
  H   H15       1.0  0.09089  0.79444  0.51725  1.0000
  H   H16       1.0  0.40910  0.29443  0.01725  1.0000
  H   H17       1.0  0.59184  0.18980  0.62493  1.0000
  H   H18       1.0  0.90815  0.68979  0.12493  1.0000
  H   H19       1.0  0.40814  0.81022  0.37506  1.0000
  H   H20       1.0  0.09185  0.31020  0.87507  1.0000
  H   H21       1.0  0.07361  0.01921  0.40401  1.0000
  H   H22       1.0  0.42639  0.51919  0.90401  1.0000
  H   H23       1.0  0.92639  0.98081  0.59599  1.0000
  H   H24       1.0  0.57361  0.48080  0.09599  1.0000
  H   H25       1.0  0.19273  0.91365  0.29964  1.0000
  H   H26       1.0  0.30726  0.41363  0.79965  1.0000
  H   H27       1.0  0.80726  0.08637  0.70035  1.0000
  H   H28       1.0  0.69273  0.58636  0.20035  1.0000
  H   H29       1.0  0.22191  0.07402  0.32054  1.0000
  H   H30       1.0  0.27807  0.57400  0.82055  1.0000
  H   H31       1.0  0.77807  0.92600  0.67945  1.0000
  H   H32       1.0  0.72191  0.42599  0.17945  1.0000
  H   H33       1.0  0.90460  0.42271  0.70611  1.0000
  H   H34       1.0  0.59543  0.92269  0.20609  1.0000
  H   H35       1.0  0.09542  0.57730  0.29391  1.0000
  H   H36       1.0  0.40458  0.07729  0.79389  1.0000
  H   H37       1.0  0.75180  0.48529  0.81318  1.0000
  H   H38       1.0  0.74821  0.98527  0.31316  1.0000
  H   H39       1.0  0.24821  0.51472  0.18684  1.0000
  H   H40       1.0  0.25178  0.01472  0.68682  1.0000
  H   H41       1.0  0.81318  0.57453  0.72619  1.0000
  H   H42       1.0  0.68684  0.07452  0.22618  1.0000
  H   H43       1.0  0.18684  0.42547  0.27382  1.0000
  H   H44       1.0  0.31316  0.92547  0.77381  1.0000
  C   C1        1.0  0.94442  0.38136  0.46360  1.0000
  C   C2        1.0  0.55557  0.88136  0.96359  1.0000
  C   C3        1.0  0.05557  0.61864  0.53641  1.0000
  C   C4        1.0  0.44442  0.11864  0.03640  1.0000
  C   C5        1.0  0.16847  0.52183  0.54154  1.0000
  C   C6        1.0  0.33152  0.02182  0.04153  1.0000
  C   C7        1.0  0.83153  0.47817  0.45847  1.0000
  C   C8        1.0  0.66847  0.97817  0.95847  1.0000
  C   C9        1.0  0.88139  0.25349  0.42324  1.0000
  C   C10       1.0  0.61861  0.75348  0.92324  1.0000
  C   C11       1.0  0.11861  0.74652  0.57677  1.0000
  C   C12       1.0  0.38139  0.24651  0.07676  1.0000
  C   C13       1.0  0.55179  0.10477  0.56798  1.0000
  C   C14       1.0  0.94821  0.60476  0.06798  1.0000
  C   C15       1.0  0.44821  0.89525  0.43201  1.0000
  C   C16       1.0  0.05179  0.39523  0.93202  1.0000
  C   C17       1.0  0.35822  0.00297  0.43243  1.0000
  C   C18       1.0  0.14178  0.50295  0.93244  1.0000
  C   C19       1.0  0.64177  0.99705  0.56756  1.0000
  C   C20       1.0  0.85822  0.49704  0.06757  1.0000
  C   C21       1.0  0.20295  0.00197  0.35923  1.0000
  C   C22       1.0  0.29705  0.50195  0.85924  1.0000
  C   C23       1.0  0.79705  0.99805  0.64076  1.0000
  C   C24       1.0  0.70295  0.49804  0.14077  1.0000
  C   C25       1.0  0.63026  0.43178  0.66499  1.0000
  C   C26       1.0  0.86976  0.93177  0.16498  1.0000
  C   C27       1.0  0.36975  0.56823  0.33502  1.0000
  C   C28       1.0  0.13024  0.06823  0.83501  1.0000
  C   C29       1.0  0.78461  0.48249  0.73127  1.0000
  C   C30       1.0  0.71540  0.98248  0.23125  1.0000
  C   C31       1.0  0.21540  0.51751  0.26875  1.0000
  C   C32       1.0  0.28461  0.01751  0.76873  1.0000
  N   N1        1.0  0.11402  0.40597  0.50603  1.0000
  N   N2        1.0  0.38598  0.90597  0.00603  1.0000
  N   N3        1.0  0.88598  0.59403  0.49397  1.0000
  N   N4        1.0  0.61402  0.09403  0.99397  1.0000
  N   N5        1.0  0.41386  0.10816  0.50182  1.0000
  N   N6        1.0  0.08613  0.60815  0.00183  1.0000
  N   N7        1.0  0.58613  0.89185  0.49817  1.0000
  N   N8        1.0  0.91387  0.39184  0.99818  1.0000
  N   N9        1.0  0.50675  0.38913  0.61116  1.0000
  N   N10       1.0  0.99328  0.88912  0.11114  1.0000
  N   N11       1.0  0.49328  0.61088  0.38885  1.0000
  N   N12       1.0  0.00674  0.11087  0.88885  1.0000
  Cl  Cl1       1.0  0.40403  0.27058  0.35015  1.0000
  Cl  Cl2       1.0  0.09597  0.77057  0.85015  1.0000
  Cl  Cl3       1.0  0.59598  0.72943  0.64985  1.0000
  Cl  Cl4       1.0  0.90402  0.22942  0.14985  1.0000
  Cl  Cl5       1.0  0.11722  0.23759  0.65048  1.0000
  Cl  Cl6       1.0  0.38278  0.73758  0.15048  1.0000
  Cl  Cl7       1.0  0.88278  0.76242  0.34953  1.0000
  Cl  Cl8       1.0  0.61722  0.26242  0.84953  1.0000
