data_image0
_chemical_formula_structural       CdH6C10S2N6Cl2
_chemical_formula_sum              "Cd1 H6 C10 S2 N6 Cl2"
_cell_length_a       5.6717
_cell_length_b       6.58074
_cell_length_c       11.3253
_cell_angle_alpha    77.7068
_cell_angle_beta     83.5517
_cell_angle_gamma    73.212

_space_group_name_H-M_alt    "P 1"
_space_group_IT_number       1

loop_
  _space_group_symop_operation_xyz
  'x, y, z'

loop_
  _atom_site_type_symbol
  _atom_site_label
  _atom_site_symmetry_multiplicity
  _atom_site_fract_x
  _atom_site_fract_y
  _atom_site_fract_z
  _atom_site_occupancy
  Cd  Cd1       1.0  0.50001  0.50000  1.00000  1.0000
  H   H1        1.0  0.41655  0.06119  0.16919  1.0000
  H   H2        1.0  0.58344  0.93881  0.83081  1.0000
  H   H3        1.0  0.03711  0.14193  0.40754  1.0000
  H   H4        1.0  0.96287  0.85808  0.59247  1.0000
  H   H5        1.0  0.91067  0.39822  0.21020  1.0000
  H   H6        1.0  0.08934  0.60177  0.78980  1.0000
  C   C1        1.0  0.55528  0.07868  0.22288  1.0000
  C   C2        1.0  0.44471  0.92131  0.77712  1.0000
  C   C3        1.0  0.63464  0.93550  0.33052  1.0000
  C   C4        1.0  0.36536  0.06450  0.66948  1.0000
  C   C5        1.0  0.90022  0.12268  0.35327  1.0000
  C   C6        1.0  0.09977  0.87732  0.64674  1.0000
  C   C7        1.0  0.82883  0.26531  0.24541  1.0000
  C   C8        1.0  0.17117  0.73468  0.75459  1.0000
  C   C9        1.0  0.91208  0.72521  0.06560  1.0000
  C   C10       1.0  0.08793  0.27479  0.93440  1.0000
  S   S1        1.0  0.13997  0.73756  0.13676  1.0000
  S   S2        1.0  0.86004  0.26246  0.86323  1.0000
  N   N1        1.0  0.74405  0.71528  0.01561  1.0000
  N   N2        1.0  0.25597  0.28472  0.98438  1.0000
  N   N3        1.0  0.65368  0.24404  0.18205  1.0000
  N   N4        1.0  0.34631  0.75596  0.81795  1.0000
  N   N5        1.0  0.80096  0.95758  0.39655  1.0000
  N   N6        1.0  0.19902  0.04243  0.60345  1.0000
  Cl  Cl1       1.0  0.51125  0.71872  0.38102  1.0000
  Cl  Cl2       1.0  0.48874  0.28128  0.61899  1.0000
