data_image0
_chemical_formula_structural       Na2H32C36S2N2O20
_chemical_formula_sum              "Na2 H32 C36 S2 N2 O20"
_cell_length_a       7.88713
_cell_length_b       8.63462
_cell_length_c       14.1994
_cell_angle_alpha    82.5312
_cell_angle_beta     76.9874
_cell_angle_gamma    71.0876

_space_group_name_H-M_alt    "P 1"
_space_group_IT_number       1

loop_
  _space_group_symop_operation_xyz
  'x, y, z'

loop_
  _atom_site_type_symbol
  _atom_site_label
  _atom_site_symmetry_multiplicity
  _atom_site_fract_x
  _atom_site_fract_y
  _atom_site_fract_z
  _atom_site_occupancy
  Na  Na1       1.0  0.30866  0.93405  0.49831  1.0000
  Na  Na2       1.0  0.69134  0.06595  0.50169  1.0000
  H   H1        1.0  0.11708  0.05025  0.91409  1.0000
  H   H2        1.0  0.88293  0.94975  0.08591  1.0000
  H   H3        1.0  0.13584  0.17927  0.05761  1.0000
  H   H4        1.0  0.86416  0.82073  0.94239  1.0000
  H   H5        1.0  0.32373  0.78389  0.91336  1.0000
  H   H6        1.0  0.67627  0.21611  0.08664  1.0000
  H   H7        1.0  0.16948  0.56827  0.22793  1.0000
  H   H8        1.0  0.83052  0.43173  0.77207  1.0000
  H   H9        1.0  0.41808  0.03618  0.13769  1.0000
  H   H10       1.0  0.58191  0.96383  0.86231  1.0000
  H   H11       1.0  0.41396  0.87128  0.01106  1.0000
  H   H12       1.0  0.58603  0.12873  0.98894  1.0000
  H   H13       1.0  0.39551  0.33175  0.64832  1.0000
  H   H14       1.0  0.60449  0.66825  0.35168  1.0000
  H   H15       1.0  0.42244  0.50177  0.69546  1.0000
  H   H16       1.0  0.57756  0.49823  0.30454  1.0000
  H   H17       1.0  0.99422  0.66072  0.76994  1.0000
  H   H18       1.0  0.00578  0.33928  0.23006  1.0000
  H   H19       1.0  0.96065  0.76669  0.65715  1.0000
  H   H20       1.0  0.03934  0.23331  0.34285  1.0000
  H   H21       1.0  0.23914  0.58742  0.57782  1.0000
  H   H22       1.0  0.76086  0.41258  0.42218  1.0000
  H   H23       1.0  0.09175  0.48642  0.63431  1.0000
  H   H24       1.0  0.90825  0.51359  0.36569  1.0000
  H   H25       1.0  0.17550  0.04648  0.74980  1.0000
  H   H26       1.0  0.82450  0.95352  0.25020  1.0000
  H   H27       1.0  0.39349  0.04977  0.29742  1.0000
  H   H28       1.0  0.60651  0.95023  0.70258  1.0000
  H   H29       1.0  0.76161  0.75621  0.48656  1.0000
  H   H30       1.0  0.23839  0.24379  0.51343  1.0000
  H   H31       1.0  0.59635  0.73648  0.56901  1.0000
  H   H32       1.0  0.40365  0.26351  0.43099  1.0000
  C   C1        1.0  0.21343  0.22433  0.80979  1.0000
  C   C2        1.0  0.78657  0.77568  0.19021  1.0000
  C   C3        1.0  0.16227  0.15882  0.90526  1.0000
  C   C4        1.0  0.83773  0.84118  0.09473  1.0000
  C   C5        1.0  0.17030  0.23144  0.98435  1.0000
  C   C6        1.0  0.82971  0.76855  0.01564  1.0000
  C   C7        1.0  0.22296  0.37527  0.97271  1.0000
  C   C8        1.0  0.77705  0.62472  0.02729  1.0000
  C   C9        1.0  0.25972  0.44396  0.87806  1.0000
  C   C10       1.0  0.74028  0.55604  0.12194  1.0000
  C   C11       1.0  0.26026  0.37115  0.79553  1.0000
  C   C12       1.0  0.73974  0.62885  0.20447  1.0000
  C   C13       1.0  0.25036  0.44526  0.05427  1.0000
  C   C14       1.0  0.74963  0.55474  0.94574  1.0000
  C   C15       1.0  0.27972  0.60748  0.03303  1.0000
  C   C16       1.0  0.72028  0.39252  0.96697  1.0000
  C   C17       1.0  0.30207  0.66624  0.93859  1.0000
  C   C18       1.0  0.69794  0.33376  0.06141  1.0000
  C   C19       1.0  0.28841  0.70555  0.10881  1.0000
  C   C20       1.0  0.71159  0.29445  0.89119  1.0000
  C   C21       1.0  0.22262  0.67149  0.20708  1.0000
  C   C22       1.0  0.77738  0.32851  0.79292  1.0000
  C   C23       1.0  0.22759  0.76403  0.27944  1.0000
  C   C24       1.0  0.77241  0.23597  0.72056  1.0000
  C   C25       1.0  0.30283  0.89392  0.25473  1.0000
  C   C26       1.0  0.69717  0.10608  0.74527  1.0000
  C   C27       1.0  0.36557  0.93150  0.15715  1.0000
  C   C28       1.0  0.63442  0.06850  0.84285  1.0000
  C   C29       1.0  0.35947  0.83895  0.08583  1.0000
  C   C30       1.0  0.64052  0.16105  0.91417  1.0000
  C   C31       1.0  0.32724  0.43381  0.69541  1.0000
  C   C32       1.0  0.67276  0.56619  0.30459  1.0000
  C   C33       1.0  0.06538  0.69668  0.69912  1.0000
  C   C34       1.0  0.93462  0.30332  0.30088  1.0000
  C   C35       1.0  0.17621  0.80808  0.70791  1.0000
  C   C36       1.0  0.82379  0.19192  0.29209  1.0000
  S   S1        1.0  0.13494  0.71233  0.40139  1.0000
  S   S2        1.0  0.86506  0.28767  0.59861  1.0000
  N   N1        1.0  0.17875  0.54815  0.64631  1.0000
  N   N2        1.0  0.82125  0.45185  0.35369  1.0000
  O   O1        1.0  0.22211  0.15072  0.73141  1.0000
  O   O2        1.0  0.77790  0.84928  0.26859  1.0000
  O   O3        1.0  0.25226  0.36798  0.13542  1.0000
  O   O4        1.0  0.74774  0.63203  0.86458  1.0000
  O   O5        1.0  0.30270  0.58772  0.86243  1.0000
  O   O6        1.0  0.69731  0.41228  0.13757  1.0000
  O   O7        1.0  0.31531  0.98124  0.32587  1.0000
  O   O8        1.0  0.68468  0.01876  0.67413  1.0000
  O   O9        1.0  0.08438  0.56354  0.39900  1.0000
  O   O10       1.0  0.91562  0.43645  0.60100  1.0000
  O   O11       1.0  0.28339  0.68113  0.45610  1.0000
  O   O12       1.0  0.71661  0.31887  0.54390  1.0000
  O   O13       1.0  0.97833  0.85318  0.43697  1.0000
  O   O14       1.0  0.02167  0.14682  0.56303  1.0000
  O   O15       1.0  0.10090  0.91148  0.77258  1.0000
  O   O16       1.0  0.89910  0.08852  0.22742  1.0000
  O   O17       1.0  0.32616  0.79548  0.64951  1.0000
  O   O18       1.0  0.67384  0.20452  0.35049  1.0000
  O   O19       1.0  0.63170  0.80569  0.51293  1.0000
  O   O20       1.0  0.36830  0.19431  0.48707  1.0000
