data_image0
_chemical_formula_structural       Cu2H28C44N2O18
_chemical_formula_sum              "Cu2 H28 C44 N2 O18"
_cell_length_a       7.86468
_cell_length_b       10.1867
_cell_length_c       13.1858
_cell_angle_alpha    73.113
_cell_angle_beta     80.0781
_cell_angle_gamma    86.3728

_space_group_name_H-M_alt    "P 1"
_space_group_IT_number       1

loop_
  _space_group_symop_operation_xyz
  'x, y, z'

loop_
  _atom_site_type_symbol
  _atom_site_label
  _atom_site_symmetry_multiplicity
  _atom_site_fract_x
  _atom_site_fract_y
  _atom_site_fract_z
  _atom_site_occupancy
  Cu  Cu1       1.0  0.26598  0.84694  0.06160  1.0000
  Cu  Cu2       1.0  0.73402  0.15306  0.93840  1.0000
  H   H1        1.0  0.62258  0.96596  0.27856  1.0000
  H   H2        1.0  0.37742  0.03403  0.72144  1.0000
  H   H3        1.0  0.01037  0.29854  0.64989  1.0000
  H   H4        1.0  0.98962  0.70145  0.35011  1.0000
  H   H5        1.0  0.51693  0.49348  0.79828  1.0000
  H   H6        1.0  0.48306  0.50652  0.20172  1.0000
  H   H7        1.0  0.57716  0.85159  0.14641  1.0000
  H   H8        1.0  0.42285  0.14841  0.85359  1.0000
  H   H9        1.0  0.83197  0.56106  0.48679  1.0000
  H   H10       1.0  0.16803  0.43893  0.51321  1.0000
  H   H11       1.0  0.40820  0.83739  0.53555  1.0000
  H   H12       1.0  0.59181  0.16261  0.46445  1.0000
  H   H13       1.0  0.85596  0.72272  0.15033  1.0000
  H   H14       1.0  0.14404  0.27728  0.84966  1.0000
  H   H15       1.0  0.06396  0.58289  0.06685  1.0000
  H   H16       1.0  0.93605  0.41711  0.93314  1.0000
  H   H17       1.0  0.93282  0.43797  0.11960  1.0000
  H   H18       1.0  0.06718  0.56203  0.88040  1.0000
  H   H19       1.0  0.44373  0.68290  0.92096  1.0000
  H   H20       1.0  0.55626  0.31710  0.07904  1.0000
  H   H21       1.0  0.71626  0.54624  0.91524  1.0000
  H   H22       1.0  0.28373  0.45376  0.08476  1.0000
  H   H23       1.0  0.13796  0.68945  0.58313  1.0000
  H   H24       1.0  0.86204  0.31055  0.41687  1.0000
  H   H25       1.0  0.73892  0.97237  0.66114  1.0000
  H   H26       1.0  0.26108  0.02763  0.33887  1.0000
  H   H27       1.0  0.87092  0.82376  0.54570  1.0000
  H   H28       1.0  0.12907  0.17624  0.45430  1.0000
  C   C1        1.0  0.86132  0.01717  0.82480  1.0000
  C   C2        1.0  0.13868  0.98283  0.17520  1.0000
  C   C3        1.0  0.09939  0.86053  0.77488  1.0000
  C   C4        1.0  0.90061  0.13947  0.22512  1.0000
  C   C5        1.0  0.20241  0.87504  0.85743  1.0000
  C   C6        1.0  0.79759  0.12496  0.14257  1.0000
  C   C7        1.0  0.68562  0.51446  0.64660  1.0000
  C   C8        1.0  0.31437  0.48553  0.35340  1.0000
  C   C9        1.0  0.54508  0.55129  0.71387  1.0000
  C   C10       1.0  0.45492  0.44871  0.28613  1.0000
  C   C11       1.0  0.44182  0.66405  0.67238  1.0000
  C   C12       1.0  0.55818  0.33595  0.32762  1.0000
  C   C13       1.0  0.61264  0.78090  0.09808  1.0000
  C   C14       1.0  0.38736  0.21910  0.90191  1.0000
  C   C15       1.0  0.94214  0.93001  0.75675  1.0000
  C   C16       1.0  0.05786  0.06999  0.24325  1.0000
  C   C17       1.0  0.80753  0.61649  0.03707  1.0000
  C   C18       1.0  0.19247  0.38351  0.96293  1.0000
  C   C19       1.0  0.16640  0.77310  0.71266  1.0000
  C   C20       1.0  0.83360  0.22691  0.28734  1.0000
  C   C21       1.0  0.72164  0.58960  0.53836  1.0000
  C   C22       1.0  0.27835  0.41040  0.46164  1.0000
  C   C23       1.0  0.62308  0.70683  0.49920  1.0000
  C   C24       1.0  0.37692  0.29318  0.50079  1.0000
  C   C25       1.0  0.48211  0.74463  0.56618  1.0000
  C   C26       1.0  0.51790  0.25537  0.43382  1.0000
  C   C27       1.0  0.67749  0.79806  0.38817  1.0000
  C   C28       1.0  0.32251  0.20194  0.61183  1.0000
  C   C29       1.0  0.76759  0.70803  0.09956  1.0000
  C   C30       1.0  0.23242  0.29197  0.90044  1.0000
  C   C31       1.0  0.80646  0.40382  0.69428  1.0000
  C   C32       1.0  0.19354  0.59618  0.30572  1.0000
  C   C33       1.0  0.96553  0.52624  0.04819  1.0000
  C   C34       1.0  0.03447  0.47376  0.95181  1.0000
  C   C35       1.0  0.53834  0.68746  0.97109  1.0000
  C   C36       1.0  0.46166  0.31254  0.02891  1.0000
  C   C37       1.0  0.69115  0.61129  0.96893  1.0000
  C   C38       1.0  0.30885  0.38870  0.03107  1.0000
  C   C39       1.0  0.08473  0.75828  0.63071  1.0000
  C   C40       1.0  0.91528  0.24173  0.36929  1.0000
  C   C41       1.0  0.85984  0.91651  0.67418  1.0000
  C   C42       1.0  0.14016  0.08349  0.32582  1.0000
  C   C43       1.0  0.93307  0.83303  0.61075  1.0000
  C   C44       1.0  0.06693  0.16696  0.38926  1.0000
  N   N1        1.0  0.49718  0.76823  0.03668  1.0000
  N   N2        1.0  0.50282  0.23177  0.96331  1.0000
  O   O1        1.0  0.15991  0.79876  0.95318  1.0000
  O   O2        1.0  0.84009  0.20124  0.04682  1.0000
  O   O3        1.0  0.33045  0.95378  0.82790  1.0000
  O   O4        1.0  0.66956  0.04622  0.17210  1.0000
  O   O5        1.0  0.94293  0.04791  0.89062  1.0000
  O   O6        1.0  0.05707  0.95209  0.10938  1.0000
  O   O7        1.0  0.30912  0.69514  0.74499  1.0000
  O   O8        1.0  0.69088  0.30486  0.25502  1.0000
  O   O9        1.0  0.57424  0.90362  0.35860  1.0000
  O   O10       1.0  0.42577  0.09637  0.64140  1.0000
  O   O11       1.0  0.70606  0.06343  0.82072  1.0000
  O   O12       1.0  0.29394  0.93657  0.17929  1.0000
  O   O13       1.0  0.81384  0.36670  0.79134  1.0000
  O   O14       1.0  0.18616  0.63330  0.20866  1.0000
  O   O15       1.0  0.81238  0.77717  0.32918  1.0000
  O   O16       1.0  0.18762  0.22283  0.67082  1.0000
  O   O17       1.0  0.90833  0.35551  0.62101  1.0000
  O   O18       1.0  0.09166  0.64448  0.37899  1.0000
