data_image0
_chemical_formula_structural       Zn2H52C60S4N20O8
_chemical_formula_sum              "Zn2 H52 C60 S4 N20 O8"
_cell_length_a       11.3345
_cell_length_b       13.2833
_cell_length_c       13.6934
_cell_angle_alpha    71.6518
_cell_angle_beta     65.5651
_cell_angle_gamma    64.784

_space_group_name_H-M_alt    "P 1"
_space_group_IT_number       1

loop_
  _space_group_symop_operation_xyz
  'x, y, z'

loop_
  _atom_site_type_symbol
  _atom_site_label
  _atom_site_symmetry_multiplicity
  _atom_site_fract_x
  _atom_site_fract_y
  _atom_site_fract_z
  _atom_site_occupancy
  Zn  Zn1       1.0  0.85709  0.24997  0.75006  1.0000
  Zn  Zn2       1.0  0.14291  0.75003  0.24994  1.0000
  H   H1        1.0  0.48940  0.37471  0.46381  1.0000
  H   H2        1.0  0.32797  0.12504  0.03650  1.0000
  H   H3        1.0  0.51060  0.62529  0.53619  1.0000
  H   H4        1.0  0.67203  0.87496  0.96350  1.0000
  H   H5        1.0  0.74654  0.07777  0.74840  1.0000
  H   H6        1.0  0.57318  0.42178  0.75155  1.0000
  H   H7        1.0  0.25346  0.92223  0.25160  1.0000
  H   H8        1.0  0.42682  0.57822  0.24845  1.0000
  H   H9        1.0  0.29165  0.09396  0.86636  1.0000
  H   H10       1.0  0.25260  0.40571  0.63327  1.0000
  H   H11       1.0  0.70834  0.90604  0.13364  1.0000
  H   H12       1.0  0.74740  0.59430  0.36674  1.0000
  H   H13       1.0  0.07185  0.10087  0.86233  1.0000
  H   H14       1.0  0.03537  0.39909  0.63755  1.0000
  H   H15       1.0  0.92815  0.89913  0.13767  1.0000
  H   H16       1.0  0.96463  0.60091  0.36245  1.0000
  H   H17       1.0  0.05263  0.94421  0.76831  1.0000
  H   H18       1.0  0.76536  0.55583  0.73180  1.0000
  H   H19       1.0  0.94736  0.05579  0.23170  1.0000
  H   H20       1.0  0.23464  0.44417  0.26820  1.0000
  H   H21       1.0  0.53073  0.07020  0.74750  1.0000
  H   H22       1.0  0.34907  0.42942  0.75208  1.0000
  H   H23       1.0  0.46927  0.92980  0.25250  1.0000
  H   H24       1.0  0.65093  0.57058  0.24792  1.0000
  H   H25       1.0  0.97743  0.34631  0.25149  1.0000
  H   H26       1.0  0.57560  0.15362  0.24857  1.0000
  H   H27       1.0  0.02257  0.65369  0.74850  1.0000
  H   H28       1.0  0.42440  0.84638  0.75143  1.0000
  H   H29       1.0  0.63751  0.38114  0.55111  1.0000
  H   H30       1.0  0.56983  0.11853  0.94912  1.0000
  H   H31       1.0  0.36249  0.61886  0.44889  1.0000
  H   H32       1.0  0.43017  0.88147  0.05088  1.0000
  H   H33       1.0  0.83011  0.33745  0.16203  1.0000
  H   H34       1.0  0.32992  0.16266  0.33815  1.0000
  H   H35       1.0  0.16989  0.66255  0.83797  1.0000
  H   H36       1.0  0.67008  0.83735  0.66185  1.0000
  H   H37       1.0  0.21427  0.84646  0.60357  1.0000
  H   H38       1.0  0.66433  0.65361  0.89661  1.0000
  H   H39       1.0  0.78572  0.15354  0.39643  1.0000
  H   H40       1.0  0.33567  0.34639  0.10339  1.0000
  H   H41       1.0  0.21918  0.96576  0.41880  1.0000
  H   H42       1.0  0.60344  0.53430  0.08135  1.0000
  H   H43       1.0  0.78082  0.03424  0.58120  1.0000
  H   H44       1.0  0.39656  0.46570  0.91865  1.0000
  H   H45       1.0  0.60608  0.34417  0.17683  1.0000
  H   H46       1.0  0.12734  0.15592  0.32337  1.0000
  H   H47       1.0  0.39392  0.65583  0.82316  1.0000
  H   H48       1.0  0.87267  0.84408  0.67663  1.0000
  H   H49       1.0  0.47104  0.35301  0.30195  1.0000
  H   H50       1.0  0.12625  0.14697  0.19826  1.0000
  H   H51       1.0  0.52896  0.64699  0.69805  1.0000
  H   H52       1.0  0.87376  0.85303  0.80174  1.0000
  C   C1        1.0  0.00221  0.15934  0.56888  1.0000
  C   C2        1.0  0.73034  0.34070  0.93122  1.0000
  C   C3        1.0  0.99779  0.84066  0.43112  1.0000
  C   C4        1.0  0.26966  0.65931  0.06878  1.0000
  C   C5        1.0  0.06295  0.98866  0.68471  1.0000
  C   C6        1.0  0.73653  0.51136  0.81539  1.0000
  C   C7        1.0  0.93704  0.01134  0.31529  1.0000
  C   C8        1.0  0.26348  0.48864  0.18461  1.0000
  C   C9        1.0  0.15249  0.93559  0.59467  1.0000
  C   C10       1.0  0.68283  0.56445  0.90547  1.0000
  C   C11       1.0  0.84750  0.06441  0.40533  1.0000
  C   C12       1.0  0.31717  0.43555  0.09453  1.0000
  C   C13       1.0  0.15521  0.00229  0.49301  1.0000
  C   C14       1.0  0.65038  0.49776  0.00713  1.0000
  C   C15       1.0  0.84479  0.99771  0.50699  1.0000
  C   C16       1.0  0.34962  0.50224  0.99287  1.0000
  C   C17       1.0  0.81790  0.36150  0.40728  1.0000
  C   C18       1.0  0.58685  0.13833  0.09288  1.0000
  C   C19       1.0  0.18210  0.63850  0.59271  1.0000
  C   C20       1.0  0.41315  0.86167  0.90712  1.0000
  C   C21       1.0  0.68015  0.36999  0.46642  1.0000
  C   C22       1.0  0.51671  0.12972  0.03379  1.0000
  C   C23       1.0  0.31986  0.63001  0.53358  1.0000
  C   C24       1.0  0.48330  0.87028  0.96621  1.0000
  C   C25       1.0  0.59697  0.36664  0.41740  1.0000
  C   C26       1.0  0.38115  0.13311  0.08286  1.0000
  C   C27       1.0  0.40304  0.63336  0.58260  1.0000
  C   C28       1.0  0.61885  0.86689  0.91714  1.0000
  C   C29       1.0  0.64913  0.35528  0.30631  1.0000
  C   C30       1.0  0.31095  0.14470  0.19390  1.0000
  C   C31       1.0  0.35087  0.64472  0.69369  1.0000
  C   C32       1.0  0.68905  0.85529  0.80610  1.0000
  C   C33       1.0  0.78845  0.34729  0.24725  1.0000
  C   C34       1.0  0.38326  0.15269  0.25295  1.0000
  C   C35       1.0  0.21155  0.65271  0.75275  1.0000
  C   C36       1.0  0.61674  0.84731  0.74705  1.0000
  C   C37       1.0  0.87094  0.35105  0.29724  1.0000
  C   C38       1.0  0.51952  0.14883  0.20291  1.0000
  C   C39       1.0  0.12906  0.64895  0.70275  1.0000
  C   C40       1.0  0.48048  0.85117  0.79709  1.0000
  C   C41       1.0  0.65597  0.15386  0.74880  1.0000
  C   C42       1.0  0.55902  0.34571  0.75106  1.0000
  C   C43       1.0  0.34403  0.84614  0.25120  1.0000
  C   C44       1.0  0.44098  0.65429  0.24894  1.0000
  C   C45       1.0  0.53528  0.15005  0.74886  1.0000
  C   C46       1.0  0.43469  0.34955  0.75076  1.0000
  C   C47       1.0  0.46472  0.84995  0.25114  1.0000
  C   C48       1.0  0.56532  0.65045  0.24924  1.0000
  C   C49       1.0  0.42119  0.24980  0.74976  1.0000
  C   C50       1.0  0.57881  0.75020  0.25024  1.0000
  C   C51       1.0  0.29132  0.24981  0.74976  1.0000
  C   C52       1.0  0.70868  0.75019  0.25024  1.0000
  C   C53       1.0  0.23942  0.16285  0.81367  1.0000
  C   C54       1.0  0.21649  0.33679  0.68589  1.0000
  C   C55       1.0  0.76058  0.83715  0.18633  1.0000
  C   C56       1.0  0.78351  0.66321  0.31411  1.0000
  C   C57       1.0  0.11587  0.16643  0.81214  1.0000
  C   C58       1.0  0.09480  0.33341  0.68758  1.0000
  C   C59       1.0  0.88412  0.83357  0.18787  1.0000
  C   C60       1.0  0.90520  0.66659  0.31242  1.0000
  S   S1        1.0  0.91867  0.37270  0.47098  1.0000
  S   S2        1.0  0.76239  0.12737  0.02918  1.0000
  S   S3        1.0  0.08134  0.62730  0.52902  1.0000
  S   S4        1.0  0.23761  0.87263  0.97083  1.0000
  N   N1        1.0  0.98694  0.09798  0.67231  1.0000
  N   N2        1.0  0.75734  0.40205  0.82777  1.0000
  N   N3        1.0  0.01305  0.90203  0.32769  1.0000
  N   N4        1.0  0.24266  0.59795  0.17223  1.0000
  N   N5        1.0  0.08211  0.11288  0.47798  1.0000
  N   N6        1.0  0.67278  0.38717  0.02212  1.0000
  N   N7        1.0  0.91789  0.88712  0.52202  1.0000
  N   N8        1.0  0.32722  0.61283  0.97788  1.0000
  N   N9        1.0  0.92759  0.26991  0.57292  1.0000
  N   N10       1.0  0.77037  0.23010  0.92715  1.0000
  N   N11       1.0  0.07241  0.73009  0.42708  1.0000
  N   N12       1.0  0.22963  0.76990  0.07285  1.0000
  N   N13       1.0  0.56673  0.35548  0.25683  1.0000
  N   N14       1.0  0.17920  0.14473  0.24335  1.0000
  N   N15       1.0  0.43327  0.64452  0.74317  1.0000
  N   N16       1.0  0.82081  0.85527  0.75665  1.0000
  N   N17       1.0  0.66806  0.24979  0.74999  1.0000
  N   N18       1.0  0.33194  0.75020  0.25001  1.0000
  N   N19       1.0  0.04533  0.24998  0.74992  1.0000
  N   N20       1.0  0.95467  0.75002  0.25007  1.0000
  O   O1        1.0  0.83720  0.47280  0.52237  1.0000
  O   O2        1.0  0.83261  0.02716  0.97792  1.0000
  O   O3        1.0  0.16279  0.52720  0.47763  1.0000
  O   O4        1.0  0.16740  0.97283  0.02208  1.0000
  O   O5        1.0  0.05281  0.36740  0.38960  1.0000
  O   O6        1.0  0.80968  0.13303  0.11052  1.0000
  O   O7        1.0  0.94718  0.63261  0.61040  1.0000
  O   O8        1.0  0.19032  0.86697  0.88948  1.0000
