data_image0
_chemical_formula_structural       Tm4H16C24O32
_chemical_formula_sum              "Tm4 H16 C24 O32"
_cell_length_a       5.76161
_cell_length_b       8.95551
_cell_length_c       14.7603
_cell_angle_alpha    89.9999
_cell_angle_beta     90
_cell_angle_gamma    93.0736

_space_group_name_H-M_alt    "P 1"
_space_group_IT_number       1

loop_
  _space_group_symop_operation_xyz
  'x, y, z'

loop_
  _atom_site_type_symbol
  _atom_site_label
  _atom_site_symmetry_multiplicity
  _atom_site_fract_x
  _atom_site_fract_y
  _atom_site_fract_z
  _atom_site_occupancy
  Tm  Tm1       1.0  0.86641  0.94084  0.87073  1.0000
  Tm  Tm2       1.0  0.86641  0.44084  0.62927  1.0000
  Tm  Tm3       1.0  0.13359  0.05916  0.12926  1.0000
  Tm  Tm4       1.0  0.13359  0.55917  0.37073  1.0000
  H   H1        1.0  0.10941  0.93862  0.70060  1.0000
  H   H2        1.0  0.10941  0.43862  0.79940  1.0000
  H   H3        1.0  0.89060  0.06138  0.29940  1.0000
  H   H4        1.0  0.89059  0.56139  0.20059  1.0000
  H   H5        1.0  0.31627  0.96283  0.77141  1.0000
  H   H6        1.0  0.31626  0.46283  0.72859  1.0000
  H   H7        1.0  0.68374  0.03718  0.22858  1.0000
  H   H8        1.0  0.68374  0.53718  0.27141  1.0000
  H   H9        1.0  0.84920  0.80488  0.07006  1.0000
  H   H10       1.0  0.84921  0.30489  0.42994  1.0000
  H   H11       1.0  0.15080  0.19512  0.92994  1.0000
  H   H12       1.0  0.15079  0.69512  0.57006  1.0000
  H   H13       1.0  0.67935  0.94448  0.06580  1.0000
  H   H14       1.0  0.67935  0.44448  0.43420  1.0000
  H   H15       1.0  0.32066  0.05552  0.93420  1.0000
  H   H16       1.0  0.32065  0.55552  0.56580  1.0000
  C   C1        1.0  0.64743  0.40819  0.95276  1.0000
  C   C2        1.0  0.64743  0.90819  0.54724  1.0000
  C   C3        1.0  0.35256  0.59181  0.04724  1.0000
  C   C4        1.0  0.35258  0.09181  0.45276  1.0000
  C   C5        1.0  0.55844  0.36409  0.03794  1.0000
  C   C6        1.0  0.55845  0.86410  0.46205  1.0000
  C   C7        1.0  0.44154  0.63590  0.96206  1.0000
  C   C8        1.0  0.44156  0.13591  0.53794  1.0000
  C   C9        1.0  0.58988  0.54448  0.91435  1.0000
  C   C10       1.0  0.58989  0.04448  0.58566  1.0000
  C   C11       1.0  0.41011  0.45551  0.08566  1.0000
  C   C12       1.0  0.41012  0.95553  0.41434  1.0000
  C   C13       1.0  0.80911  0.30267  0.90852  1.0000
  C   C14       1.0  0.80910  0.80267  0.59148  1.0000
  C   C15       1.0  0.19089  0.69732  0.09148  1.0000
  C   C16       1.0  0.19090  0.19733  0.40852  1.0000
  C   C17       1.0  0.65020  0.22292  0.07632  1.0000
  C   C18       1.0  0.65020  0.72293  0.42368  1.0000
  C   C19       1.0  0.34980  0.77707  0.92368  1.0000
  C   C20       1.0  0.34981  0.27707  0.57632  1.0000
  C   C21       1.0  0.68450  0.58635  0.82213  1.0000
  C   C22       1.0  0.68451  0.08633  0.67787  1.0000
  C   C23       1.0  0.31549  0.41366  0.17787  1.0000
  C   C24       1.0  0.31550  0.91366  0.32213  1.0000
  O   O1        1.0  0.15171  0.98130  0.76140  1.0000
  O   O2        1.0  0.15171  0.48130  0.73860  1.0000
  O   O3        1.0  0.84829  0.01870  0.23860  1.0000
  O   O4        1.0  0.84829  0.51871  0.26140  1.0000
  O   O5        1.0  0.83091  0.90889  0.04532  1.0000
  O   O6        1.0  0.83091  0.40889  0.45468  1.0000
  O   O7        1.0  0.16909  0.09111  0.95468  1.0000
  O   O8        1.0  0.16909  0.59111  0.54532  1.0000
  O   O9        1.0  0.01832  0.34630  0.89253  1.0000
  O   O10       1.0  0.01831  0.84629  0.60747  1.0000
  O   O11       1.0  0.98168  0.65371  0.10747  1.0000
  O   O12       1.0  0.98169  0.15371  0.39253  1.0000
  O   O13       1.0  0.72612  0.16875  0.89860  1.0000
  O   O14       1.0  0.72610  0.66874  0.60140  1.0000
  O   O15       1.0  0.27389  0.83125  0.10140  1.0000
  O   O16       1.0  0.27390  0.33126  0.39860  1.0000
  O   O17       1.0  0.86791  0.22310  0.08460  1.0000
  O   O18       1.0  0.86791  0.72310  0.41540  1.0000
  O   O19       1.0  0.13209  0.77690  0.91540  1.0000
  O   O20       1.0  0.13209  0.27690  0.58460  1.0000
  O   O21       1.0  0.51457  0.10932  0.09471  1.0000
  O   O22       1.0  0.51456  0.60932  0.40529  1.0000
  O   O23       1.0  0.48544  0.89068  0.90529  1.0000
  O   O24       1.0  0.48544  0.39068  0.59471  1.0000
  O   O25       1.0  0.67118  0.48337  0.76221  1.0000
  O   O26       1.0  0.67120  0.98337  0.73779  1.0000
  O   O27       1.0  0.32879  0.51662  0.23779  1.0000
  O   O28       1.0  0.32881  0.01662  0.26221  1.0000
  O   O29       1.0  0.77283  0.71585  0.80894  1.0000
  O   O30       1.0  0.77284  0.21586  0.69106  1.0000
  O   O31       1.0  0.22716  0.28413  0.19106  1.0000
  O   O32       1.0  0.22717  0.78414  0.30894  1.0000
