data_image0
_chemical_formula_structural       La4H24C24O36
_chemical_formula_sum              "La4 H24 C24 O36"
_cell_length_a       6.74168
_cell_length_b       10.3995
_cell_length_c       13.7635
_cell_angle_alpha    89.9999
_cell_angle_beta     90
_cell_angle_gamma    90

_space_group_name_H-M_alt    "P 1"
_space_group_IT_number       1

loop_
  _space_group_symop_operation_xyz
  'x, y, z'

loop_
  _atom_site_type_symbol
  _atom_site_label
  _atom_site_symmetry_multiplicity
  _atom_site_fract_x
  _atom_site_fract_y
  _atom_site_fract_z
  _atom_site_occupancy
  La  La1       1.0  0.13045  1.00000  0.20227  1.0000
  La  La2       1.0  0.36955  0.50000  0.70227  1.0000
  La  La3       1.0  0.63045  0.50000  0.29773  1.0000
  La  La4       1.0  0.86955  0.00000  0.79773  1.0000
  H   H1        1.0  0.22033  0.07489  0.98211  1.0000
  H   H2        1.0  0.22033  0.92511  0.98211  1.0000
  H   H3        1.0  0.27967  0.57489  0.48211  1.0000
  H   H4        1.0  0.72033  0.57489  0.51789  1.0000
  H   H5        1.0  0.77966  0.92511  0.01789  1.0000
  H   H6        1.0  0.77967  0.07489  0.01789  1.0000
  H   H7        1.0  0.72033  0.42511  0.51789  1.0000
  H   H8        1.0  0.27967  0.42511  0.48211  1.0000
  H   H9        1.0  0.97351  0.19610  0.35531  1.0000
  H   H10       1.0  0.97350  0.80390  0.35531  1.0000
  H   H11       1.0  0.52649  0.69610  0.85531  1.0000
  H   H12       1.0  0.47350  0.69610  0.14469  1.0000
  H   H13       1.0  0.02649  0.80390  0.64469  1.0000
  H   H14       1.0  0.02649  0.19610  0.64469  1.0000
  H   H15       1.0  0.47350  0.30390  0.14469  1.0000
  H   H16       1.0  0.52649  0.30390  0.85531  1.0000
  H   H17       1.0  0.20546  0.23062  0.35637  1.0000
  H   H18       1.0  0.20546  0.76938  0.35637  1.0000
  H   H19       1.0  0.29454  0.73062  0.85637  1.0000
  H   H20       1.0  0.70546  0.73062  0.14363  1.0000
  H   H21       1.0  0.79454  0.76938  0.64363  1.0000
  H   H22       1.0  0.79454  0.23062  0.64363  1.0000
  H   H23       1.0  0.70546  0.26938  0.14363  1.0000
  H   H24       1.0  0.29454  0.26938  0.85637  1.0000
  C   C1        1.0  0.03688  0.38361  0.04769  1.0000
  C   C2        1.0  0.03687  0.61639  0.04769  1.0000
  C   C3        1.0  0.46312  0.88361  0.54769  1.0000
  C   C4        1.0  0.53688  0.88361  0.45231  1.0000
  C   C5        1.0  0.96312  0.61639  0.95231  1.0000
  C   C6        1.0  0.96313  0.38361  0.95231  1.0000
  C   C7        1.0  0.53688  0.11639  0.45231  1.0000
  C   C8        1.0  0.46312  0.11639  0.54769  1.0000
  C   C9        1.0  0.07307  0.50000  0.09583  1.0000
  C   C10       1.0  0.42693  1.00000  0.59583  1.0000
  C   C11       1.0  0.57308  0.00000  0.40417  1.0000
  C   C12       1.0  0.92693  0.50000  0.90417  1.0000
  C   C13       1.0  0.06963  0.25810  0.09893  1.0000
  C   C14       1.0  0.06963  0.74190  0.09893  1.0000
  C   C15       1.0  0.43037  0.75810  0.59893  1.0000
  C   C16       1.0  0.56963  0.75810  0.40107  1.0000
  C   C17       1.0  0.93037  0.74190  0.90107  1.0000
  C   C18       1.0  0.93037  0.25810  0.90107  1.0000
  C   C19       1.0  0.56963  0.24190  0.40107  1.0000
  C   C20       1.0  0.43037  0.24190  0.59893  1.0000
  C   C21       1.0  0.12452  0.50000  0.20292  1.0000
  C   C22       1.0  0.37548  1.00000  0.70292  1.0000
  C   C23       1.0  0.62452  1.00000  0.29708  1.0000
  C   C24       1.0  0.87548  0.50000  0.79708  1.0000
  O   O1        1.0  0.92178  0.18063  0.10789  1.0000
  O   O2        1.0  0.92178  0.81937  0.10789  1.0000
  O   O3        1.0  0.57822  0.68063  0.60789  1.0000
  O   O4        1.0  0.42178  0.68064  0.39211  1.0000
  O   O5        1.0  0.07822  0.81937  0.89211  1.0000
  O   O6        1.0  0.07822  0.18063  0.89211  1.0000
  O   O7        1.0  0.42179  0.31937  0.39211  1.0000
  O   O8        1.0  0.57822  0.31937  0.60789  1.0000
  O   O9        1.0  0.23912  0.23048  0.13253  1.0000
  O   O10       1.0  0.23911  0.76952  0.13253  1.0000
  O   O11       1.0  0.26088  0.73048  0.63253  1.0000
  O   O12       1.0  0.73912  0.73049  0.36747  1.0000
  O   O13       1.0  0.76088  0.76952  0.86747  1.0000
  O   O14       1.0  0.76088  0.23049  0.86747  1.0000
  O   O15       1.0  0.73912  0.26952  0.36747  1.0000
  O   O16       1.0  0.26088  0.26952  0.63253  1.0000
  O   O17       1.0  0.97732  0.50000  0.26056  1.0000
  O   O18       1.0  0.52267  1.00000  0.76056  1.0000
  O   O19       1.0  0.47732  0.00000  0.23944  1.0000
  O   O20       1.0  0.02268  0.50000  0.73944  1.0000
  O   O21       1.0  0.30264  0.50000  0.22890  1.0000
  O   O22       1.0  0.19736  1.00000  0.72890  1.0000
  O   O23       1.0  0.80264  0.00000  0.27110  1.0000
  O   O24       1.0  0.69736  0.50000  0.77110  1.0000
  O   O25       1.0  0.24682  1.00000  0.02359  1.0000
  O   O26       1.0  0.25318  0.50000  0.52359  1.0000
  O   O27       1.0  0.74682  0.50000  0.47640  1.0000
  O   O28       1.0  0.75318  0.00000  0.97641  1.0000
  O   O29       1.0  0.10716  0.16523  0.33644  1.0000
  O   O30       1.0  0.10716  0.83477  0.33644  1.0000
  O   O31       1.0  0.39284  0.66523  0.83644  1.0000
  O   O32       1.0  0.60715  0.66522  0.16356  1.0000
  O   O33       1.0  0.89284  0.83477  0.66356  1.0000
  O   O34       1.0  0.89284  0.16523  0.66356  1.0000
  O   O35       1.0  0.60716  0.33477  0.16356  1.0000
  O   O36       1.0  0.39284  0.33478  0.83644  1.0000
