data_image0
_chemical_formula_structural       Cu2H32C20N6Cl2O6
_chemical_formula_sum              "Cu2 H32 C20 N6 Cl2 O6"
_cell_length_a       5.58547
_cell_length_b       10.2099
_cell_length_c       10.7658
_cell_angle_alpha    89.9996
_cell_angle_beta     89.9996
_cell_angle_gamma    94.7112

_space_group_name_H-M_alt    "P 1"
_space_group_IT_number       1

loop_
  _space_group_symop_operation_xyz
  'x, y, z'

loop_
  _atom_site_type_symbol
  _atom_site_label
  _atom_site_symmetry_multiplicity
  _atom_site_fract_x
  _atom_site_fract_y
  _atom_site_fract_z
  _atom_site_occupancy
  Cu  Cu1       1.0  0.88982  0.33590  0.60346  1.0000
  Cu  Cu2       1.0  0.11019  0.66409  0.10345  1.0000
  H   H1        1.0  0.15500  0.47642  0.34828  1.0000
  H   H2        1.0  0.84498  0.52357  0.84828  1.0000
  H   H3        1.0  0.44829  0.33697  0.56968  1.0000
  H   H4        1.0  0.55170  0.66304  0.06968  1.0000
  H   H5        1.0  0.66902  0.55301  0.41742  1.0000
  H   H6        1.0  0.33097  0.44699  0.91742  1.0000
  H   H7        1.0  0.24731  0.55808  0.59754  1.0000
  H   H8        1.0  0.75269  0.44192  0.09754  1.0000
  H   H9        1.0  0.35427  0.69706  0.34858  1.0000
  H   H10       1.0  0.64574  0.30294  0.84858  1.0000
  H   H11       1.0  0.40450  0.76807  0.49823  1.0000
  H   H12       1.0  0.59551  0.23193  0.99823  1.0000
  H   H13       1.0  0.10552  0.71936  0.44789  1.0000
  H   H14       1.0  0.89449  0.28064  0.94788  1.0000
  H   H15       1.0  0.70650  0.35630  0.32913  1.0000
  H   H16       1.0  0.29352  0.64369  0.82912  1.0000
  H   H17       1.0  0.40496  0.28655  0.35240  1.0000
  H   H18       1.0  0.59502  0.71345  0.85240  1.0000
  H   H19       1.0  0.75970  0.86475  0.41161  1.0000
  H   H20       1.0  0.24031  0.13525  0.91161  1.0000
  H   H21       1.0  0.23556  0.03151  0.32271  1.0000
  H   H22       1.0  0.76443  0.96850  0.82270  1.0000
  H   H23       1.0  0.42408  0.92886  0.24193  1.0000
  H   H24       1.0  0.57591  0.07113  0.74193  1.0000
  H   H25       1.0  0.42558  0.09923  0.20392  1.0000
  H   H26       1.0  0.57441  0.90077  0.70393  1.0000
  H   H27       1.0  0.26533  0.99734  0.54931  1.0000
  H   H28       1.0  0.73468  0.00266  0.04931  1.0000
  H   H29       1.0  0.03871  0.89620  0.62654  1.0000
  H   H30       1.0  0.96130  0.10380  0.12654  1.0000
  H   H31       1.0  0.11726  0.06089  0.67870  1.0000
  H   H32       1.0  0.88274  0.93912  0.17869  1.0000
  C   C1        1.0  0.71457  0.58278  0.61391  1.0000
  C   C2        1.0  0.28543  0.41720  0.11392  1.0000
  C   C3        1.0  0.57514  0.51857  0.50292  1.0000
  C   C4        1.0  0.42485  0.48143  0.00292  1.0000
  C   C5        1.0  0.31131  0.55916  0.50091  1.0000
  C   C6        1.0  0.68871  0.44084  0.00091  1.0000
  C   C7        1.0  0.29270  0.69450  0.44556  1.0000
  C   C8        1.0  0.70729  0.30549  0.94556  1.0000
  C   C9        1.0  0.58386  0.30189  0.39460  1.0000
  C   C10       1.0  0.41612  0.69811  0.89460  1.0000
  C   C11       1.0  0.60824  0.05408  0.37317  1.0000
  C   C12       1.0  0.39176  0.94591  0.87318  1.0000
  C   C13       1.0  0.75781  0.96907  0.42943  1.0000
  C   C14       1.0  0.24218  0.03093  0.92944  1.0000
  C   C15       1.0  0.90504  0.04412  0.51335  1.0000
  C   C16       1.0  0.09496  0.95588  0.01334  1.0000
  C   C17       1.0  0.41395  0.02772  0.28010  1.0000
  C   C18       1.0  0.58605  0.97229  0.78010  1.0000
  C   C19       1.0  0.09141  0.99737  0.59721  1.0000
  C   C20       1.0  0.90860  0.00263  0.09721  1.0000
  N   N1        1.0  0.58560  0.37503  0.51153  1.0000
  N   N2        1.0  0.41442  0.62497  0.01152  1.0000
  N   N3        1.0  0.85107  0.17052  0.50810  1.0000
  N   N4        1.0  0.14893  0.82948  0.00810  1.0000
  N   N5        1.0  0.66936  0.17463  0.42291  1.0000
  N   N6        1.0  0.33063  0.82537  0.92291  1.0000
  Cl  Cl1       1.0  0.20673  0.30666  0.72562  1.0000
  Cl  Cl2       1.0  0.79327  0.69335  0.22562  1.0000
  O   O1        1.0  0.83706  0.50530  0.68209  1.0000
  O   O2        1.0  0.16295  0.49470  0.18208  1.0000
  O   O3        1.0  0.70694  0.70121  0.63688  1.0000
  O   O4        1.0  0.29309  0.29881  0.13689  1.0000
  O   O5        1.0  0.15496  0.46087  0.43948  1.0000
  O   O6        1.0  0.84504  0.53913  0.93949  1.0000
