data_image0
_chemical_formula_structural       Zn4H32C48N8O20
_chemical_formula_sum              "Zn4 H32 C48 N8 O20"
_cell_length_a       9.63868
_cell_length_b       12.8315
_cell_length_c       13.7693
_cell_angle_alpha    89.9999
_cell_angle_beta     89.9999
_cell_angle_gamma    104.695

_space_group_name_H-M_alt    "P 1"
_space_group_IT_number       1

loop_
  _space_group_symop_operation_xyz
  'x, y, z'

loop_
  _atom_site_type_symbol
  _atom_site_label
  _atom_site_symmetry_multiplicity
  _atom_site_fract_x
  _atom_site_fract_y
  _atom_site_fract_z
  _atom_site_occupancy
  Zn  Zn1       1.0  0.92382  0.41066  0.13947  1.0000
  Zn  Zn2       1.0  0.57618  0.08934  0.63947  1.0000
  Zn  Zn3       1.0  0.07617  0.58934  0.86053  1.0000
  Zn  Zn4       1.0  0.42383  0.91066  0.36053  1.0000
  H   H1        1.0  0.65237  0.49750  0.12176  1.0000
  H   H2        1.0  0.84763  0.00250  0.62176  1.0000
  H   H3        1.0  0.34763  0.50249  0.87824  1.0000
  H   H4        1.0  0.15237  0.99751  0.37824  1.0000
  H   H5        1.0  0.38377  0.41157  0.14139  1.0000
  H   H6        1.0  0.11623  0.08843  0.64140  1.0000
  H   H7        1.0  0.61623  0.58843  0.85861  1.0000
  H   H8        1.0  0.88377  0.91157  0.35861  1.0000
  H   H9        1.0  0.31378  0.23826  0.23577  1.0000
  H   H10       1.0  0.18622  0.26174  0.73577  1.0000
  H   H11       1.0  0.68622  0.76174  0.76423  1.0000
  H   H12       1.0  0.81378  0.73826  0.26423  1.0000
  H   H13       1.0  0.93767  0.12869  0.47242  1.0000
  H   H14       1.0  0.56233  0.37131  0.97242  1.0000
  H   H15       1.0  0.06233  0.87132  0.52758  1.0000
  H   H16       1.0  0.43767  0.62868  0.02758  1.0000
  H   H17       1.0  0.15189  0.17938  0.36037  1.0000
  H   H18       1.0  0.34811  0.32062  0.86037  1.0000
  H   H19       1.0  0.84811  0.82062  0.63963  1.0000
  H   H20       1.0  0.65189  0.67938  0.13963  1.0000
  H   H21       1.0  0.12866  0.29047  0.21158  1.0000
  H   H22       1.0  0.37134  0.20953  0.71158  1.0000
  H   H23       1.0  0.87133  0.70953  0.78842  1.0000
  H   H24       1.0  0.62867  0.79047  0.28842  1.0000
  H   H25       1.0  0.10662  0.35762  0.01642  1.0000
  H   H26       1.0  0.39338  0.14238  0.51642  1.0000
  H   H27       1.0  0.89338  0.64238  0.98358  1.0000
  H   H28       1.0  0.60662  0.85762  0.48358  1.0000
  H   H29       1.0  0.15937  0.47688  0.04813  1.0000
  H   H30       1.0  0.34063  0.02312  0.54813  1.0000
  H   H31       1.0  0.84063  0.52312  0.95187  1.0000
  H   H32       1.0  0.65937  0.97688  0.45187  1.0000
  C   C1        1.0  0.61046  0.42417  0.16345  1.0000
  C   C2        1.0  0.88954  0.07583  0.66345  1.0000
  C   C3        1.0  0.38954  0.57583  0.83655  1.0000
  C   C4        1.0  0.11046  0.92417  0.33655  1.0000
  C   C5        1.0  0.46463  0.37652  0.17409  1.0000
  C   C6        1.0  0.03537  0.12348  0.67409  1.0000
  C   C7        1.0  0.53537  0.62347  0.82591  1.0000
  C   C8        1.0  0.96463  0.87652  0.32591  1.0000
  C   C9        1.0  0.42566  0.28128  0.22675  1.0000
  C   C10       1.0  0.07434  0.21872  0.72676  1.0000
  C   C11       1.0  0.57434  0.71872  0.77325  1.0000
  C   C12       1.0  0.92566  0.78128  0.27325  1.0000
  C   C13       1.0  0.52874  0.23620  0.26938  1.0000
  C   C14       1.0  0.97126  0.26380  0.76938  1.0000
  C   C15       1.0  0.47126  0.76380  0.73062  1.0000
  C   C16       1.0  0.02874  0.73619  0.23062  1.0000
  C   C17       1.0  0.67400  0.29121  0.25743  1.0000
  C   C18       1.0  0.82600  0.20879  0.75743  1.0000
  C   C19       1.0  0.32600  0.70879  0.74257  1.0000
  C   C20       1.0  0.17400  0.79121  0.24257  1.0000
  C   C21       1.0  0.80079  0.25771  0.29577  1.0000
  C   C22       1.0  0.69921  0.24229  0.79577  1.0000
  C   C23       1.0  0.19921  0.74229  0.70423  1.0000
  C   C24       1.0  0.30080  0.75771  0.20423  1.0000
  C   C25       1.0  0.80680  0.20229  0.38325  1.0000
  C   C26       1.0  0.69320  0.29771  0.88325  1.0000
  C   C27       1.0  0.19320  0.79771  0.61675  1.0000
  C   C28       1.0  0.30680  0.70229  0.11675  1.0000
  C   C29       1.0  0.93314  0.17207  0.40497  1.0000
  C   C30       1.0  0.56686  0.32793  0.90497  1.0000
  C   C31       1.0  0.06687  0.82793  0.59503  1.0000
  C   C32       1.0  0.43314  0.67207  0.09503  1.0000
  C   C33       1.0  0.05162  0.20044  0.34390  1.0000
  C   C34       1.0  0.44839  0.29956  0.84390  1.0000
  C   C35       1.0  0.94839  0.79956  0.65610  1.0000
  C   C36       1.0  0.55161  0.70044  0.15610  1.0000
  C   C37       1.0  0.04016  0.26075  0.26176  1.0000
  C   C38       1.0  0.45984  0.23926  0.76176  1.0000
  C   C39       1.0  0.95984  0.73926  0.73824  1.0000
  C   C40       1.0  0.54016  0.76074  0.23824  1.0000
  C   C41       1.0  0.46868  0.13066  0.32087  1.0000
  C   C42       1.0  0.03132  0.36934  0.82087  1.0000
  C   C43       1.0  0.53133  0.86933  0.67913  1.0000
  C   C44       1.0  0.96868  0.63066  0.17913  1.0000
  C   C45       1.0  0.69423  0.18673  0.46173  1.0000
  C   C46       1.0  0.80577  0.31327  0.96173  1.0000
  C   C47       1.0  0.30577  0.81327  0.53827  1.0000
  C   C48       1.0  0.19423  0.68673  0.03827  1.0000
  N   N1        1.0  0.71054  0.38205  0.20347  1.0000
  N   N2        1.0  0.78945  0.11795  0.70347  1.0000
  N   N3        1.0  0.28945  0.61795  0.79653  1.0000
  N   N4        1.0  0.21055  0.88205  0.29653  1.0000
  N   N5        1.0  0.91879  0.28784  0.23881  1.0000
  N   N6        1.0  0.58121  0.21216  0.73881  1.0000
  N   N7        1.0  0.08121  0.71216  0.76119  1.0000
  N   N8        1.0  0.41879  0.78784  0.26119  1.0000
  O   O1        1.0  0.36068  0.12413  0.37380  1.0000
  O   O2        1.0  0.13932  0.37587  0.87380  1.0000
  O   O3        1.0  0.63932  0.87587  0.62620  1.0000
  O   O4        1.0  0.86068  0.62413  0.12620  1.0000
  O   O5        1.0  0.52840  0.05374  0.30325  1.0000
  O   O6        1.0  0.97160  0.44626  0.80325  1.0000
  O   O7        1.0  0.47161  0.94626  0.69675  1.0000
  O   O8        1.0  0.02840  0.55374  0.19675  1.0000
  O   O9        1.0  0.63501  0.25949  0.48056  1.0000
  O   O10       1.0  0.86499  0.24050  0.98056  1.0000
  O   O11       1.0  0.36499  0.74050  0.51944  1.0000
  O   O12       1.0  0.13501  0.75950  0.01944  1.0000
  O   O13       1.0  0.67517  0.09593  0.50924  1.0000
  O   O14       1.0  0.82483  0.40407  0.00924  1.0000
  O   O15       1.0  0.32483  0.90407  0.49076  1.0000
  O   O16       1.0  0.17517  0.59593  0.99077  1.0000
  O   O17       1.0  0.12712  0.40223  0.07551  1.0000
  O   O18       1.0  0.37288  0.09777  0.57551  1.0000
  O   O19       1.0  0.87288  0.59777  0.92449  1.0000
  O   O20       1.0  0.62712  0.90223  0.42449  1.0000
