data_image0
_chemical_formula_structural       Zr2H52C40N8O16
_chemical_formula_sum              "Zr2 H52 C40 N8 O16"
_cell_length_a       8.39144
_cell_length_b       10.2443
_cell_length_c       14.8701
_cell_angle_alpha    100.995
_cell_angle_beta     90.0022
_cell_angle_gamma    114.173

_space_group_name_H-M_alt    "P 1"
_space_group_IT_number       1

loop_
  _space_group_symop_operation_xyz
  'x, y, z'

loop_
  _atom_site_type_symbol
  _atom_site_label
  _atom_site_symmetry_multiplicity
  _atom_site_fract_x
  _atom_site_fract_y
  _atom_site_fract_z
  _atom_site_occupancy
  Zr  Zr1       1.0  0.28503  0.99999  0.74998  1.0000
  Zr  Zr2       1.0  0.71497  0.00001  0.25002  1.0000
  H   H1        1.0  0.08605  0.79509  0.99614  1.0000
  H   H2        1.0  0.29091  0.20494  0.50384  1.0000
  H   H3        1.0  0.91395  0.20491  0.00386  1.0000
  H   H4        1.0  0.70909  0.79506  0.49616  1.0000
  H   H5        1.0  0.70048  0.64311  0.75577  1.0000
  H   H6        1.0  0.05719  0.35675  0.74420  1.0000
  H   H7        1.0  0.29952  0.35688  0.24423  1.0000
  H   H8        1.0  0.94281  0.64325  0.25580  1.0000
  H   H9        1.0  0.58277  0.59260  0.85280  1.0000
  H   H10       1.0  0.99005  0.40736  0.64718  1.0000
  H   H11       1.0  0.41723  0.40740  0.14720  1.0000
  H   H12       1.0  0.00995  0.59264  0.35282  1.0000
  H   H13       1.0  0.31938  0.42259  0.75632  1.0000
  H   H14       1.0  0.89672  0.57738  0.74374  1.0000
  H   H15       1.0  0.68062  0.57741  0.24368  1.0000
  H   H16       1.0  0.10328  0.42262  0.25626  1.0000
  H   H17       1.0  0.49269  0.38372  0.71138  1.0000
  H   H18       1.0  0.10894  0.61621  0.78861  1.0000
  H   H19       1.0  0.50732  0.61629  0.28862  1.0000
  H   H20       1.0  0.89106  0.38379  0.21139  1.0000
  H   H21       1.0  0.51495  0.51066  0.58757  1.0000
  H   H22       1.0  0.00432  0.48919  0.91242  1.0000
  H   H23       1.0  0.48505  0.48934  0.41243  1.0000
  H   H24       1.0  0.99568  0.51081  0.08758  1.0000
  H   H25       1.0  0.28805  0.39818  0.58977  1.0000
  H   H26       1.0  0.88993  0.60171  0.91026  1.0000
  H   H27       1.0  0.71196  0.60182  0.41023  1.0000
  H   H28       1.0  0.11008  0.39829  0.08974  1.0000
  H   H29       1.0  0.23860  0.54057  0.50560  1.0000
  H   H30       1.0  0.69801  0.45937  0.99440  1.0000
  H   H31       1.0  0.76140  0.45943  0.49440  1.0000
  H   H32       1.0  0.30199  0.54062  0.00560  1.0000
  H   H33       1.0  0.35995  0.73528  0.53411  1.0000
  H   H34       1.0  0.62463  0.26467  0.96591  1.0000
  H   H35       1.0  0.64005  0.26472  0.46589  1.0000
  H   H36       1.0  0.37537  0.73533  0.03409  1.0000
  H   H37       1.0  0.15351  0.65271  0.57884  1.0000
  H   H38       1.0  0.50079  0.34726  0.92116  1.0000
  H   H39       1.0  0.84649  0.34728  0.42117  1.0000
  H   H40       1.0  0.49921  0.65274  0.07884  1.0000
  H   H41       1.0  0.64813  0.82534  0.91514  1.0000
  H   H42       1.0  0.82257  0.17464  0.58482  1.0000
  H   H43       1.0  0.35187  0.17466  0.08486  1.0000
  H   H44       1.0  0.17743  0.82536  0.41518  1.0000
  H   H45       1.0  0.48522  0.88682  0.89035  1.0000
  H   H46       1.0  0.59820  0.11316  0.60961  1.0000
  H   H47       1.0  0.51478  0.11318  0.10965  1.0000
  H   H48       1.0  0.40180  0.88684  0.39039  1.0000
  H   H49       1.0  0.68736  0.94525  0.83772  1.0000
  H   H50       1.0  0.74196  0.05476  0.66223  1.0000
  H   H51       1.0  0.31265  0.05475  0.16228  1.0000
  H   H52       1.0  0.25804  0.94524  0.33777  1.0000
  C   C1        1.0  0.11613  0.97719  0.93536  1.0000
  C   C2        1.0  0.13897  0.02280  0.56459  1.0000
  C   C3        1.0  0.88387  0.02281  0.06463  1.0000
  C   C4        1.0  0.86103  0.97720  0.43541  1.0000
  C   C5        1.0  0.06734  0.09567  0.93897  1.0000
  C   C6        1.0  0.97174  0.90433  0.56102  1.0000
  C   C7        1.0  0.93266  0.90433  0.06103  1.0000
  C   C8        1.0  0.02826  0.09567  0.43898  1.0000
  C   C9        1.0  0.13625  0.20275  0.87765  1.0000
  C   C10       1.0  0.93360  0.79726  0.62235  1.0000
  C   C11       1.0  0.86375  0.79725  0.12235  1.0000
  C   C12       1.0  0.06640  0.20274  0.37765  1.0000
  C   C13       1.0  0.04716  0.88457  0.99705  1.0000
  C   C14       1.0  0.16258  0.11545  0.50292  1.0000
  C   C15       1.0  0.95284  0.11543  0.00294  1.0000
  C   C16       1.0  0.83742  0.88455  0.49708  1.0000
  C   C17       1.0  0.41895  0.72957  0.71394  1.0000
  C   C18       1.0  0.68926  0.27041  0.78604  1.0000
  C   C19       1.0  0.58105  0.27043  0.28606  1.0000
  C   C20       1.0  0.31074  0.72959  0.21396  1.0000
  C   C21       1.0  0.57020  0.60752  0.78235  1.0000
  C   C22       1.0  0.96256  0.39243  0.71763  1.0000
  C   C23       1.0  0.42980  0.39248  0.21765  1.0000
  C   C24       1.0  0.03744  0.60757  0.28237  1.0000
  C   C25       1.0  0.43968  0.46659  0.72165  1.0000
  C   C26       1.0  0.97306  0.53335  0.77837  1.0000
  C   C27       1.0  0.56032  0.53341  0.27835  1.0000
  C   C28       1.0  0.02694  0.46664  0.22163  1.0000
  C   C29       1.0  0.40126  0.49253  0.62843  1.0000
  C   C30       1.0  0.90875  0.50735  0.87159  1.0000
  C   C31       1.0  0.59875  0.50747  0.37157  1.0000
  C   C32       1.0  0.09125  0.49265  0.12841  1.0000
  C   C33       1.0  0.27312  0.63887  0.55999  1.0000
  C   C34       1.0  0.63422  0.36108  0.94001  1.0000
  C   C35       1.0  0.72688  0.36113  0.44001  1.0000
  C   C36       1.0  0.36578  0.63892  0.05999  1.0000
  C   C37       1.0  0.58604  0.85296  0.86136  1.0000
  C   C38       1.0  0.73287  0.14704  0.63859  1.0000
  C   C39       1.0  0.41396  0.14705  0.13864  1.0000
  C   C40       1.0  0.26713  0.85296  0.36140  1.0000
  N   N1        1.0  0.36015  0.62037  0.63883  1.0000
  N   N2        1.0  0.73977  0.37955  0.86119  1.0000
  N   N3        1.0  0.63985  0.37964  0.36117  1.0000
  N   N4        1.0  0.26023  0.62045  0.13881  1.0000
  N   N5        1.0  0.50930  0.72355  0.78694  1.0000
  N   N6        1.0  0.78559  0.27645  0.71302  1.0000
  N   N7        1.0  0.49070  0.27645  0.21306  1.0000
  N   N8        1.0  0.21441  0.72355  0.28698  1.0000
  O   O1        1.0  0.38745  0.84285  0.71583  1.0000
  O   O2        1.0  0.54443  0.15719  0.78412  1.0000
  O   O3        1.0  0.61255  0.15715  0.28417  1.0000
  O   O4        1.0  0.45557  0.84281  0.21588  1.0000
  O   O5        1.0  0.19245  0.15960  0.80015  1.0000
  O   O6        1.0  0.03290  0.84049  0.69987  1.0000
  O   O7        1.0  0.80755  0.84040  0.19985  1.0000
  O   O8        1.0  0.96710  0.15951  0.30013  1.0000
  O   O9        1.0  0.22828  0.95421  0.87708  1.0000
  O   O10       1.0  0.27411  0.04578  0.62286  1.0000
  O   O11       1.0  0.77172  0.04579  0.12291  1.0000
  O   O12       1.0  0.72589  0.95422  0.37714  1.0000
  O   O13       1.0  0.13835  0.32720  0.89972  1.0000
  O   O14       1.0  0.81128  0.67280  0.60031  1.0000
  O   O15       1.0  0.86165  0.67280  0.10028  1.0000
  O   O16       1.0  0.18872  0.32720  0.39969  1.0000
