data_image0
_chemical_formula_structural       Cu2H32C36S2N8O14
_chemical_formula_sum              "Cu2 H32 C36 S2 N8 O14"
_cell_length_a       10.4589
_cell_length_b       10.9076
_cell_length_c       11.7222
_cell_angle_alpha    64.9113
_cell_angle_beta     77.791
_cell_angle_gamma    68.2513

_space_group_name_H-M_alt    "P 1"
_space_group_IT_number       1

loop_
  _space_group_symop_operation_xyz
  'x, y, z'

loop_
  _atom_site_type_symbol
  _atom_site_label
  _atom_site_symmetry_multiplicity
  _atom_site_fract_x
  _atom_site_fract_y
  _atom_site_fract_z
  _atom_site_occupancy
  Cu  Cu1       1.0  0.37404  0.32759  0.12796  1.0000
  Cu  Cu2       1.0  0.62595  0.67241  0.87204  1.0000
  H   H1        1.0  0.36040  0.67070  0.30720  1.0000
  H   H2        1.0  0.63961  0.32930  0.69281  1.0000
  H   H3        1.0  0.11309  0.58716  0.21264  1.0000
  H   H4        1.0  0.88691  0.41284  0.78736  1.0000
  H   H5        1.0  0.57373  0.26075  0.25394  1.0000
  H   H6        1.0  0.42627  0.73925  0.74606  1.0000
  H   H7        1.0  0.46700  0.41008  0.25287  1.0000
  H   H8        1.0  0.53300  0.58992  0.74713  1.0000
  H   H9        1.0  0.42722  0.09889  0.04296  1.0000
  H   H10       1.0  0.57277  0.90111  0.95704  1.0000
  H   H11       1.0  0.40461  0.85539  0.13326  1.0000
  H   H12       1.0  0.59539  0.14461  0.86674  1.0000
  H   H13       1.0  0.32134  0.88588  0.49991  1.0000
  H   H14       1.0  0.67865  0.11412  0.50010  1.0000
  H   H15       1.0  0.34602  0.12962  0.39263  1.0000
  H   H16       1.0  0.65399  0.87038  0.60737  1.0000
  H   H17       1.0  0.37907  0.37897  0.68892  1.0000
  H   H18       1.0  0.62093  0.62103  0.31108  1.0000
  H   H19       1.0  0.31123  0.16791  0.72317  1.0000
  H   H20       1.0  0.68877  0.83208  0.27683  1.0000
  H   H21       1.0  0.17289  0.18362  0.56420  1.0000
  H   H22       1.0  0.82711  0.81638  0.43579  1.0000
  H   H23       1.0  0.17343  0.61471  0.34356  1.0000
  H   H24       1.0  0.82657  0.38530  0.65643  1.0000
  H   H25       1.0  0.04128  0.71181  0.00845  1.0000
  H   H26       1.0  0.95871  0.28819  0.99155  1.0000
  H   H27       1.0  0.86804  0.77423  0.85964  1.0000
  H   H28       1.0  0.13196  0.22578  0.14037  1.0000
  H   H29       1.0  0.67779  0.48845  0.12872  1.0000
  H   H30       1.0  0.32221  0.51155  0.87129  1.0000
  H   H31       1.0  0.85076  0.40162  0.28055  1.0000
  H   H32       1.0  0.14924  0.59838  0.71945  1.0000
  C   C1        1.0  0.40415  0.04690  0.14357  1.0000
  C   C2        1.0  0.59584  0.95311  0.85642  1.0000
  C   C3        1.0  0.39210  0.91183  0.19461  1.0000
  C   C4        1.0  0.60789  0.08817  0.80540  1.0000
  C   C5        1.0  0.35943  0.85035  0.32538  1.0000
  C   C6        1.0  0.64057  0.14965  0.67462  1.0000
  C   C7        1.0  0.34401  0.92967  0.39873  1.0000
  C   C8        1.0  0.65599  0.07033  0.60127  1.0000
  C   C9        1.0  0.35772  0.06472  0.33928  1.0000
  C   C10       1.0  0.64228  0.93528  0.66072  1.0000
  C   C11       1.0  0.32049  0.63341  0.49692  1.0000
  C   C12       1.0  0.67951  0.36658  0.50308  1.0000
  C   C13       1.0  0.28327  0.50712  0.51280  1.0000
  C   C14       1.0  0.71673  0.49288  0.48720  1.0000
  C   C15       1.0  0.32073  0.38210  0.62052  1.0000
  C   C16       1.0  0.67926  0.61790  0.37948  1.0000
  C   C17       1.0  0.28243  0.26502  0.63901  1.0000
  C   C18       1.0  0.71757  0.73498  0.36099  1.0000
  C   C19       1.0  0.20628  0.27271  0.55065  1.0000
  C   C20       1.0  0.79373  0.72729  0.44935  1.0000
  C   C21       1.0  0.16776  0.39774  0.44233  1.0000
  C   C22       1.0  0.83224  0.60227  0.55766  1.0000
  C   C23       1.0  0.20574  0.51505  0.42462  1.0000
  C   C24       1.0  0.79426  0.48495  0.57537  1.0000
  C   C25       1.0  0.08373  0.39828  0.35341  1.0000
  C   C26       1.0  0.91627  0.60171  0.64659  1.0000
  C   C27       1.0  0.96141  0.55073  0.15825  1.0000
  C   C28       1.0  0.03858  0.44928  0.84175  1.0000
  C   C29       1.0  0.96301  0.65873  0.03743  1.0000
  C   C30       1.0  0.03699  0.34128  0.96257  1.0000
  C   C31       1.0  0.86541  0.69503  0.95525  1.0000
  C   C32       1.0  0.13459  0.30497  0.04475  1.0000
  C   C33       1.0  0.76188  0.53261  0.10404  1.0000
  C   C34       1.0  0.23811  0.46739  0.89597  1.0000
  C   C35       1.0  0.85856  0.48571  0.18979  1.0000
  C   C36       1.0  0.14144  0.51429  0.81021  1.0000
  S   S1        1.0  0.34828  0.64727  0.08987  1.0000
  S   S2        1.0  0.65173  0.35274  0.91013  1.0000
  N   N1        1.0  0.38607  0.12384  0.21395  1.0000
  N   N2        1.0  0.61393  0.87616  0.78605  1.0000
  N   N3        1.0  0.76472  0.63424  0.98754  1.0000
  N   N4        1.0  0.23527  0.36576  0.01246  1.0000
  N   N5        1.0  0.34235  0.71780  0.37219  1.0000
  N   N6        1.0  0.65766  0.28220  0.62781  1.0000
  N   N7        1.0  0.05635  0.51756  0.24190  1.0000
  N   N8        1.0  0.94365  0.48244  0.75810  1.0000
  O   O1        1.0  0.34887  0.53401  0.04757  1.0000
  O   O2        1.0  0.65112  0.46599  0.95244  1.0000
  O   O3        1.0  0.43319  0.57515  0.20422  1.0000
  O   O4        1.0  0.56682  0.42485  0.79578  1.0000
  O   O5        1.0  0.20532  0.72049  0.12562  1.0000
  O   O6        1.0  0.79468  0.27952  0.87439  1.0000
  O   O7        1.0  0.41166  0.74706  0.98551  1.0000
  O   O8        1.0  0.58835  0.25294  0.01449  1.0000
  O   O9        1.0  0.47573  0.30798  0.26718  1.0000
  O   O10       1.0  0.52427  0.69202  0.73282  1.0000
  O   O11       1.0  0.32967  0.65898  0.58757  1.0000
  O   O12       1.0  0.67034  0.34101  0.41243  1.0000
  O   O13       1.0  0.04235  0.29620  0.37963  1.0000
  O   O14       1.0  0.95766  0.70379  0.62036  1.0000
