data_image0
_chemical_formula_structural       Zr2H44C36N8O16
_chemical_formula_sum              "Zr2 H44 C36 N8 O16"
_cell_length_a       8.0176
_cell_length_b       9.59588
_cell_length_c       15.2919
_cell_angle_alpha    98.7534
_cell_angle_beta     89.9908
_cell_angle_gamma    114.671

_space_group_name_H-M_alt    "P 1"
_space_group_IT_number       1

loop_
  _space_group_symop_operation_xyz
  'x, y, z'

loop_
  _atom_site_type_symbol
  _atom_site_label
  _atom_site_symmetry_multiplicity
  _atom_site_fract_x
  _atom_site_fract_y
  _atom_site_fract_z
  _atom_site_occupancy
  Zr  Zr1       1.0  0.71595  0.00021  0.75005  1.0000
  Zr  Zr2       1.0  0.28404  0.99978  0.24995  1.0000
  H   H1        1.0  0.08295  0.77832  0.49719  1.0000
  H   H2        1.0  0.30474  0.22139  0.00282  1.0000
  H   H3        1.0  0.91706  0.22168  0.50281  1.0000
  H   H4        1.0  0.69527  0.77861  0.99718  1.0000
  H   H5        1.0  0.91251  0.56193  0.75725  1.0000
  H   H6        1.0  0.35079  0.43885  0.74299  1.0000
  H   H7        1.0  0.08749  0.43807  0.24275  1.0000
  H   H8        1.0  0.64921  0.56114  0.25701  1.0000
  H   H9        1.0  0.00810  0.44831  0.80613  1.0000
  H   H10       1.0  0.55990  0.55196  0.69387  1.0000
  H   H11       1.0  0.99189  0.55170  0.19387  1.0000
  H   H12       1.0  0.44009  0.44804  0.30613  1.0000
  H   H13       1.0  0.94691  0.43567  0.61929  1.0000
  H   H14       1.0  0.51179  0.56504  0.88083  1.0000
  H   H15       1.0  0.05309  0.56433  0.38071  1.0000
  H   H16       1.0  0.48821  0.43495  0.11917  1.0000
  H   H17       1.0  0.09559  0.36584  0.66634  1.0000
  H   H18       1.0  0.73002  0.63477  0.83356  1.0000
  H   H19       1.0  0.90440  0.63416  0.33366  1.0000
  H   H20       1.0  0.26998  0.36523  0.16644  1.0000
  H   H21       1.0  0.17787  0.71883  0.92386  1.0000
  H   H22       1.0  0.45886  0.28121  0.57632  1.0000
  H   H23       1.0  0.82213  0.28118  0.07614  1.0000
  H   H24       1.0  0.54114  0.71878  0.42368  1.0000
  H   H25       1.0  0.12271  0.83944  0.86207  1.0000
  H   H26       1.0  0.28321  0.16070  0.63813  1.0000
  H   H27       1.0  0.87730  0.16056  0.13793  1.0000
  H   H28       1.0  0.71679  0.83930  0.36186  1.0000
  H   H29       1.0  0.35723  0.86908  0.87983  1.0000
  H   H30       1.0  0.48814  0.13109  0.62043  1.0000
  H   H31       1.0  0.64277  0.13092  0.12017  1.0000
  H   H32       1.0  0.51186  0.86891  0.37957  1.0000
  H   H33       1.0  0.21327  0.51161  0.51063  1.0000
  H   H34       1.0  0.70249  0.48895  0.98937  1.0000
  H   H35       1.0  0.78672  0.48839  0.48938  1.0000
  H   H36       1.0  0.29750  0.51105  0.01063  1.0000
  H   H37       1.0  0.43470  0.58164  0.56685  1.0000
  H   H38       1.0  0.85394  0.41906  0.93298  1.0000
  H   H39       1.0  0.56529  0.41836  0.43315  1.0000
  H   H40       1.0  0.14606  0.58094  0.06702  1.0000
  H   H41       1.0  0.35000  0.71674  0.54142  1.0000
  H   H42       1.0  0.63437  0.28386  0.95849  1.0000
  H   H43       1.0  0.64999  0.28326  0.45858  1.0000
  H   H44       1.0  0.36563  0.71614  0.04151  1.0000
  C   C1        1.0  0.86889  0.78784  0.62716  1.0000
  C   C2        1.0  0.08143  0.21222  0.87282  1.0000
  C   C3        1.0  0.13112  0.21215  0.37283  1.0000
  C   C4        1.0  0.91857  0.78778  0.12718  1.0000
  C   C5        1.0  0.93525  0.90045  0.56356  1.0000
  C   C6        1.0  0.03505  0.09960  0.93642  1.0000
  C   C7        1.0  0.06477  0.09956  0.43644  1.0000
  C   C8        1.0  0.96496  0.90040  0.06358  1.0000
  C   C9        1.0  0.88691  0.02795  0.56623  1.0000
  C   C10       1.0  0.85914  0.97230  0.93379  1.0000
  C   C11       1.0  0.11310  0.97206  0.43377  1.0000
  C   C12       1.0  0.14087  0.02770  0.06621  1.0000
  C   C13       1.0  0.04645  0.87585  0.49796  1.0000
  C   C14       1.0  0.17068  0.12396  0.00201  1.0000
  C   C15       1.0  0.95356  0.12415  0.50204  1.0000
  C   C16       1.0  0.82933  0.87605  0.99799  1.0000
  C   C17       1.0  0.29629  0.71133  0.71644  1.0000
  C   C18       1.0  0.58511  0.28911  0.78367  1.0000
  C   C19       1.0  0.70370  0.28866  0.28357  1.0000
  C   C20       1.0  0.41489  0.71090  0.21633  1.0000
  C   C21       1.0  0.02914  0.53056  0.76022  1.0000
  C   C22       1.0  0.49867  0.46989  0.73987  1.0000
  C   C23       1.0  0.97085  0.46943  0.23978  1.0000
  C   C24       1.0  0.50132  0.53011  0.26013  1.0000
  C   C25       1.0  0.06430  0.46722  0.66670  1.0000
  C   C26       1.0  0.59749  0.53338  0.83334  1.0000
  C   C27       1.0  0.93569  0.53277  0.33331  1.0000
  C   C28       1.0  0.40251  0.46662  0.16666  1.0000
  C   C29       1.0  0.21455  0.78136  0.86738  1.0000
  C   C30       1.0  0.43306  0.21879  0.63284  1.0000
  C   C31       1.0  0.78545  0.21864  0.13262  1.0000
  C   C32       1.0  0.56694  0.78121  0.36716  1.0000
  C   C33       1.0  0.31015  0.60274  0.56165  1.0000
  C   C34       1.0  0.70833  0.39790  0.93828  1.0000
  C   C35       1.0  0.68984  0.39726  0.43835  1.0000
  C   C36       1.0  0.29166  0.60210  0.06172  1.0000
  N   N1        1.0  0.19846  0.67214  0.78769  1.0000
  N   N2        1.0  0.52605  0.32808  0.71247  1.0000
  N   N3        1.0  0.80154  0.32785  0.21231  1.0000
  N   N4        1.0  0.47395  0.67192  0.28753  1.0000
  N   N5        1.0  0.22365  0.60011  0.64473  1.0000
  N   N6        1.0  0.62421  0.40056  0.85530  1.0000
  N   N7        1.0  0.77635  0.39988  0.35528  1.0000
  N   N8        1.0  0.37578  0.59943  0.14470  1.0000
  O   O1        1.0  0.80774  0.83147  0.70152  1.0000
  O   O2        1.0  0.97643  0.16884  0.79858  1.0000
  O   O3        1.0  0.19227  0.16854  0.29848  1.0000
  O   O4        1.0  0.02358  0.83116  0.20142  1.0000
  O   O5        1.0  0.77930  0.05703  0.62677  1.0000
  O   O6        1.0  0.72254  0.94336  0.87328  1.0000
  O   O7        1.0  0.22071  0.94297  0.37323  1.0000
  O   O8        1.0  0.27747  0.05664  0.12672  1.0000
  O   O9        1.0  0.44019  0.83687  0.71627  1.0000
  O   O10       1.0  0.60341  0.16352  0.78388  1.0000
  O   O11       1.0  0.55981  0.16313  0.28373  1.0000
  O   O12       1.0  0.39659  0.83647  0.21612  1.0000
  O   O13       1.0  0.87221  0.65814  0.61032  1.0000
  O   O14       1.0  0.21468  0.34172  0.88958  1.0000
  O   O15       1.0  0.12780  0.34187  0.38968  1.0000
  O   O16       1.0  0.78531  0.65828  0.11042  1.0000
