data_image0
_chemical_formula_structural       Co2H32C46N8O10
_chemical_formula_sum              "Co2 H32 C46 N8 O10"
_cell_length_a       9.43419
_cell_length_b       10.5631
_cell_length_c       12.2012
_cell_angle_alpha    107.835
_cell_angle_beta     103.758
_cell_angle_gamma    106.988

_space_group_name_H-M_alt    "P 1"
_space_group_IT_number       1

loop_
  _space_group_symop_operation_xyz
  'x, y, z'

loop_
  _atom_site_type_symbol
  _atom_site_label
  _atom_site_symmetry_multiplicity
  _atom_site_fract_x
  _atom_site_fract_y
  _atom_site_fract_z
  _atom_site_occupancy
  Co  Co1       1.0  0.58379  0.33201  0.13628  1.0000
  Co  Co2       1.0  0.41620  0.66798  0.86372  1.0000
  H   H1        1.0  0.09967  0.50572  0.13453  1.0000
  H   H2        1.0  0.90034  0.49430  0.86548  1.0000
  H   H3        1.0  0.27617  0.47020  0.01631  1.0000
  H   H4        1.0  0.72384  0.52981  0.98369  1.0000
  H   H5        1.0  0.32593  0.28358  0.25541  1.0000
  H   H6        1.0  0.67406  0.71642  0.74458  1.0000
  H   H7        1.0  0.18705  0.02032  0.27000  1.0000
  H   H8        1.0  0.81295  0.97968  0.73000  1.0000
  H   H9        1.0  0.56496  0.01544  0.14022  1.0000
  H   H10       1.0  0.43504  0.98456  0.85978  1.0000
  H   H11       1.0  0.43354  0.80269  0.17872  1.0000
  H   H12       1.0  0.56646  0.19731  0.82129  1.0000
  H   H13       1.0  0.23123  0.75681  0.10422  1.0000
  H   H14       1.0  0.76877  0.24319  0.89578  1.0000
  H   H15       1.0  0.04504  0.75996  0.21082  1.0000
  H   H16       1.0  0.95496  0.24004  0.78918  1.0000
  H   H17       1.0  0.96437  0.71926  0.37921  1.0000
  H   H18       1.0  0.03563  0.28074  0.62079  1.0000
  H   H19       1.0  0.16433  0.73150  0.56313  1.0000
  H   H20       1.0  0.83568  0.26849  0.43688  1.0000
  H   H21       1.0  0.44264  0.78528  0.57301  1.0000
  H   H22       1.0  0.55736  0.21471  0.42699  1.0000
  H   H23       1.0  0.61363  0.89673  0.35573  1.0000
  H   H24       1.0  0.38638  0.10327  0.64427  1.0000
  H   H25       1.0  0.65441  0.91698  0.51036  1.0000
  H   H26       1.0  0.34559  0.08301  0.48964  1.0000
  H   H27       1.0  0.76189  0.74390  0.56449  1.0000
  H   H28       1.0  0.23811  0.25609  0.43551  1.0000
  H   H29       1.0  0.49480  0.61472  0.18876  1.0000
  H   H30       1.0  0.50520  0.38528  0.81123  1.0000
  H   H31       1.0  0.76935  0.48476  0.42487  1.0000
  H   H32       1.0  0.23064  0.51523  0.57512  1.0000
  C   C1        1.0  0.31288  0.22931  0.90458  1.0000
  C   C2        1.0  0.68711  0.77069  0.09542  1.0000
  C   C3        1.0  0.88604  0.31111  0.17134  1.0000
  C   C4        1.0  0.11396  0.68890  0.82866  1.0000
  C   C5        1.0  0.99640  0.28156  0.10433  1.0000
  C   C6        1.0  0.00361  0.71846  0.89568  1.0000
  C   C7        1.0  0.10027  0.39863  0.09327  1.0000
  C   C8        1.0  0.89974  0.60138  0.90674  1.0000
  C   C9        1.0  0.20104  0.37913  0.02874  1.0000
  C   C10       1.0  0.79896  0.62088  0.97126  1.0000
  C   C11       1.0  0.20553  0.24274  0.97745  1.0000
  C   C12       1.0  0.79447  0.75726  0.02255  1.0000
  C   C13       1.0  0.10527  0.12509  0.99068  1.0000
  C   C14       1.0  0.89472  0.87492  0.00932  1.0000
  C   C15       1.0  0.99682  0.14336  0.05035  1.0000
  C   C16       1.0  0.00318  0.85666  0.94966  1.0000
  C   C17       1.0  0.12126  0.98423  0.94892  1.0000
  C   C18       1.0  0.87873  0.01578  0.05108  1.0000
  C   C19       1.0  0.35510  0.18905  0.23383  1.0000
  C   C20       1.0  0.64490  0.81095  0.76617  1.0000
  C   C21       1.0  0.28603  0.06025  0.24224  1.0000
  C   C22       1.0  0.71397  0.93974  0.75776  1.0000
  C   C23       1.0  0.48212  0.05427  0.17331  1.0000
  C   C24       1.0  0.51788  0.94573  0.82669  1.0000
  C   C25       1.0  0.33177  0.82676  0.19149  1.0000
  C   C26       1.0  0.66823  0.17324  0.80851  1.0000
  C   C27       1.0  0.29174  0.80166  0.29752  1.0000
  C   C28       1.0  0.70826  0.19834  0.70248  1.0000
  C   C29       1.0  0.13382  0.76823  0.29163  1.0000
  C   C30       1.0  0.86619  0.23177  0.70837  1.0000
  C   C31       1.0  0.08742  0.74421  0.38614  1.0000
  C   C32       1.0  0.91258  0.25579  0.61386  1.0000
  C   C33       1.0  0.19899  0.75063  0.48847  1.0000
  C   C34       1.0  0.80101  0.24935  0.51153  1.0000
  C   C35       1.0  0.35546  0.78204  0.49427  1.0000
  C   C36       1.0  0.64454  0.21794  0.50573  1.0000
  C   C37       1.0  0.40473  0.80944  0.40100  1.0000
  C   C38       1.0  0.59527  0.19056  0.59900  1.0000
  C   C39       1.0  0.57721  0.84387  0.41488  1.0000
  C   C40       1.0  0.42279  0.15613  0.58512  1.0000
  C   C41       1.0  0.70524  0.67654  0.46674  1.0000
  C   C42       1.0  0.29476  0.32345  0.53326  1.0000
  C   C43       1.0  0.56319  0.61012  0.27122  1.0000
  C   C44       1.0  0.43680  0.38988  0.72877  1.0000
  C   C45       1.0  0.70776  0.54822  0.39704  1.0000
  C   C46       1.0  0.29223  0.45177  0.60295  1.0000
  N   N1        1.0  0.47630  0.18364  0.18968  1.0000
  N   N2        1.0  0.52370  0.81636  0.81032  1.0000
  N   N3        1.0  0.36864  0.97726  0.20481  1.0000
  N   N4        1.0  0.63136  0.02274  0.79519  1.0000
  N   N5        1.0  0.61831  0.50799  0.27458  1.0000
  N   N6        1.0  0.38168  0.49201  0.72542  1.0000
  N   N7        1.0  0.61303  0.71377  0.38593  1.0000
  N   N8        1.0  0.38696  0.28622  0.61407  1.0000
  O   O1        1.0  0.46547  0.29509  0.96763  1.0000
  O   O2        1.0  0.53453  0.70491  0.03237  1.0000
  O   O3        1.0  0.25424  0.17009  0.79029  1.0000
  O   O4        1.0  0.74575  0.82992  0.20971  1.0000
  O   O5        1.0  0.76989  0.32695  0.10190  1.0000
  O   O6        1.0  0.23011  0.67306  0.89810  1.0000
  O   O7        1.0  0.91439  0.32620  0.27999  1.0000
  O   O8        1.0  0.08561  0.67380  0.72001  1.0000
  O   O9        1.0  0.23675  0.97532  0.92073  1.0000
  O   O10       1.0  0.76324  0.02469  0.07927  1.0000
