data_image0
_chemical_formula_structural       CuH36C46S2N8O6F6
_chemical_formula_sum              "Cu1 H36 C46 S2 N8 O6 F6"
_cell_length_a       9.11792
_cell_length_b       11.2312
_cell_length_c       12.1697
_cell_angle_alpha    114.022
_cell_angle_beta     104.877
_cell_angle_gamma    93.4965

_space_group_name_H-M_alt    "P 1"
_space_group_IT_number       1

loop_
  _space_group_symop_operation_xyz
  'x, y, z'

loop_
  _atom_site_type_symbol
  _atom_site_label
  _atom_site_symmetry_multiplicity
  _atom_site_fract_x
  _atom_site_fract_y
  _atom_site_fract_z
  _atom_site_occupancy
  Cu  Cu1       1.0  1.00000  0.50000  0.50000  1.0000
  H   H1        1.0  0.83083  0.72732  0.55266  1.0000
  H   H2        1.0  0.16917  0.27269  0.44735  1.0000
  H   H3        1.0  0.21646  0.74923  0.54516  1.0000
  H   H4        1.0  0.78354  0.25077  0.45484  1.0000
  H   H5        1.0  0.79705  0.38577  0.18813  1.0000
  H   H6        1.0  0.20295  0.61423  0.81187  1.0000
  H   H7        1.0  0.27338  0.52649  0.30578  1.0000
  H   H8        1.0  0.72663  0.47351  0.69422  1.0000
  H   H9        1.0  0.66917  0.23090  0.28610  1.0000
  H   H10       1.0  0.33084  0.76911  0.71390  1.0000
  H   H11       1.0  0.29737  0.92701  0.50034  1.0000
  H   H12       1.0  0.70263  0.07299  0.49965  1.0000
  H   H13       1.0  0.17434  0.94321  0.37060  1.0000
  H   H14       1.0  0.82566  0.05678  0.62939  1.0000
  H   H15       1.0  0.39047  0.13654  0.17923  1.0000
  H   H16       1.0  0.60954  0.86347  0.82077  1.0000
  H   H17       1.0  0.61726  0.84415  0.55481  1.0000
  H   H18       1.0  0.38274  0.15586  0.44519  1.0000
  H   H19       1.0  0.42910  0.75296  0.50020  1.0000
  H   H20       1.0  0.57090  0.24704  0.49981  1.0000
  H   H21       1.0  0.02146  0.76829  0.12721  1.0000
  H   H22       1.0  0.97853  0.23170  0.87279  1.0000
  H   H23       1.0  0.24645  0.93191  0.20315  1.0000
  H   H24       1.0  0.75355  0.06808  0.79685  1.0000
  H   H25       1.0  0.19453  0.28043  0.18872  1.0000
  H   H26       1.0  0.80547  0.71957  0.81128  1.0000
  H   H27       1.0  0.69888  0.73240  0.31155  1.0000
  H   H28       1.0  0.30112  0.26760  0.68845  1.0000
  H   H29       1.0  0.65725  0.79018  0.13308  1.0000
  H   H30       1.0  0.34275  0.20981  0.86692  1.0000
  H   H31       1.0  0.69354  0.40552  0.98660  1.0000
  H   H32       1.0  0.30645  0.59448  0.01340  1.0000
  H   H33       1.0  0.80231  0.59359  0.95766  1.0000
  H   H34       1.0  0.19768  0.40641  0.04234  1.0000
  H   H35       1.0  0.42930  0.89063  0.07731  1.0000
  H   H36       1.0  0.57070  0.10936  0.92269  1.0000
  C   C1        1.0  0.74531  0.63880  0.48781  1.0000
  C   C2        1.0  0.25470  0.36120  0.51219  1.0000
  C   C3        1.0  0.14335  0.70173  0.44791  1.0000
  C   C4        1.0  0.85665  0.29827  0.55208  1.0000
  C   C5        1.0  0.51539  0.51437  0.36869  1.0000
  C   C6        1.0  0.48461  0.48564  0.63131  1.0000
  C   C7        1.0  0.62912  0.43320  0.36698  1.0000
  C   C8        1.0  0.37088  0.56680  0.63302  1.0000
  C   C9        1.0  0.02843  0.67493  0.25345  1.0000
  C   C10       1.0  0.97156  0.32507  0.74655  1.0000
  C   C11       1.0  0.96443  0.56900  0.27251  1.0000
  C   C12       1.0  0.03556  0.43100  0.72749  1.0000
  C   C13       1.0  0.84404  0.46914  0.17568  1.0000
  C   C14       1.0  0.15595  0.53086  0.82433  1.0000
  C   C15       1.0  0.35885  0.46282  0.30372  1.0000
  C   C16       1.0  0.64115  0.53718  0.69628  1.0000
  C   C17       1.0  0.58444  0.29542  0.29518  1.0000
  C   C18       1.0  0.41557  0.70458  0.70482  1.0000
  C   C19       1.0  0.36623  0.85332  0.32770  1.0000
  C   C20       1.0  0.63376  0.14667  0.67230  1.0000
  C   C21       1.0  0.49588  0.79761  0.35936  1.0000
  C   C22       1.0  0.50412  0.20239  0.64064  1.0000
  C   C23       1.0  0.24612  0.87814  0.39697  1.0000
  C   C24       1.0  0.75387  0.12186  0.60302  1.0000
  C   C25       1.0  0.42763  0.24361  0.23266  1.0000
  C   C26       1.0  0.57237  0.75639  0.76734  1.0000
  C   C27       1.0  0.53116  0.76468  0.47146  1.0000
  C   C28       1.0  0.46884  0.23532  0.52854  1.0000
  C   C29       1.0  0.97300  0.68621  0.14066  1.0000
  C   C30       1.0  0.02700  0.31379  0.85934  1.0000
  C   C31       1.0  0.34528  0.88687  0.22629  1.0000
  C   C32       1.0  0.65472  0.11312  0.77370  1.0000
  C   C33       1.0  0.31614  0.32540  0.23726  1.0000
  C   C34       1.0  0.68386  0.67460  0.76275  1.0000
  C   C35       1.0  0.59843  0.77562  0.28791  1.0000
  C   C36       1.0  0.40157  0.22439  0.71209  1.0000
  C   C37       1.0  0.17248  0.97174  0.90522  1.0000
  C   C38       1.0  0.82753  0.02827  0.09479  1.0000
  C   C39       1.0  0.57527  0.80806  0.18659  1.0000
  C   C40       1.0  0.42473  0.19194  0.81341  1.0000
  C   C41       1.0  0.78805  0.48100  0.06348  1.0000
  C   C42       1.0  0.21194  0.51900  0.93652  1.0000
  C   C43       1.0  0.85067  0.58790  0.04668  1.0000
  C   C44       1.0  0.14932  0.41210  0.95332  1.0000
  C   C45       1.0  0.44828  0.86446  0.15599  1.0000
  C   C46       1.0  0.55172  0.13554  0.84401  1.0000
  S   S1        1.0  0.05938  0.88916  0.73412  1.0000
  S   S2        1.0  0.94062  0.11085  0.26588  1.0000
  N   N1        1.0  0.59418  0.64369  0.44635  1.0000
  N   N2        1.0  0.40582  0.35631  0.55366  1.0000
  N   N3        1.0  0.77249  0.51574  0.44364  1.0000
  N   N4        1.0  0.22752  0.48426  0.55637  1.0000
  N   N5        1.0  0.04031  0.58989  0.39623  1.0000
  N   N6        1.0  0.95968  0.41011  0.60377  1.0000
  N   N7        1.0  0.14280  0.75606  0.36681  1.0000
  N   N8        1.0  0.85720  0.24394  0.63318  1.0000
  O   O1        1.0  0.06656  0.74887  0.70016  1.0000
  O   O2        1.0  0.93345  0.25113  0.29985  1.0000
  O   O3        1.0  0.90575  0.92039  0.73191  1.0000
  O   O4        1.0  0.09425  0.07962  0.26810  1.0000
  O   O5        1.0  0.14323  0.94983  0.67735  1.0000
  O   O6        1.0  0.85676  0.05017  0.32265  1.0000
  F   F1        1.0  0.16448  0.10246  0.95712  1.0000
  F   F2        1.0  0.83553  0.89754  0.04288  1.0000
  F   F3        1.0  0.32451  0.96293  0.92136  1.0000
  F   F4        1.0  0.67550  0.03708  0.07863  1.0000
  F   F5        1.0  0.12081  0.91513  0.97103  1.0000
  F   F6        1.0  0.87921  0.08487  0.02897  1.0000
