data_image0
_chemical_formula_structural       Np2H44C44N4O20
_chemical_formula_sum              "Np2 H44 C44 N4 O20"
_cell_length_a       9.58952
_cell_length_b       9.58948
_cell_length_c       13.3429
_cell_angle_alpha    80.7393
_cell_angle_beta     80.739
_cell_angle_gamma    73.8257

_space_group_name_H-M_alt    "P 1"
_space_group_IT_number       1

loop_
  _space_group_symop_operation_xyz
  'x, y, z'

loop_
  _atom_site_type_symbol
  _atom_site_label
  _atom_site_symmetry_multiplicity
  _atom_site_fract_x
  _atom_site_fract_y
  _atom_site_fract_z
  _atom_site_occupancy
  Np  Np1       1.0  0.62950  0.37051  0.25000  1.0000
  Np  Np2       1.0  0.37048  0.62952  0.75000  1.0000
  H   H1        1.0  0.98794  0.94961  0.09998  1.0000
  H   H2        1.0  0.05039  0.01205  0.40003  1.0000
  H   H3        1.0  0.01204  0.05042  0.90002  1.0000
  H   H4        1.0  0.94958  0.98796  0.59998  1.0000
  H   H5        1.0  0.20165  0.72761  0.10171  1.0000
  H   H6        1.0  0.27239  0.79835  0.39829  1.0000
  H   H7        1.0  0.79834  0.27242  0.89829  1.0000
  H   H8        1.0  0.72758  0.20166  0.60172  1.0000
  H   H9        1.0  0.76099  0.45447  0.57691  1.0000
  H   H10       1.0  0.54553  0.23901  0.92308  1.0000
  H   H11       1.0  0.23902  0.54552  0.42308  1.0000
  H   H12       1.0  0.45448  0.76098  0.07692  1.0000
  H   H13       1.0  0.92767  0.50207  0.68774  1.0000
  H   H14       1.0  0.49793  0.07233  0.81226  1.0000
  H   H15       1.0  0.07234  0.49791  0.31225  1.0000
  H   H16       1.0  0.50209  0.92766  0.18775  1.0000
  H   H17       1.0  0.49552  0.32507  0.52557  1.0000
  H   H18       1.0  0.67493  0.50448  0.97442  1.0000
  H   H19       1.0  0.50450  0.67491  0.47443  1.0000
  H   H20       1.0  0.32509  0.49550  0.02557  1.0000
  H   H21       1.0  0.34187  0.10854  0.39546  1.0000
  H   H22       1.0  0.89146  0.65813  0.10454  1.0000
  H   H23       1.0  0.65815  0.89145  0.60455  1.0000
  H   H24       1.0  0.10855  0.34185  0.89546  1.0000
  H   H25       1.0  0.17081  0.19765  0.46093  1.0000
  H   H26       1.0  0.80235  0.82919  0.03907  1.0000
  H   H27       1.0  0.82921  0.80233  0.53907  1.0000
  H   H28       1.0  0.19766  0.17079  0.96093  1.0000
  H   H29       1.0  0.26899  0.02143  0.51521  1.0000
  H   H30       1.0  0.97857  0.73101  0.98479  1.0000
  H   H31       1.0  0.73102  0.97855  0.48480  1.0000
  H   H32       1.0  0.02145  0.26898  0.01521  1.0000
  H   H33       1.0  0.36352  0.05671  0.66819  1.0000
  H   H34       1.0  0.94329  0.63648  0.83180  1.0000
  H   H35       1.0  0.63649  0.94327  0.33182  1.0000
  H   H36       1.0  0.05673  0.36351  0.16819  1.0000
  H   H37       1.0  0.21350  0.21662  0.66370  1.0000
  H   H38       1.0  0.78338  0.78651  0.83629  1.0000
  H   H39       1.0  0.78651  0.78337  0.33630  1.0000
  H   H40       1.0  0.21663  0.21348  0.16370  1.0000
  H   H41       1.0  0.39305  0.23379  0.66917  1.0000
  H   H42       1.0  0.76622  0.60696  0.83082  1.0000
  H   H43       1.0  0.60697  0.76620  0.33084  1.0000
  H   H44       1.0  0.23380  0.39303  0.16917  1.0000
  C   C1        1.0  0.87799  0.12200  0.25000  1.0000
  C   C2        1.0  0.12198  0.87802  0.75000  1.0000
  C   C3        1.0  0.00724  0.99275  0.25001  1.0000
  C   C4        1.0  0.99273  0.00727  0.75000  1.0000
  C   C5        1.0  0.04980  0.91379  0.16545  1.0000
  C   C6        1.0  0.08621  0.95020  0.33456  1.0000
  C   C7        1.0  0.95018  0.08624  0.83455  1.0000
  C   C8        1.0  0.91376  0.04982  0.66545  1.0000
  C   C9        1.0  0.16830  0.79085  0.16650  1.0000
  C   C10       1.0  0.20914  0.83170  0.33351  1.0000
  C   C11       1.0  0.83168  0.20917  0.83350  1.0000
  C   C12       1.0  0.79083  0.16831  0.66650  1.0000
  C   C13       1.0  0.24952  0.75048  0.25000  1.0000
  C   C14       1.0  0.75046  0.24954  0.75000  1.0000
  C   C15       1.0  0.37884  0.62117  0.25000  1.0000
  C   C16       1.0  0.62115  0.37885  0.75000  1.0000
  C   C17       1.0  0.80922  0.43962  0.37589  1.0000
  C   C18       1.0  0.56039  0.19077  0.12411  1.0000
  C   C19       1.0  0.19077  0.56039  0.62411  1.0000
  C   C20       1.0  0.43960  0.80923  0.87589  1.0000
  C   C21       1.0  0.90772  0.47210  0.43925  1.0000
  C   C22       1.0  0.52790  0.09228  0.06075  1.0000
  C   C23       1.0  0.09228  0.52789  0.56075  1.0000
  C   C24       1.0  0.47211  0.90772  0.93925  1.0000
  C   C25       1.0  0.86638  0.47378  0.54472  1.0000
  C   C26       1.0  0.52622  0.13362  0.95528  1.0000
  C   C27       1.0  0.13362  0.52620  0.45528  1.0000
  C   C28       1.0  0.47380  0.86637  0.04472  1.0000
  C   C29       1.0  0.95816  0.50110  0.60560  1.0000
  C   C30       1.0  0.49890  0.04184  0.89440  1.0000
  C   C31       1.0  0.04185  0.49889  0.39440  1.0000
  C   C32       1.0  0.50112  0.95815  0.10560  1.0000
  C   C33       1.0  0.44107  0.27787  0.47806  1.0000
  C   C34       1.0  0.72213  0.55893  0.02193  1.0000
  C   C35       1.0  0.55893  0.72213  0.52193  1.0000
  C   C36       1.0  0.27787  0.44107  0.97807  1.0000
  C   C37       1.0  0.28036  0.12540  0.47112  1.0000
  C   C38       1.0  0.87460  0.71964  0.02888  1.0000
  C   C39       1.0  0.71966  0.87459  0.52889  1.0000
  C   C40       1.0  0.12541  0.28034  0.97112  1.0000
  C   C41       1.0  0.33075  0.17335  0.63890  1.0000
  C   C42       1.0  0.82665  0.66926  0.86110  1.0000
  C   C43       1.0  0.66927  0.82663  0.36111  1.0000
  C   C44       1.0  0.17337  0.33073  0.13890  1.0000
  N   N1        1.0  0.35732  0.19289  0.52746  1.0000
  N   N2        1.0  0.80711  0.64268  0.97254  1.0000
  N   N3        1.0  0.64270  0.80709  0.47255  1.0000
  N   N4        1.0  0.19291  0.35730  0.02746  1.0000
  O   O1        1.0  0.84520  0.19922  0.16543  1.0000
  O   O2        1.0  0.80077  0.15480  0.33457  1.0000
  O   O3        1.0  0.15479  0.80080  0.83456  1.0000
  O   O4        1.0  0.19920  0.84521  0.66543  1.0000
  O   O5        1.0  0.47671  0.60742  0.30839  1.0000
  O   O6        1.0  0.39258  0.52330  0.19160  1.0000
  O   O7        1.0  0.52328  0.39261  0.69161  1.0000
  O   O8        1.0  0.60739  0.47672  0.80839  1.0000
  O   O9        1.0  0.84699  0.43702  0.27924  1.0000
  O   O10       1.0  0.56298  0.15301  0.22076  1.0000
  O   O11       1.0  0.15300  0.56298  0.72076  1.0000
  O   O12       1.0  0.43702  0.84700  0.77924  1.0000
  O   O13       1.0  0.68798  0.41387  0.41694  1.0000
  O   O14       1.0  0.58613  0.31202  0.08306  1.0000
  O   O15       1.0  0.31200  0.58615  0.58305  1.0000
  O   O16       1.0  0.41385  0.68799  0.91695  1.0000
  O   O17       1.0  0.45704  0.30338  0.38148  1.0000
  O   O18       1.0  0.69662  0.54296  0.11851  1.0000
  O   O19       1.0  0.54296  0.69662  0.61852  1.0000
  O   O20       1.0  0.30337  0.45704  0.88148  1.0000
