data_image0
_chemical_formula_structural       Li8H32C16O28
_chemical_formula_sum              "Li8 H32 C16 O28"
_cell_length_a       7.5467
_cell_length_b       8.5461
_cell_length_c       11.1187
_cell_angle_alpha    89.7041
_cell_angle_beta     90.0001
_cell_angle_gamma    90

_space_group_name_H-M_alt    "P 1"
_space_group_IT_number       1

loop_
  _space_group_symop_operation_xyz
  'x, y, z'

loop_
  _atom_site_type_symbol
  _atom_site_label
  _atom_site_symmetry_multiplicity
  _atom_site_fract_x
  _atom_site_fract_y
  _atom_site_fract_z
  _atom_site_occupancy
  Li  Li1       1.0  0.86330  0.87333  0.01815  1.0000
  Li  Li2       1.0  0.36330  0.12667  0.48185  1.0000
  Li  Li3       1.0  0.13670  0.12668  0.98185  1.0000
  Li  Li4       1.0  0.63670  0.87333  0.51815  1.0000
  Li  Li5       1.0  0.53907  0.39215  0.28966  1.0000
  Li  Li6       1.0  0.03907  0.60785  0.21034  1.0000
  Li  Li7       1.0  0.46093  0.60785  0.71034  1.0000
  Li  Li8       1.0  0.96093  0.39215  0.78966  1.0000
  H   H1        1.0  0.83558  0.31037  0.06952  1.0000
  H   H2        1.0  0.33558  0.68963  0.43048  1.0000
  H   H3        1.0  0.16442  0.68963  0.93048  1.0000
  H   H4        1.0  0.66441  0.31037  0.56952  1.0000
  H   H5        1.0  0.85139  0.13587  0.87738  1.0000
  H   H6        1.0  0.35139  0.86413  0.62262  1.0000
  H   H7        1.0  0.14861  0.86413  0.12262  1.0000
  H   H8        1.0  0.64861  0.13587  0.37738  1.0000
  H   H9        1.0  0.53698  0.16525  0.92109  1.0000
  H   H10       1.0  0.03698  0.83476  0.57891  1.0000
  H   H11       1.0  0.46302  0.83476  0.07891  1.0000
  H   H12       1.0  0.96302  0.16524  0.42109  1.0000
  H   H13       1.0  0.48993  0.29137  0.04036  1.0000
  H   H14       1.0  0.98992  0.70864  0.45964  1.0000
  H   H15       1.0  0.51008  0.70864  0.95964  1.0000
  H   H16       1.0  0.01007  0.29136  0.54036  1.0000
  H   H17       1.0  0.78795  0.86066  0.78546  1.0000
  H   H18       1.0  0.28795  0.13934  0.71454  1.0000
  H   H19       1.0  0.21205  0.13934  0.21454  1.0000
  H   H20       1.0  0.71205  0.86066  0.28546  1.0000
  H   H21       1.0  0.78846  0.68747  0.84362  1.0000
  H   H22       1.0  0.28846  0.31253  0.65638  1.0000
  H   H23       1.0  0.21154  0.31253  0.15638  1.0000
  H   H24       1.0  0.71154  0.68747  0.34362  1.0000
  H   H25       1.0  0.71806  0.62009  0.13190  1.0000
  H   H26       1.0  0.21806  0.37991  0.36811  1.0000
  H   H27       1.0  0.28194  0.37991  0.86811  1.0000
  H   H28       1.0  0.78194  0.62009  0.63189  1.0000
  H   H29       1.0  0.83813  0.57178  0.02595  1.0000
  H   H30       1.0  0.33813  0.42822  0.47406  1.0000
  H   H31       1.0  0.16187  0.42823  0.97406  1.0000
  H   H32       1.0  0.66187  0.57178  0.52594  1.0000
  C   C1        1.0  0.71219  0.11655  0.15490  1.0000
  C   C2        1.0  0.21218  0.88343  0.34510  1.0000
  C   C3        1.0  0.28782  0.88343  0.84510  1.0000
  C   C4        1.0  0.78781  0.11655  0.65490  1.0000
  C   C5        1.0  0.75973  0.20724  0.03984  1.0000
  C   C6        1.0  0.25973  0.79276  0.46016  1.0000
  C   C7        1.0  0.24027  0.79275  0.96016  1.0000
  C   C8        1.0  0.74027  0.20724  0.53984  1.0000
  C   C9        1.0  0.59298  0.26150  0.97442  1.0000
  C   C10       1.0  0.09298  0.73850  0.52558  1.0000
  C   C11       1.0  0.40702  0.73850  0.02558  1.0000
  C   C12       1.0  0.90702  0.26150  0.47442  1.0000
  C   C13       1.0  0.61700  0.40273  0.89234  1.0000
  C   C14       1.0  0.11701  0.59727  0.60766  1.0000
  C   C15       1.0  0.38299  0.59727  0.10766  1.0000
  C   C16       1.0  0.88300  0.40273  0.39234  1.0000
  O   O1        1.0  0.64725  0.19695  0.24051  1.0000
  O   O2        1.0  0.14726  0.80305  0.25949  1.0000
  O   O3        1.0  0.35274  0.80305  0.75949  1.0000
  O   O4        1.0  0.85275  0.19695  0.74051  1.0000
  O   O5        1.0  0.74140  0.97090  0.15797  1.0000
  O   O6        1.0  0.24140  0.02911  0.34202  1.0000
  O   O7        1.0  0.25860  0.02911  0.84202  1.0000
  O   O8        1.0  0.75860  0.97089  0.65797  1.0000
  O   O9        1.0  0.86943  0.11111  0.96563  1.0000
  O   O10       1.0  0.36943  0.88889  0.53437  1.0000
  O   O11       1.0  0.13057  0.88889  0.03437  1.0000
  O   O12       1.0  0.63057  0.11111  0.46563  1.0000
  O   O13       1.0  0.76543  0.47503  0.88988  1.0000
  O   O14       1.0  0.26542  0.52498  0.61012  1.0000
  O   O15       1.0  0.23458  0.52497  0.11012  1.0000
  O   O16       1.0  0.73458  0.47503  0.38988  1.0000
  O   O17       1.0  0.48388  0.44508  0.83025  1.0000
  O   O18       1.0  0.98388  0.55492  0.66975  1.0000
  O   O19       1.0  0.51612  0.55492  0.16975  1.0000
  O   O20       1.0  0.01612  0.44508  0.33025  1.0000
  O   O21       1.0  0.80098  0.79930  0.86142  1.0000
  O   O22       1.0  0.30099  0.20071  0.63858  1.0000
  O   O23       1.0  0.19902  0.20071  0.13858  1.0000
  O   O24       1.0  0.69902  0.79930  0.36142  1.0000
  O   O25       1.0  0.84031  0.63812  0.09859  1.0000
  O   O26       1.0  0.34031  0.36188  0.40141  1.0000
  O   O27       1.0  0.15969  0.36189  0.90141  1.0000
  O   O28       1.0  0.65969  0.63812  0.59859  1.0000
