data_image0
_chemical_formula_structural       Cd4H32C16O28
_chemical_formula_sum              "Cd4 H32 C16 O28"
_cell_length_a       7.25402
_cell_length_b       10.2446
_cell_length_c       10.8446
_cell_angle_alpha    96.341
_cell_angle_beta     90.0012
_cell_angle_gamma    89.9989

_space_group_name_H-M_alt    "P 1"
_space_group_IT_number       1

loop_
  _space_group_symop_operation_xyz
  'x, y, z'

loop_
  _atom_site_type_symbol
  _atom_site_label
  _atom_site_symmetry_multiplicity
  _atom_site_fract_x
  _atom_site_fract_y
  _atom_site_fract_z
  _atom_site_occupancy
  Cd  Cd1       1.0  0.82175  0.62015  0.80127  1.0000
  Cd  Cd2       1.0  0.32177  0.87984  0.69874  1.0000
  Cd  Cd3       1.0  0.17825  0.37985  0.19873  1.0000
  Cd  Cd4       1.0  0.67823  0.12015  0.30126  1.0000
  H   H1        1.0  0.80855  0.24941  0.89802  1.0000
  H   H2        1.0  0.30853  0.25058  0.60197  1.0000
  H   H3        1.0  0.19146  0.75058  0.10198  1.0000
  H   H4        1.0  0.69146  0.74942  0.39803  1.0000
  H   H5        1.0  0.80990  0.44820  0.03373  1.0000
  H   H6        1.0  0.30989  0.05180  0.46626  1.0000
  H   H7        1.0  0.19011  0.55180  0.96627  1.0000
  H   H8        1.0  0.69011  0.94820  0.53374  1.0000
  H   H9        1.0  0.46235  0.20555  0.90589  1.0000
  H   H10       1.0  0.96234  0.29446  0.59409  1.0000
  H   H11       1.0  0.53765  0.79445  0.09411  1.0000
  H   H12       1.0  0.03766  0.70555  0.40591  1.0000
  H   H13       1.0  0.43296  0.37184  0.96907  1.0000
  H   H14       1.0  0.93294  0.12816  0.53091  1.0000
  H   H15       1.0  0.56705  0.62816  0.03093  1.0000
  H   H16       1.0  0.06705  0.87184  0.46909  1.0000
  H   H17       1.0  0.13150  0.42597  0.79116  1.0000
  H   H18       1.0  0.63149  0.07403  0.70884  1.0000
  H   H19       1.0  0.86851  0.57403  0.20884  1.0000
  H   H20       1.0  0.36851  0.92597  0.29116  1.0000
  H   H21       1.0  0.21372  0.55908  0.74446  1.0000
  H   H22       1.0  0.71374  0.94093  0.75554  1.0000
  H   H23       1.0  0.78628  0.44092  0.25553  1.0000
  H   H24       1.0  0.28626  0.05907  0.24446  1.0000
  H   H25       1.0  0.90226  0.76198  0.03861  1.0000
  H   H26       1.0  0.40226  0.73802  0.46140  1.0000
  H   H27       1.0  0.09775  0.23802  0.96139  1.0000
  H   H28       1.0  0.59774  0.26197  0.53860  1.0000
  H   H29       1.0  0.04852  0.80178  0.93760  1.0000
  H   H30       1.0  0.54853  0.69821  0.56241  1.0000
  H   H31       1.0  0.95148  0.19821  0.06240  1.0000
  H   H32       1.0  0.45146  0.30179  0.43759  1.0000
  C   C1        1.0  0.67114  0.33096  0.75387  1.0000
  C   C2        1.0  0.17114  0.16905  0.74612  1.0000
  C   C3        1.0  0.32886  0.66906  0.24613  1.0000
  C   C4        1.0  0.82885  0.83095  0.25388  1.0000
  C   C5        1.0  0.70425  0.32660  0.89251  1.0000
  C   C6        1.0  0.20424  0.17340  0.60748  1.0000
  C   C7        1.0  0.29576  0.67340  0.10748  1.0000
  C   C8        1.0  0.79576  0.82660  0.39252  1.0000
  C   C9        1.0  0.53036  0.28948  0.95977  1.0000
  C   C10       1.0  0.03035  0.21052  0.54021  1.0000
  C   C11       1.0  0.46964  0.71052  0.04023  1.0000
  C   C12       1.0  0.96965  0.78948  0.45979  1.0000
  C   C13       1.0  0.57228  0.24537  0.08555  1.0000
  C   C14       1.0  0.07226  0.25463  0.41444  1.0000
  C   C15       1.0  0.42773  0.75463  0.91445  1.0000
  C   C16       1.0  0.92773  0.74537  0.58556  1.0000
  O   O1        1.0  0.69870  0.43494  0.70437  1.0000
  O   O2        1.0  0.19871  0.06507  0.79562  1.0000
  O   O3        1.0  0.30130  0.56505  0.29563  1.0000
  O   O4        1.0  0.80129  0.93494  0.20438  1.0000
  O   O5        1.0  0.61797  0.22470  0.69100  1.0000
  O   O6        1.0  0.11796  0.27531  0.80900  1.0000
  O   O7        1.0  0.38203  0.77529  0.30900  1.0000
  O   O8        1.0  0.88203  0.72470  0.19101  1.0000
  O   O9        1.0  0.77585  0.45066  0.94513  1.0000
  O   O10       1.0  0.27584  0.04934  0.55486  1.0000
  O   O11       1.0  0.22416  0.54934  0.05487  1.0000
  O   O12       1.0  0.72415  0.95066  0.44514  1.0000
  O   O13       1.0  0.71666  0.17699  0.09776  1.0000
  O   O14       1.0  0.21664  0.32300  0.40222  1.0000
  O   O15       1.0  0.28334  0.82301  0.90224  1.0000
  O   O16       1.0  0.78336  0.67700  0.59778  1.0000
  O   O17       1.0  0.46226  0.27279  0.17635  1.0000
  O   O18       1.0  0.96222  0.22720  0.32363  1.0000
  O   O19       1.0  0.53775  0.72720  0.82364  1.0000
  O   O20       1.0  0.03777  0.77280  0.67638  1.0000
  O   O21       1.0  0.13215  0.52586  0.80531  1.0000
  O   O22       1.0  0.63215  0.97414  0.69469  1.0000
  O   O23       1.0  0.86785  0.47414  0.19469  1.0000
  O   O24       1.0  0.36785  0.02586  0.30530  1.0000
  O   O25       1.0  0.91828  0.77638  0.94953  1.0000
  O   O26       1.0  0.41828  0.72362  0.55048  1.0000
  O   O27       1.0  0.08172  0.22362  0.05047  1.0000
  O   O28       1.0  0.58172  0.27638  0.44952  1.0000
