data_image0
_chemical_formula_structural       Sr2H18C8O15
_chemical_formula_sum              "Sr2 H18 C8 O15"
_cell_length_a       6.43736
_cell_length_b       7.81477
_cell_length_c       8.92157
_cell_angle_alpha    72.882
_cell_angle_beta     75.1664
_cell_angle_gamma    86.2397

_space_group_name_H-M_alt    "P 1"
_space_group_IT_number       1

loop_
  _space_group_symop_operation_xyz
  'x, y, z'

loop_
  _atom_site_type_symbol
  _atom_site_label
  _atom_site_symmetry_multiplicity
  _atom_site_fract_x
  _atom_site_fract_y
  _atom_site_fract_z
  _atom_site_occupancy
  Sr  Sr1       1.0  0.20568  0.11837  0.58862  1.0000
  Sr  Sr2       1.0  0.16518  0.46117  0.10484  1.0000
  H   H1        1.0  0.79210  0.65045  0.73743  1.0000
  H   H2        1.0  0.97451  0.76747  0.36810  1.0000
  H   H3        1.0  0.73563  0.63793  0.47377  1.0000
  H   H4        1.0  0.42270  0.81430  0.30390  1.0000
  H   H5        1.0  0.66938  0.92768  0.19656  1.0000
  H   H6        1.0  0.58522  0.93134  0.93347  1.0000
  H   H7        1.0  0.60929  0.22056  0.66864  1.0000
  H   H8        1.0  0.43919  0.20830  0.83579  1.0000
  H   H9        1.0  0.97700  0.10905  0.94843  1.0000
  H   H10       1.0  0.94732  0.90030  0.95446  1.0000
  H   H11       1.0  0.14909  0.69344  0.68954  1.0000
  H   H12       1.0  0.22743  0.89318  0.99346  1.0000
  H   H13       1.0  0.67100  0.35000  0.26565  1.0000
  H   H14       1.0  0.78054  0.22949  0.40406  1.0000
  H   H15       1.0  0.93141  0.36778  0.84452  1.0000
  H   H16       1.0  0.77495  0.37218  0.01141  1.0000
  H   H17       1.0  0.39244  0.47162  0.73530  1.0000
  H   H18       1.0  0.42801  0.67741  0.72590  1.0000
  C   C1        1.0  0.72578  0.91546  0.60693  1.0000
  C   C2        1.0  0.87030  0.75134  0.62434  1.0000
  C   C3        1.0  0.89456  0.67140  0.48305  1.0000
  C   C4        1.0  0.02199  0.49844  0.51015  1.0000
  C   C5        1.0  0.39368  0.08832  0.16991  1.0000
  C   C6        1.0  0.50516  0.90826  0.18826  1.0000
  C   C7        1.0  0.51142  0.83078  0.04832  1.0000
  C   C8        1.0  0.65522  0.66609  0.05773  1.0000
  O   O1        1.0  0.46257  0.25648  0.71512  1.0000
  O   O2        1.0  0.04154  0.01034  0.90197  1.0000
  O   O3        1.0  0.81185  0.06891  0.57553  1.0000
  O   O4        1.0  0.52742  0.88969  0.62465  1.0000
  O   O5        1.0  0.07437  0.80053  0.63321  1.0000
  O   O6        1.0  0.32996  0.14402  0.29437  1.0000
  O   O7        1.0  0.36763  0.17985  0.03216  1.0000
  O   O8        1.0  0.85404  0.69284  0.04036  1.0000
  O   O9        1.0  0.57116  0.51472  0.08084  1.0000
  O   O10       1.0  0.30197  0.78517  0.04750  1.0000
  O   O11       1.0  0.16359  0.46685  0.39380  1.0000
  O   O12       1.0  0.97864  0.38711  0.65174  1.0000
  O   O13       1.0  0.80029  0.33369  0.30660  1.0000
  O   O14       1.0  0.91442  0.32281  0.96423  1.0000
  O   O15       1.0  0.32861  0.57177  0.77928  1.0000
