data_image0
_chemical_formula_structural       Cd6H52C24N8Cl16
_chemical_formula_sum              "Cd6 H52 C24 N8 Cl16"
_cell_length_a       6.59339
_cell_length_b       8.64884
_cell_length_c       21.1329
_cell_angle_alpha    90.0002
_cell_angle_beta     89.9997
_cell_angle_gamma    94.1077

_space_group_name_H-M_alt    "P 1"
_space_group_IT_number       1

loop_
  _space_group_symop_operation_xyz
  'x, y, z'

loop_
  _atom_site_type_symbol
  _atom_site_label
  _atom_site_symmetry_multiplicity
  _atom_site_fract_x
  _atom_site_fract_y
  _atom_site_fract_z
  _atom_site_occupancy
  Cd  Cd1       1.0  0.99679  0.60203  0.40620  1.0000
  Cd  Cd2       1.0  0.00321  0.89796  0.90620  1.0000
  Cd  Cd3       1.0  0.00321  0.39797  0.59380  1.0000
  Cd  Cd4       1.0  0.99678  0.10203  0.09380  1.0000
  Cd  Cd5       1.0  0.50000  0.50000  0.50000  1.0000
  Cd  Cd6       1.0  0.49999  1.00000  0.00000  1.0000
  H   H1        1.0  0.20698  0.76999  0.28476  1.0000
  H   H2        1.0  0.79302  0.73001  0.78476  1.0000
  H   H3        1.0  0.79302  0.23001  0.71524  1.0000
  H   H4        1.0  0.20698  0.26999  0.21524  1.0000
  H   H5        1.0  0.42364  0.78023  0.33533  1.0000
  H   H6        1.0  0.57636  0.71977  0.83533  1.0000
  H   H7        1.0  0.57636  0.21978  0.66466  1.0000
  H   H8        1.0  0.42363  0.28022  0.16466  1.0000
  H   H9        1.0  0.37382  0.84864  0.44835  1.0000
  H   H10       1.0  0.62617  0.65136  0.94835  1.0000
  H   H11       1.0  0.62618  0.15136  0.55165  1.0000
  H   H12       1.0  0.37382  0.34864  0.05165  1.0000
  H   H13       1.0  0.17246  0.96945  0.46361  1.0000
  H   H14       1.0  0.82754  0.53054  0.96361  1.0000
  H   H15       1.0  0.82755  0.03055  0.53638  1.0000
  H   H16       1.0  0.17245  0.46945  0.03639  1.0000
  H   H17       1.0  0.88297  0.96111  0.39362  1.0000
  H   H18       1.0  0.11703  0.53890  0.89362  1.0000
  H   H19       1.0  0.11703  0.03890  0.60638  1.0000
  H   H20       1.0  0.88297  0.46111  0.10639  1.0000
  H   H21       1.0  0.92967  0.92248  0.31220  1.0000
  H   H22       1.0  0.07033  0.57753  0.81220  1.0000
  H   H23       1.0  0.07033  0.07753  0.68780  1.0000
  H   H24       1.0  0.92967  0.42247  0.18780  1.0000
  H   H25       1.0  0.41749  0.17075  0.43449  1.0000
  H   H26       1.0  0.58250  0.32925  0.93449  1.0000
  H   H27       1.0  0.58252  0.82925  0.56551  1.0000
  H   H28       1.0  0.41749  0.67075  0.06551  1.0000
  H   H29       1.0  0.56792  0.04166  0.39192  1.0000
  H   H30       1.0  0.43208  0.45834  0.89192  1.0000
  H   H31       1.0  0.43209  0.95834  0.60807  1.0000
  H   H32       1.0  0.56792  0.54166  0.10807  1.0000
  H   H33       1.0  0.51928  0.01431  0.27720  1.0000
  H   H34       1.0  0.48073  0.48569  0.77720  1.0000
  H   H35       1.0  0.48071  0.98570  0.72280  1.0000
  H   H36       1.0  0.51929  0.51430  0.22280  1.0000
  H   H37       1.0  0.26477  0.02834  0.24972  1.0000
  H   H38       1.0  0.73524  0.47166  0.74972  1.0000
  H   H39       1.0  0.73523  0.97167  0.75028  1.0000
  H   H40       1.0  0.26477  0.52833  0.25028  1.0000
  H   H41       1.0  0.03713  0.18825  0.30727  1.0000
  H   H42       1.0  0.96289  0.31175  0.80727  1.0000
  H   H43       1.0  0.96287  0.81176  0.69273  1.0000
  H   H44       1.0  0.03713  0.68824  0.19274  1.0000
  H   H45       1.0  0.07529  0.20431  0.39083  1.0000
  H   H46       1.0  0.92472  0.29569  0.89083  1.0000
  H   H47       1.0  0.92472  0.79569  0.60918  1.0000
  H   H48       1.0  0.07528  0.70431  0.10918  1.0000
  H   H49       1.0  0.38417  0.23051  0.33012  1.0000
  H   H50       1.0  0.61584  0.26950  0.83012  1.0000
  H   H51       1.0  0.61583  0.76950  0.66988  1.0000
  H   H52       1.0  0.38417  0.73049  0.16988  1.0000
  C   C1        1.0  0.29301  0.84217  0.31966  1.0000
  C   C2        1.0  0.70698  0.65783  0.81966  1.0000
  C   C3        1.0  0.70698  0.15783  0.68034  1.0000
  C   C4        1.0  0.29302  0.34217  0.18034  1.0000
  C   C5        1.0  0.27840  0.93334  0.42735  1.0000
  C   C6        1.0  0.72159  0.56666  0.92735  1.0000
  C   C7        1.0  0.72160  0.06666  0.57265  1.0000
  C   C8        1.0  0.27839  0.43334  0.07265  1.0000
  C   C9        1.0  0.99961  0.96521  0.35659  1.0000
  C   C10       1.0  0.00039  0.53480  0.85659  1.0000
  C   C11       1.0  0.00040  0.03479  0.64341  1.0000
  C   C12       1.0  0.99961  0.46522  0.14341  1.0000
  C   C13       1.0  0.41263  0.07181  0.40222  1.0000
  C   C14       1.0  0.58737  0.42820  0.90222  1.0000
  C   C15       1.0  0.58738  0.92819  0.59778  1.0000
  C   C16       1.0  0.41263  0.57180  0.09778  1.0000
  C   C17       1.0  0.35812  0.00249  0.29082  1.0000
  C   C18       1.0  0.64190  0.49750  0.79081  1.0000
  C   C19       1.0  0.64188  0.99751  0.70918  1.0000
  C   C20       1.0  0.35811  0.50249  0.20918  1.0000
  C   C21       1.0  0.09538  0.13144  0.34925  1.0000
  C   C22       1.0  0.90463  0.36857  0.84925  1.0000
  C   C23       1.0  0.90462  0.86857  0.65076  1.0000
  C   C24       1.0  0.09538  0.63143  0.15076  1.0000
  N   N1        1.0  0.15736  0.85960  0.37494  1.0000
  N   N2        1.0  0.84263  0.64040  0.87494  1.0000
  N   N3        1.0  0.84263  0.14040  0.62506  1.0000
  N   N4        1.0  0.15736  0.35960  0.12506  1.0000
  N   N5        1.0  0.32113  0.12083  0.34090  1.0000
  N   N6        1.0  0.67887  0.37917  0.84090  1.0000
  N   N7        1.0  0.67886  0.87917  0.65910  1.0000
  N   N8        1.0  0.32114  0.62083  0.15910  1.0000
  Cl  Cl1       1.0  0.34047  0.47619  0.38416  1.0000
  Cl  Cl2       1.0  0.65953  0.02381  0.88416  1.0000
  Cl  Cl3       1.0  0.65954  0.52381  0.61584  1.0000
  Cl  Cl4       1.0  0.34046  0.97618  0.11584  1.0000
  Cl  Cl5       1.0  0.82039  0.35187  0.46600  1.0000
  Cl  Cl6       1.0  0.17960  0.14812  0.96600  1.0000
  Cl  Cl7       1.0  0.17961  0.64813  0.53400  1.0000
  Cl  Cl8       1.0  0.82039  0.85187  0.03400  1.0000
  Cl  Cl9       1.0  0.71522  0.75148  0.46163  1.0000
  Cl  Cl10      1.0  0.28477  0.74852  0.96164  1.0000
  Cl  Cl11      1.0  0.28478  0.24852  0.53836  1.0000
  Cl  Cl12      1.0  0.71522  0.25148  0.03836  1.0000
  Cl  Cl13      1.0  0.85180  0.56109  0.29678  1.0000
  Cl  Cl14      1.0  0.14820  0.93891  0.79678  1.0000
  Cl  Cl15      1.0  0.14819  0.43891  0.70322  1.0000
  Cl  Cl16      1.0  0.85180  0.06109  0.20322  1.0000
