data_image0
_chemical_formula_structural       Cd2H52C60S2N4O14
_chemical_formula_sum              "Cd2 H52 C60 S2 N4 O14"
_cell_length_a       7.934
_cell_length_b       12.1934
_cell_length_c       14.7401
_cell_angle_alpha    78.3505
_cell_angle_beta     81.7032
_cell_angle_gamma    74.3591

_space_group_name_H-M_alt    "P 1"
_space_group_IT_number       1

loop_
  _space_group_symop_operation_xyz
  'x, y, z'

loop_
  _atom_site_type_symbol
  _atom_site_label
  _atom_site_symmetry_multiplicity
  _atom_site_fract_x
  _atom_site_fract_y
  _atom_site_fract_z
  _atom_site_occupancy
  Cd  Cd1       1.0  0.27016  0.08521  0.00909  1.0000
  Cd  Cd2       1.0  0.72984  0.91479  0.99092  1.0000
  H   H1        1.0  0.35666  0.25322  0.13873  1.0000
  H   H2        1.0  0.64334  0.74678  0.86128  1.0000
  H   H3        1.0  0.14670  0.64143  0.83223  1.0000
  H   H4        1.0  0.85329  0.35857  0.16777  1.0000
  H   H5        1.0  0.06406  0.57011  0.70693  1.0000
  H   H6        1.0  0.93595  0.42989  0.29306  1.0000
  H   H7        1.0  0.07602  0.07544  0.82717  1.0000
  H   H8        1.0  0.92398  0.92457  0.17283  1.0000
  H   H9        1.0  0.47612  0.50073  0.14320  1.0000
  H   H10       1.0  0.52388  0.49927  0.85679  1.0000
  H   H11       1.0  0.38125  0.39477  0.21766  1.0000
  H   H12       1.0  0.61875  0.60523  0.78234  1.0000
  H   H13       1.0  0.25332  0.53831  0.18709  1.0000
  H   H14       1.0  0.74668  0.46170  0.81291  1.0000
  H   H15       1.0  0.26757  0.66323  0.05470  1.0000
  H   H16       1.0  0.73242  0.33677  0.94530  1.0000
  H   H17       1.0  0.11076  0.69519  0.97246  1.0000
  H   H18       1.0  0.88923  0.30481  0.02755  1.0000
  H   H19       1.0  0.33588  0.66886  0.93479  1.0000
  H   H20       1.0  0.66411  0.33114  0.06521  1.0000
  H   H21       1.0  0.02877  0.37090  0.56001  1.0000
  H   H22       1.0  0.97123  0.62910  0.43999  1.0000
  H   H23       1.0  0.09445  0.48332  0.59376  1.0000
  H   H24       1.0  0.90555  0.51668  0.40624  1.0000
  H   H25       1.0  0.87324  0.47389  0.61831  1.0000
  H   H26       1.0  0.12676  0.52612  0.38169  1.0000
  H   H27       1.0  0.86148  0.22295  0.63196  1.0000
  H   H28       1.0  0.13852  0.77705  0.36804  1.0000
  H   H29       1.0  0.99034  0.08690  0.68121  1.0000
  H   H30       1.0  0.00966  0.91310  0.31879  1.0000
  H   H31       1.0  0.08560  0.17771  0.59000  1.0000
  H   H32       1.0  0.91440  0.82229  0.41000  1.0000
  H   H33       1.0  0.71542  0.10823  0.19018  1.0000
  H   H34       1.0  0.28459  0.89177  0.80982  1.0000
  H   H35       1.0  0.45508  0.17283  0.30019  1.0000
  H   H36       1.0  0.54492  0.82717  0.69980  1.0000
  H   H37       1.0  0.78541  0.27180  0.46214  1.0000
  H   H38       1.0  0.21459  0.72819  0.53786  1.0000
  H   H39       1.0  0.04767  0.19899  0.35537  1.0000
  H   H40       1.0  0.95234  0.80100  0.64463  1.0000
  H   H41       1.0  0.43619  0.07756  0.57778  1.0000
  H   H42       1.0  0.56381  0.92244  0.42222  1.0000
  H   H43       1.0  0.50665  0.01929  0.74434  1.0000
  H   H44       1.0  0.49335  0.98071  0.25565  1.0000
  H   H45       1.0  0.56880  0.35821  0.74344  1.0000
  H   H46       1.0  0.43120  0.64178  0.25656  1.0000
  H   H47       1.0  0.49603  0.41978  0.57858  1.0000
  H   H48       1.0  0.50397  0.58022  0.42142  1.0000
  H   H49       1.0  0.13541  0.91480  0.93453  1.0000
  H   H50       1.0  0.86459  0.08520  0.06547  1.0000
  H   H51       1.0  0.26372  0.86466  0.01873  1.0000
  H   H52       1.0  0.73627  0.13534  0.98127  1.0000
  C   C1        1.0  0.31379  0.31854  0.07874  1.0000
  C   C2        1.0  0.68620  0.68147  0.92126  1.0000
  C   C3        1.0  0.30511  0.43579  0.07791  1.0000
  C   C4        1.0  0.69488  0.56421  0.92209  1.0000
  C   C5        1.0  0.25077  0.51596  0.99899  1.0000
  C   C6        1.0  0.74923  0.48404  0.00101  1.0000
  C   C7        1.0  0.20398  0.47510  0.92452  1.0000
  C   C8        1.0  0.79601  0.52490  0.07548  1.0000
  C   C9        1.0  0.15019  0.55021  0.84029  1.0000
  C   C10       1.0  0.84980  0.44978  0.15971  1.0000
  C   C11       1.0  0.10406  0.50995  0.76987  1.0000
  C   C12       1.0  0.89594  0.49005  0.23013  1.0000
  C   C13       1.0  0.10213  0.39135  0.77824  1.0000
  C   C14       1.0  0.89786  0.60865  0.22176  1.0000
  C   C15       1.0  0.05296  0.34700  0.70638  1.0000
  C   C16       1.0  0.94704  0.65300  0.29362  1.0000
  C   C17       1.0  0.04398  0.23166  0.72381  1.0000
  C   C18       1.0  0.95601  0.76834  0.27619  1.0000
  C   C19       1.0  0.08657  0.16476  0.81097  1.0000
  C   C20       1.0  0.91344  0.83524  0.18903  1.0000
  C   C21       1.0  0.15049  0.31481  0.86191  1.0000
  C   C22       1.0  0.84951  0.68519  0.13809  1.0000
  C   C23       1.0  0.20983  0.35598  0.93410  1.0000
  C   C24       1.0  0.79017  0.64402  0.06590  1.0000
  C   C25       1.0  0.35647  0.46882  0.16089  1.0000
  C   C26       1.0  0.64354  0.53118  0.83911  1.0000
  C   C27       1.0  0.24052  0.64162  0.99083  1.0000
  C   C28       1.0  0.75948  0.35838  0.00917  1.0000
  C   C29       1.0  0.01067  0.42249  0.61508  1.0000
  C   C30       1.0  0.98933  0.57751  0.38492  1.0000
  C   C31       1.0  0.99275  0.17677  0.65308  1.0000
  C   C32       1.0  0.00725  0.82323  0.34692  1.0000
  C   C33       1.0  0.05919  0.11864  0.19762  1.0000
  C   C34       1.0  0.94082  0.88135  0.80238  1.0000
  C   C35       1.0  0.89866  0.15048  0.26543  1.0000
  C   C36       1.0  0.10134  0.84951  0.73457  1.0000
  C   C37       1.0  0.73222  0.14207  0.25041  1.0000
  C   C38       1.0  0.26779  0.85793  0.74959  1.0000
  C   C39       1.0  0.58496  0.17957  0.31109  1.0000
  C   C40       1.0  0.41504  0.82044  0.68891  1.0000
  C   C41       1.0  0.60548  0.22816  0.38562  1.0000
  C   C42       1.0  0.39452  0.77184  0.61437  1.0000
  C   C43       1.0  0.77091  0.23495  0.40306  1.0000
  C   C44       1.0  0.22910  0.76505  0.59694  1.0000
  C   C45       1.0  0.91732  0.19456  0.34346  1.0000
  C   C46       1.0  0.08269  0.80544  0.65654  1.0000
  C   C47       1.0  0.46296  0.25167  0.56943  1.0000
  C   C48       1.0  0.53705  0.74834  0.43057  1.0000
  C   C49       1.0  0.46491  0.13872  0.61434  1.0000
  C   C50       1.0  0.53509  0.86128  0.38566  1.0000
  C   C51       1.0  0.50187  0.10641  0.70684  1.0000
  C   C52       1.0  0.49813  0.89359  0.29316  1.0000
  C   C53       1.0  0.53982  0.18544  0.75303  1.0000
  C   C54       1.0  0.46017  0.81457  0.24697  1.0000
  C   C55       1.0  0.53826  0.29792  0.70674  1.0000
  C   C56       1.0  0.46173  0.70208  0.29327  1.0000
  C   C57       1.0  0.49880  0.33213  0.61462  1.0000
  C   C58       1.0  0.50120  0.66787  0.38538  1.0000
  C   C59       1.0  0.58967  0.14786  0.85112  1.0000
  C   C60       1.0  0.41033  0.85214  0.14888  1.0000
  S   S1        1.0  0.41298  0.29487  0.45197  1.0000
  S   S2        1.0  0.58702  0.70514  0.54803  1.0000
  N   N1        1.0  0.26752  0.27946  0.01048  1.0000
  N   N2        1.0  0.73247  0.72053  0.98952  1.0000
  N   N3        1.0  0.14052  0.20327  0.87694  1.0000
  N   N4        1.0  0.85949  0.79672  0.12306  1.0000
  O   O1        1.0  0.03326  0.08993  0.12137  1.0000
  O   O2        1.0  0.96674  0.91006  0.87864  1.0000
  O   O3        1.0  0.20471  0.12404  0.21654  1.0000
  O   O4        1.0  0.79529  0.87596  0.78345  1.0000
  O   O5        1.0  0.27000  0.24742  0.43920  1.0000
  O   O6        1.0  0.73001  0.75259  0.56080  1.0000
  O   O7        1.0  0.39298  0.41927  0.42782  1.0000
  O   O8        1.0  0.60703  0.58073  0.57218  1.0000
  O   O9        1.0  0.53723  0.06037  0.90003  1.0000
  O   O10       1.0  0.46277  0.93963  0.09997  1.0000
  O   O11       1.0  0.68075  0.20261  0.87851  1.0000
  O   O12       1.0  0.31924  0.79738  0.12149  1.0000
  O   O13       1.0  0.24087  0.92225  0.95961  1.0000
  O   O14       1.0  0.75912  0.07775  0.04039  1.0000
