data_image0
_chemical_formula_structural       CdH10C16S2N6
_chemical_formula_sum              "Cd1 H10 C16 S2 N6"
_cell_length_a       5.82746
_cell_length_b       7.60896
_cell_length_c       9.18593
_cell_angle_alpha    89.3673
_cell_angle_beta     74.2874
_cell_angle_gamma    88.2941

_space_group_name_H-M_alt    "P 1"
_space_group_IT_number       1

loop_
  _space_group_symop_operation_xyz
  'x, y, z'

loop_
  _atom_site_type_symbol
  _atom_site_label
  _atom_site_symmetry_multiplicity
  _atom_site_fract_x
  _atom_site_fract_y
  _atom_site_fract_z
  _atom_site_occupancy
  Cd  Cd1       1.0  0.00001  0.00001  0.00000  1.0000
  H   H1        1.0  0.31426  0.77401  0.19218  1.0000
  H   H2        1.0  0.68574  0.22599  0.80782  1.0000
  H   H3        1.0  0.88468  0.71805  0.65468  1.0000
  H   H4        1.0  0.11532  0.28194  0.34531  1.0000
  H   H5        1.0  0.58250  0.90747  0.57700  1.0000
  H   H6        1.0  0.41750  0.09252  0.42299  1.0000
  H   H7        1.0  0.51606  0.55691  0.23074  1.0000
  H   H8        1.0  0.48394  0.44309  0.76926  1.0000
  H   H9        1.0  0.18279  0.63426  0.70883  1.0000
  H   H10       1.0  0.81721  0.36573  0.29117  1.0000
  C   C1        1.0  0.15402  0.79360  0.28494  1.0000
  C   C2        1.0  0.84597  0.20641  0.71506  1.0000
  C   C3        1.0  0.13390  0.72240  0.43003  1.0000
  C   C4        1.0  0.86610  0.27760  0.56996  1.0000
  C   C5        1.0  0.92105  0.76491  0.53831  1.0000
  C   C6        1.0  0.07895  0.23509  0.46169  1.0000
  C   C7        1.0  0.75073  0.86992  0.49532  1.0000
  C   C8        1.0  0.24927  0.13007  0.50468  1.0000
  C   C9        1.0  0.50713  0.53396  0.34943  1.0000
  C   C10       1.0  0.49286  0.46603  0.65057  1.0000
  C   C11       1.0  0.32261  0.61062  0.46480  1.0000
  C   C12       1.0  0.67739  0.38937  0.53520  1.0000
  C   C13       1.0  0.31933  0.57460  0.61596  1.0000
  C   C14       1.0  0.68066  0.42540  0.38404  1.0000
  C   C15       1.0  0.53558  0.78504  0.92825  1.0000
  C   C16       1.0  0.46443  0.21498  0.07175  1.0000
  S   S1        1.0  0.77816  0.68989  0.95156  1.0000
  S   S2        1.0  0.22185  0.31011  0.04845  1.0000
  N   N1        1.0  0.77782  0.93067  0.35441  1.0000
  N   N2        1.0  0.22218  0.06932  0.64559  1.0000
  N   N3        1.0  0.98146  0.89137  0.25061  1.0000
  N   N4        1.0  0.01854  0.10863  0.74939  1.0000
  N   N5        1.0  0.35908  0.85266  0.91128  1.0000
  N   N6        1.0  0.64093  0.14736  0.08873  1.0000
