data_image0
_chemical_formula_structural       Ag8H32C22I8N8
_chemical_formula_sum              "Ag8 H32 C22 I8 N8"
_cell_length_a       4.52733
_cell_length_b       12.599
_cell_length_c       18.5478
_cell_angle_alpha    96.6973
_cell_angle_beta     90.0002
_cell_angle_gamma    89.9998

_space_group_name_H-M_alt    "P 1"
_space_group_IT_number       1

loop_
  _space_group_symop_operation_xyz
  'x, y, z'

loop_
  _atom_site_type_symbol
  _atom_site_label
  _atom_site_symmetry_multiplicity
  _atom_site_fract_x
  _atom_site_fract_y
  _atom_site_fract_z
  _atom_site_occupancy
  Ag  Ag1       1.0  0.00858  0.24365  0.39242  1.0000
  Ag  Ag2       1.0  0.00859  0.25635  0.10758  1.0000
  Ag  Ag3       1.0  0.99140  0.75635  0.60758  1.0000
  Ag  Ag4       1.0  0.99140  0.74364  0.89242  1.0000
  Ag  Ag5       1.0  0.54439  0.15281  0.29531  1.0000
  Ag  Ag6       1.0  0.54439  0.34719  0.20469  1.0000
  Ag  Ag7       1.0  0.45561  0.84719  0.70469  1.0000
  Ag  Ag8       1.0  0.45560  0.65281  0.79531  1.0000
  H   H1        1.0  0.34010  0.10238  0.48480  1.0000
  H   H2        1.0  0.34010  0.39761  0.01519  1.0000
  H   H3        1.0  0.65989  0.89762  0.51520  1.0000
  H   H4        1.0  0.65990  0.60238  0.98480  1.0000
  H   H5        1.0  0.38808  0.08204  0.57736  1.0000
  H   H6        1.0  0.38808  0.41796  0.92264  1.0000
  H   H7        1.0  0.61191  0.91796  0.42264  1.0000
  H   H8        1.0  0.61191  0.58204  0.07736  1.0000
  H   H9        1.0  0.65294  0.15747  0.53354  1.0000
  H   H10       1.0  0.65294  0.34253  0.96646  1.0000
  H   H11       1.0  0.34706  0.84253  0.46646  1.0000
  H   H12       1.0  0.34706  0.65747  0.03354  1.0000
  H   H13       1.0  0.78520  0.42523  0.52918  1.0000
  H   H14       1.0  0.78518  0.07477  0.97083  1.0000
  H   H15       1.0  0.21481  0.57477  0.47082  1.0000
  H   H16       1.0  0.21481  0.92523  0.02918  1.0000
  H   H17       1.0  0.02503  0.44421  0.66833  1.0000
  H   H18       1.0  0.02502  0.05579  0.83167  1.0000
  H   H19       1.0  0.97499  0.55579  0.33166  1.0000
  H   H20       1.0  0.97498  0.94421  0.16834  1.0000
  H   H21       1.0  0.55317  0.35123  0.70423  1.0000
  H   H22       1.0  0.55317  0.14877  0.79577  1.0000
  H   H23       1.0  0.44684  0.64877  0.29577  1.0000
  H   H24       1.0  0.44683  0.85123  0.20423  1.0000
  H   H25       1.0  0.57800  0.21437  0.66954  1.0000
  H   H26       1.0  0.57799  0.28563  0.83046  1.0000
  H   H27       1.0  0.42201  0.78563  0.33046  1.0000
  H   H28       1.0  0.42201  0.71437  0.16954  1.0000
  H   H29       1.0  0.08926  0.31815  0.76933  1.0000
  H   H30       1.0  0.08926  0.18185  0.73067  1.0000
  H   H31       1.0  0.91075  0.68185  0.23067  1.0000
  H   H32       1.0  0.91075  0.81815  0.26933  1.0000
  C   C1        1.0  0.41621  0.13991  0.53791  1.0000
  C   C2        1.0  0.41621  0.36009  0.96209  1.0000
  C   C3        1.0  0.58379  0.86009  0.46209  1.0000
  C   C4        1.0  0.58380  0.63991  0.03791  1.0000
  C   C5        1.0  0.24208  0.23871  0.55797  1.0000
  C   C6        1.0  0.24207  0.26129  0.94202  1.0000
  C   C7        1.0  0.75791  0.76130  0.44202  1.0000
  C   C8        1.0  0.75792  0.73870  0.05798  1.0000
  C   C9        1.0  0.94118  0.37415  0.55313  1.0000
  C   C10       1.0  0.94118  0.12585  0.94687  1.0000
  C   C11       1.0  0.05883  0.62586  0.44687  1.0000
  C   C12       1.0  0.05885  0.87414  0.05313  1.0000
  C   C13       1.0  0.05652  0.38458  0.62194  1.0000
  C   C14       1.0  0.05654  0.11543  0.87807  1.0000
  C   C15       1.0  0.94346  0.61543  0.37807  1.0000
  C   C16       1.0  0.94348  0.88458  0.12194  1.0000
  C   C17       1.0  0.42216  0.27900  0.68731  1.0000
  C   C18       1.0  0.42216  0.22100  0.81269  1.0000
  C   C19       1.0  0.57783  0.72100  0.31269  1.0000
  C   C20       1.0  0.57783  0.77900  0.18731  1.0000
  C   C21       1.0  0.23165  0.25000  0.75000  1.0000
  C   C22       1.0  0.76835  0.75000  0.25000  1.0000
  I   I1        1.0  0.51528  0.37389  0.35960  1.0000
  I   I2        1.0  0.51528  0.12611  0.14040  1.0000
  I   I3        1.0  0.48471  0.62611  0.64040  1.0000
  I   I4        1.0  0.48471  0.87388  0.85960  1.0000
  I   I5        1.0  0.04816  0.02796  0.33360  1.0000
  I   I6        1.0  0.04815  0.47204  0.16640  1.0000
  I   I7        1.0  0.95184  0.97204  0.66640  1.0000
  I   I8        1.0  0.95184  0.52796  0.83360  1.0000
  N   N1        1.0  0.05714  0.28355  0.51408  1.0000
  N   N2        1.0  0.05714  0.21645  0.98592  1.0000
  N   N3        1.0  0.94285  0.71645  0.48592  1.0000
  N   N4        1.0  0.94285  0.78355  0.01408  1.0000
  N   N5        1.0  0.24614  0.29877  0.62446  1.0000
  N   N6        1.0  0.24613  0.20123  0.87554  1.0000
  N   N7        1.0  0.75389  0.70123  0.37554  1.0000
  N   N8        1.0  0.75389  0.79877  0.12446  1.0000
