data_image0
_chemical_formula_structural       Zn4H48C28S4N8O32
_chemical_formula_sum              "Zn4 H48 C28 S4 N8 O32"
_cell_length_a       5.64668
_cell_length_b       13.1916
_cell_length_c       15.542
_cell_angle_alpha    101.737
_cell_angle_beta     90.0005
_cell_angle_gamma    90.0004

_space_group_name_H-M_alt    "P 1"
_space_group_IT_number       1

loop_
  _space_group_symop_operation_xyz
  'x, y, z'

loop_
  _atom_site_type_symbol
  _atom_site_label
  _atom_site_symmetry_multiplicity
  _atom_site_fract_x
  _atom_site_fract_y
  _atom_site_fract_z
  _atom_site_occupancy
  Zn  Zn1       1.0  0.50782  0.88310  0.84779  1.0000
  Zn  Zn2       1.0  0.00785  0.11690  0.65221  1.0000
  Zn  Zn3       1.0  0.49217  0.11690  0.15221  1.0000
  Zn  Zn4       1.0  0.99216  0.88310  0.34779  1.0000
  H   H1        1.0  0.38901  0.27470  0.47427  1.0000
  H   H2        1.0  0.88898  0.72531  0.02573  1.0000
  H   H3        1.0  0.61098  0.72531  0.52573  1.0000
  H   H4        1.0  0.11101  0.27469  0.97427  1.0000
  H   H5        1.0  0.05223  0.85718  0.80711  1.0000
  H   H6        1.0  0.55224  0.14281  0.69288  1.0000
  H   H7        1.0  0.94778  0.14282  0.19288  1.0000
  H   H8        1.0  0.44777  0.85718  0.30712  1.0000
  H   H9        1.0  0.18594  0.91149  0.73204  1.0000
  H   H10       1.0  0.68595  0.08851  0.76795  1.0000
  H   H11       1.0  0.81407  0.08851  0.26795  1.0000
  H   H12       1.0  0.31406  0.91149  0.23205  1.0000
  H   H13       1.0  0.09737  0.73901  0.66542  1.0000
  H   H14       1.0  0.59735  0.26099  0.83457  1.0000
  H   H15       1.0  0.90264  0.26099  0.33457  1.0000
  H   H16       1.0  0.40265  0.73901  0.16543  1.0000
  H   H17       1.0  0.81749  0.39029  0.63390  1.0000
  H   H18       1.0  0.31744  0.60974  0.86611  1.0000
  H   H19       1.0  0.18251  0.60972  0.36610  1.0000
  H   H20       1.0  0.68255  0.39026  0.13390  1.0000
  H   H21       1.0  0.13400  0.41324  0.51628  1.0000
  H   H22       1.0  0.63395  0.58676  0.98371  1.0000
  H   H23       1.0  0.86601  0.58677  0.48372  1.0000
  H   H24       1.0  0.36604  0.41324  0.01629  1.0000
  H   H25       1.0  0.76466  0.56784  0.72539  1.0000
  H   H26       1.0  0.26462  0.43218  0.77461  1.0000
  H   H27       1.0  0.23536  0.43216  0.27461  1.0000
  H   H28       1.0  0.73538  0.56782  0.22539  1.0000
  H   H29       1.0  0.08335  0.58914  0.60479  1.0000
  H   H30       1.0  0.58334  0.41086  0.89520  1.0000
  H   H31       1.0  0.91665  0.41087  0.39521  1.0000
  H   H32       1.0  0.41667  0.58914  0.10480  1.0000
  H   H33       1.0  0.23944  0.79817  0.96583  1.0000
  H   H34       1.0  0.73949  0.20185  0.53417  1.0000
  H   H35       1.0  0.76055  0.20183  0.03417  1.0000
  H   H36       1.0  0.26051  0.79816  0.46583  1.0000
  H   H37       1.0  0.40996  0.88625  0.01976  1.0000
  H   H38       1.0  0.90999  0.11377  0.48024  1.0000
  H   H39       1.0  0.59004  0.11376  0.98023  1.0000
  H   H40       1.0  0.09002  0.88623  0.51976  1.0000
  H   H41       1.0  0.86607  0.89616  0.96252  1.0000
  H   H42       1.0  0.36609  0.10384  0.53747  1.0000
  H   H43       1.0  0.13393  0.10384  0.03747  1.0000
  H   H44       1.0  0.63392  0.89615  0.46252  1.0000
  H   H45       1.0  0.90592  0.98032  0.90584  1.0000
  H   H46       1.0  0.40593  0.01968  0.59416  1.0000
  H   H47       1.0  0.09407  0.01968  0.09416  1.0000
  H   H48       1.0  0.59407  0.98032  0.40584  1.0000
  C   C1        1.0  0.42491  0.59195  0.67023  1.0000
  C   C2        1.0  0.92489  0.40805  0.82977  1.0000
  C   C3        1.0  0.57510  0.40805  0.32977  1.0000
  C   C4        1.0  0.07511  0.59195  0.17022  1.0000
  C   C5        1.0  0.40723  0.69602  0.72623  1.0000
  C   C6        1.0  0.90723  0.30398  0.77378  1.0000
  C   C7        1.0  0.59277  0.30397  0.27378  1.0000
  C   C8        1.0  0.09277  0.69602  0.22622  1.0000
  C   C9        1.0  0.65724  0.43465  0.62852  1.0000
  C   C10       1.0  0.15721  0.56535  0.87149  1.0000
  C   C11       1.0  0.34276  0.56535  0.37148  1.0000
  C   C12       1.0  0.84279  0.43465  0.12851  1.0000
  C   C13       1.0  0.27283  0.44820  0.56135  1.0000
  C   C14       1.0  0.77280  0.55180  0.93866  1.0000
  C   C15       1.0  0.72717  0.55180  0.43866  1.0000
  C   C16       1.0  0.22719  0.44820  0.06134  1.0000
  C   C17       1.0  0.47995  0.39182  0.56886  1.0000
  C   C18       1.0  0.97993  0.60819  0.93115  1.0000
  C   C19       1.0  0.52005  0.60818  0.43114  1.0000
  C   C20       1.0  0.02006  0.39182  0.06885  1.0000
  C   C21       1.0  0.62897  0.53369  0.67853  1.0000
  C   C22       1.0  0.12894  0.46632  0.82148  1.0000
  C   C23       1.0  0.37104  0.46631  0.32148  1.0000
  C   C24       1.0  0.87106  0.53369  0.17852  1.0000
  C   C25       1.0  0.24684  0.54745  0.61140  1.0000
  C   C26       1.0  0.74682  0.45255  0.88861  1.0000
  C   C27       1.0  0.75316  0.45256  0.38859  1.0000
  C   C28       1.0  0.25318  0.54745  0.11139  1.0000
  S   S1        1.0  0.25006  0.11124  0.86760  1.0000
  S   S2        1.0  0.75005  0.88876  0.63239  1.0000
  S   S3        1.0  0.74994  0.88876  0.13240  1.0000
  S   S4        1.0  0.24995  0.11124  0.36761  1.0000
  N   N1        1.0  0.20251  0.85524  0.76879  1.0000
  N   N2        1.0  0.70253  0.14475  0.73120  1.0000
  N   N3        1.0  0.79749  0.14476  0.23120  1.0000
  N   N4        1.0  0.29749  0.85525  0.26880  1.0000
  N   N5        1.0  0.22509  0.75753  0.71296  1.0000
  N   N6        1.0  0.72509  0.24247  0.78703  1.0000
  N   N7        1.0  0.77492  0.24247  0.28703  1.0000
  N   N8        1.0  0.27492  0.75753  0.21297  1.0000
  O   O1        1.0  0.51625  0.29575  0.51961  1.0000
  O   O2        1.0  0.01624  0.70425  0.98040  1.0000
  O   O3        1.0  0.48374  0.70424  0.48039  1.0000
  O   O4        1.0  0.98376  0.29575  0.01960  1.0000
  O   O5        1.0  0.55708  0.72653  0.78638  1.0000
  O   O6        1.0  0.05708  0.27349  0.71362  1.0000
  O   O7        1.0  0.44293  0.27348  0.21361  1.0000
  O   O8        1.0  0.94292  0.72651  0.28638  1.0000
  O   O9        1.0  0.18455  0.07663  0.77453  1.0000
  O   O10       1.0  0.68453  0.92336  0.72546  1.0000
  O   O11       1.0  0.81546  0.92336  0.22546  1.0000
  O   O12       1.0  0.31546  0.07665  0.27454  1.0000
  O   O13       1.0  0.36375  0.84873  0.95992  1.0000
  O   O14       1.0  0.86378  0.15128  0.54009  1.0000
  O   O15       1.0  0.63625  0.15127  0.04008  1.0000
  O   O16       1.0  0.13622  0.84872  0.45991  1.0000
  O   O17       1.0  0.83881  0.90887  0.90225  1.0000
  O   O18       1.0  0.33883  0.09113  0.59775  1.0000
  O   O19       1.0  0.16119  0.09113  0.09775  1.0000
  O   O20       1.0  0.66117  0.90886  0.40224  1.0000
  O   O21       1.0  0.46981  0.05208  0.88461  1.0000
  O   O22       1.0  0.96979  0.94792  0.61539  1.0000
  O   O23       1.0  0.53020  0.94792  0.11539  1.0000
  O   O24       1.0  0.03020  0.05208  0.38462  1.0000
  O   O25       1.0  0.30404  0.22401  0.89136  1.0000
  O   O26       1.0  0.80401  0.77598  0.60863  1.0000
  O   O27       1.0  0.69595  0.77598  0.10864  1.0000
  O   O28       1.0  0.19598  0.22402  0.39137  1.0000
  O   O29       1.0  0.05495  0.08879  0.92604  1.0000
  O   O30       1.0  0.55494  0.91121  0.57396  1.0000
  O   O31       1.0  0.94503  0.91121  0.07396  1.0000
  O   O32       1.0  0.44506  0.08879  0.42604  1.0000
