data_image0
_chemical_formula_structural       Cu4H32C36N8O8
_chemical_formula_sum              "Cu4 H32 C36 N8 O8"
_cell_length_a       5.28207
_cell_length_b       12.7275
_cell_length_c       14.674
_cell_angle_alpha    88.1106
_cell_angle_beta     80.8654
_cell_angle_gamma    78.0453

_space_group_name_H-M_alt    "P 1"
_space_group_IT_number       1

loop_
  _space_group_symop_operation_xyz
  'x, y, z'

loop_
  _atom_site_type_symbol
  _atom_site_label
  _atom_site_symmetry_multiplicity
  _atom_site_fract_x
  _atom_site_fract_y
  _atom_site_fract_z
  _atom_site_occupancy
  Cu  Cu1       1.0  0.39692  0.20824  0.75019  1.0000
  Cu  Cu2       1.0  0.60305  0.79176  0.24983  1.0000
  Cu  Cu3       1.0  0.99998  0.00000  0.00001  1.0000
  Cu  Cu4       1.0  0.99993  0.99999  0.50001  1.0000
  H   H1        1.0  0.08807  0.60375  0.70009  1.0000
  H   H2        1.0  0.30939  0.60399  0.79956  1.0000
  H   H3        1.0  0.91194  0.39624  0.29991  1.0000
  H   H4        1.0  0.69060  0.39601  0.20043  1.0000
  H   H5        1.0  0.97463  0.24801  0.61662  1.0000
  H   H6        1.0  0.77881  0.24873  0.88383  1.0000
  H   H7        1.0  0.02537  0.75198  0.38338  1.0000
  H   H8        1.0  0.22121  0.75127  0.11618  1.0000
  H   H9        1.0  0.70866  0.41145  0.55179  1.0000
  H   H10       1.0  0.88097  0.41248  0.94826  1.0000
  H   H11       1.0  0.29135  0.58854  0.44821  1.0000
  H   H12       1.0  0.11903  0.58753  0.05173  1.0000
  H   H13       1.0  0.60032  0.80526  0.51701  1.0000
  H   H14       1.0  0.59412  0.80579  0.98286  1.0000
  H   H15       1.0  0.39968  0.19473  0.48299  1.0000
  H   H16       1.0  0.40590  0.19422  0.01714  1.0000
  H   H17       1.0  0.74524  0.86884  0.59663  1.0000
  H   H18       1.0  0.38515  0.86926  0.90339  1.0000
  H   H19       1.0  0.25476  0.13116  0.40336  1.0000
  H   H20       1.0  0.61487  0.13074  0.09662  1.0000
  H   H21       1.0  0.22762  0.78752  0.63851  1.0000
  H   H22       1.0  0.98430  0.78946  0.86136  1.0000
  H   H23       1.0  0.77237  0.21249  0.36149  1.0000
  H   H24       1.0  0.01571  0.21053  0.13863  1.0000
  H   H25       1.0  0.26648  0.92348  0.63692  1.0000
  H   H26       1.0  0.80780  0.92515  0.86351  1.0000
  H   H27       1.0  0.73356  0.07653  0.36306  1.0000
  H   H28       1.0  0.19223  0.07486  0.13648  1.0000
  H   H29       1.0  0.38070  0.83569  0.72450  1.0000
  H   H30       1.0  0.78260  0.83773  0.77550  1.0000
  H   H31       1.0  0.61929  0.16432  0.27550  1.0000
  H   H32       1.0  0.21741  0.16227  0.22449  1.0000
  C   C1        1.0  0.19510  0.43124  0.71649  1.0000
  C   C2        1.0  0.37544  0.43143  0.78343  1.0000
  C   C3        1.0  0.80491  0.56875  0.28351  1.0000
  C   C4        1.0  0.62457  0.56857  0.21657  1.0000
  C   C5        1.0  0.05967  0.52574  0.68114  1.0000
  C   C6        1.0  0.41595  0.52609  0.81864  1.0000
  C   C7        1.0  0.94034  0.47425  0.31886  1.0000
  C   C8        1.0  0.58406  0.47391  0.18135  1.0000
  C   C9        1.0  0.88018  0.52003  0.62229  1.0000
  C   C10       1.0  0.60094  0.52068  0.87753  1.0000
  C   C11       1.0  0.11983  0.47996  0.37771  1.0000
  C   C12       1.0  0.39907  0.47933  0.12246  1.0000
  C   C13       1.0  0.99564  0.32822  0.63334  1.0000
  C   C14       1.0  0.67771  0.32884  0.86685  1.0000
  C   C15       1.0  0.00437  0.67177  0.36666  1.0000
  C   C16       1.0  0.32230  0.67116  0.13316  1.0000
  C   C17       1.0  0.84808  0.41886  0.59735  1.0000
  C   C18       1.0  0.73434  0.41964  0.90265  1.0000
  C   C19       1.0  0.15192  0.58114  0.40265  1.0000
  C   C20       1.0  0.26566  0.58036  0.09735  1.0000
  C   C21       1.0  0.15018  0.07648  0.90550  1.0000
  C   C22       1.0  0.77480  0.07599  0.59507  1.0000
  C   C23       1.0  0.84981  0.92351  0.09451  1.0000
  C   C24       1.0  0.22508  0.92400  0.40495  1.0000
  C   C25       1.0  0.71493  0.61882  0.58897  1.0000
  C   C26       1.0  0.66713  0.61958  0.91078  1.0000
  C   C27       1.0  0.28509  0.38118  0.41103  1.0000
  C   C28       1.0  0.33288  0.38042  0.08920  1.0000
  C   C29       1.0  0.62200  0.81075  0.58978  1.0000
  C   C30       1.0  0.56702  0.81150  0.91008  1.0000
  C   C31       1.0  0.37801  0.18925  0.41022  1.0000
  C   C32       1.0  0.43299  0.18851  0.08992  1.0000
  C   C33       1.0  0.35870  0.84012  0.65128  1.0000
  C   C34       1.0  0.80013  0.84175  0.84876  1.0000
  C   C35       1.0  0.64131  0.15988  0.34872  1.0000
  C   C36       1.0  0.19988  0.15825  0.15123  1.0000
  N   N1        1.0  0.16315  0.33328  0.69255  1.0000
  N   N2        1.0  0.50547  0.33359  0.80755  1.0000
  N   N3        1.0  0.83685  0.66671  0.30745  1.0000
  N   N4        1.0  0.49454  0.66641  0.19245  1.0000
  N   N5        1.0  0.24563  0.12490  0.84474  1.0000
  N   N6        1.0  0.63156  0.12438  0.65596  1.0000
  N   N7        1.0  0.75434  0.87511  0.15527  1.0000
  N   N8        1.0  0.36837  0.87561  0.34406  1.0000
  O   O1        1.0  0.77685  0.70910  0.61701  1.0000
  O   O2        1.0  0.51518  0.70973  0.88248  1.0000
  O   O3        1.0  0.22316  0.29090  0.38299  1.0000
  O   O4        1.0  0.48482  0.29028  0.11752  1.0000
  O   O5        1.0  0.54084  0.61826  0.54302  1.0000
  O   O6        1.0  0.84131  0.61928  0.95689  1.0000
  O   O7        1.0  0.45916  0.38174  0.45698  1.0000
  O   O8        1.0  0.15875  0.38072  0.04309  1.0000
