data_image0
_chemical_formula_structural       Ni2H56C36N8O8
_chemical_formula_sum              "Ni2 H56 C36 N8 O8"
_cell_length_a       8.85162
_cell_length_b       11.4349
_cell_length_c       11.3971
_cell_angle_alpha    88.8307
_cell_angle_beta     68.434
_cell_angle_gamma    67.7955

_space_group_name_H-M_alt    "P 1"
_space_group_IT_number       1

loop_
  _space_group_symop_operation_xyz
  'x, y, z'

loop_
  _atom_site_type_symbol
  _atom_site_label
  _atom_site_symmetry_multiplicity
  _atom_site_fract_x
  _atom_site_fract_y
  _atom_site_fract_z
  _atom_site_occupancy
  Ni  Ni1       1.0  0.00000  1.00000  0.50000  1.0000
  Ni  Ni2       1.0  0.50000  0.50000  1.00000  1.0000
  H   H1        1.0  0.98527  0.20779  0.57445  1.0000
  H   H2        1.0  0.48546  0.57639  0.20779  1.0000
  H   H3        1.0  0.01473  0.79220  0.42555  1.0000
  H   H4        1.0  0.51454  0.42361  0.79220  1.0000
  H   H5        1.0  0.23642  0.23215  0.41128  1.0000
  H   H6        1.0  0.73950  0.41501  0.23335  1.0000
  H   H7        1.0  0.76359  0.76784  0.58871  1.0000
  H   H8        1.0  0.26051  0.58499  0.76665  1.0000
  H   H9        1.0  0.23023  0.12402  0.30455  1.0000
  H   H10       1.0  0.73391  0.30622  0.12687  1.0000
  H   H11       1.0  0.76977  0.87597  0.69545  1.0000
  H   H12       1.0  0.26609  0.69378  0.87313  1.0000
  H   H13       1.0  0.45933  0.01570  0.39621  1.0000
  H   H14       1.0  0.96028  0.39630  0.01717  1.0000
  H   H15       1.0  0.54067  0.98429  0.60378  1.0000
  H   H16       1.0  0.03972  0.60370  0.98284  1.0000
  H   H17       1.0  0.28871  0.06241  0.55156  1.0000
  H   H18       1.0  0.78947  0.55239  0.06244  1.0000
  H   H19       1.0  0.71129  0.93758  0.44844  1.0000
  H   H20       1.0  0.21053  0.44761  0.93756  1.0000
  H   H21       1.0  0.32620  0.88678  0.34691  1.0000
  H   H22       1.0  0.82698  0.34704  0.88788  1.0000
  H   H23       1.0  0.67380  0.11322  0.65309  1.0000
  H   H24       1.0  0.17302  0.65296  0.11213  1.0000
  H   H25       1.0  0.29418  0.86260  0.61097  1.0000
  H   H26       1.0  0.79102  0.61117  0.86289  1.0000
  H   H27       1.0  0.70582  0.13740  0.38903  1.0000
  H   H28       1.0  0.20898  0.38883  0.13711  1.0000
  H   H29       1.0  0.49345  0.78857  0.47325  1.0000
  H   H30       1.0  0.99091  0.47275  0.78945  1.0000
  H   H31       1.0  0.50655  0.21143  0.52675  1.0000
  H   H32       1.0  0.00910  0.52725  0.21055  1.0000
  H   H33       1.0  0.38004  0.62903  0.53059  1.0000
  H   H34       1.0  0.87428  0.53223  0.63055  1.0000
  H   H35       1.0  0.61996  0.37096  0.46942  1.0000
  H   H36       1.0  0.12572  0.46777  0.36945  1.0000
  H   H37       1.0  0.33689  0.68203  0.39527  1.0000
  H   H38       1.0  0.83727  0.39506  0.68112  1.0000
  H   H39       1.0  0.66311  0.31796  0.60473  1.0000
  H   H40       1.0  0.16273  0.60494  0.31888  1.0000
  H   H41       1.0  0.90792  0.36050  0.42753  1.0000
  H   H42       1.0  0.41160  0.43108  0.36159  1.0000
  H   H43       1.0  0.09208  0.63950  0.57248  1.0000
  H   H44       1.0  0.58840  0.56892  0.63841  1.0000
  H   H45       1.0  0.93727  0.22827  0.32922  1.0000
  H   H46       1.0  0.44381  0.33007  0.23015  1.0000
  H   H47       1.0  0.06273  0.77173  0.67078  1.0000
  H   H48       1.0  0.55619  0.66993  0.76985  1.0000
  H   H49       1.0  0.92320  0.88399  0.86419  1.0000
  H   H50       1.0  0.41841  0.86880  0.88279  1.0000
  H   H51       1.0  0.07679  0.11601  0.13582  1.0000
  H   H52       1.0  0.58159  0.13120  0.11720  1.0000
  H   H53       1.0  0.05608  0.19236  0.93227  1.0000
  H   H54       1.0  0.55875  0.92806  0.19159  1.0000
  H   H55       1.0  0.94391  0.80765  0.06773  1.0000
  H   H56       1.0  0.44125  0.07195  0.80840  1.0000
  C   C1        1.0  0.20333  0.14896  0.40498  1.0000
  C   C2        1.0  0.70559  0.40707  0.15037  1.0000
  C   C3        1.0  0.79668  0.85103  0.59502  1.0000
  C   C4        1.0  0.29441  0.59293  0.84963  1.0000
  C   C5        1.0  0.31789  0.03684  0.45078  1.0000
  C   C6        1.0  0.81858  0.45158  0.03768  1.0000
  C   C7        1.0  0.68212  0.96316  0.54922  1.0000
  C   C8        1.0  0.18142  0.54843  0.96231  1.0000
  C   C9        1.0  0.34745  0.82284  0.51012  1.0000
  C   C10       1.0  0.84483  0.51014  0.82358  1.0000
  C   C11       1.0  0.65255  0.17716  0.48988  1.0000
  C   C12       1.0  0.15517  0.48986  0.17642  1.0000
  C   C13       1.0  0.29845  0.71038  0.49708  1.0000
  C   C14       1.0  0.79526  0.49709  0.71076  1.0000
  C   C15       1.0  0.70155  0.28962  0.50292  1.0000
  C   C16       1.0  0.20474  0.50291  0.28924  1.0000
  C   C17       1.0  0.89528  0.26757  0.42868  1.0000
  C   C18       1.0  0.39926  0.43025  0.26825  1.0000
  C   C19       1.0  0.10472  0.73243  0.57132  1.0000
  C   C20       1.0  0.60074  0.56975  0.73175  1.0000
  C   C21       1.0  0.98754  0.04322  0.88635  1.0000
  C   C22       1.0  0.48671  0.88668  0.04210  1.0000
  C   C23       1.0  0.01246  0.95678  0.11365  1.0000
  C   C24       1.0  0.51329  0.11332  0.95790  1.0000
  C   C25       1.0  0.95883  0.93338  0.92368  1.0000
  C   C26       1.0  0.45630  0.92608  0.93268  1.0000
  C   C27       1.0  0.04116  0.06662  0.07632  1.0000
  C   C28       1.0  0.54369  0.07392  0.06732  1.0000
  C   C29       1.0  0.02923  0.10905  0.96368  1.0000
  C   C30       1.0  0.53099  0.96149  0.10857  1.0000
  C   C31       1.0  0.97077  0.89095  0.03633  1.0000
  C   C32       1.0  0.46901  0.03852  0.89143  1.0000
  C   C33       1.0  0.97521  0.08911  0.76406  1.0000
  C   C34       1.0  0.47368  0.76488  0.08765  1.0000
  C   C35       1.0  0.02479  0.91089  0.23594  1.0000
  C   C36       1.0  0.52631  0.23513  0.91235  1.0000
  N   N1        1.0  0.01573  0.17735  0.48021  1.0000
  N   N2        1.0  0.51733  0.48181  0.17778  1.0000
  N   N3        1.0  0.98428  0.82265  0.51979  1.0000
  N   N4        1.0  0.48267  0.51820  0.82222  1.0000
  N   N5        1.0  0.27553  0.92555  0.44122  1.0000
  N   N6        1.0  0.77489  0.44159  0.92643  1.0000
  N   N7        1.0  0.72447  0.07444  0.55878  1.0000
  N   N8        1.0  0.22512  0.55841  0.07357  1.0000
  O   O1        1.0  0.96556  0.01115  0.69113  1.0000
  O   O2        1.0  0.46297  0.69250  0.00975  1.0000
  O   O3        1.0  0.03444  0.98885  0.30887  1.0000
  O   O4        1.0  0.53703  0.30750  0.99024  1.0000
  O   O5        1.0  0.97827  0.19752  0.74128  1.0000
  O   O6        1.0  0.47744  0.74192  0.19627  1.0000
  O   O7        1.0  0.02172  0.80248  0.25873  1.0000
  O   O8        1.0  0.52255  0.25808  0.80373  1.0000
