data_image0
_chemical_formula_structural       Co4H24C20O16
_chemical_formula_sum              "Co4 H24 C20 O16"
_cell_length_a       4.81575
_cell_length_b       9.36059
_cell_length_c       13.6499
_cell_angle_alpha    89.5126
_cell_angle_beta     90.0003
_cell_angle_gamma    89.9996

_space_group_name_H-M_alt    "P 1"
_space_group_IT_number       1

loop_
  _space_group_symop_operation_xyz
  'x, y, z'

loop_
  _atom_site_type_symbol
  _atom_site_label
  _atom_site_symmetry_multiplicity
  _atom_site_fract_x
  _atom_site_fract_y
  _atom_site_fract_z
  _atom_site_occupancy
  Co  Co1       1.0  0.02097  0.99906  0.24710  1.0000
  Co  Co2       1.0  0.97904  0.49906  0.24710  1.0000
  Co  Co3       1.0  0.97904  0.00094  0.75290  1.0000
  Co  Co4       1.0  0.02097  0.50094  0.75290  1.0000
  H   H1        1.0  0.25385  0.75994  0.11467  1.0000
  H   H2        1.0  0.74616  0.25993  0.11467  1.0000
  H   H3        1.0  0.74615  0.24006  0.88533  1.0000
  H   H4        1.0  0.25384  0.74006  0.88533  1.0000
  H   H5        1.0  0.23763  0.90202  0.03158  1.0000
  H   H6        1.0  0.76238  0.40202  0.03158  1.0000
  H   H7        1.0  0.76238  0.09798  0.96842  1.0000
  H   H8        1.0  0.23763  0.59798  0.96842  1.0000
  H   H9        1.0  0.70509  0.82293  0.95938  1.0000
  H   H10       1.0  0.29490  0.32294  0.95938  1.0000
  H   H11       1.0  0.29490  0.17707  0.04062  1.0000
  H   H12       1.0  0.70510  0.67706  0.04061  1.0000
  H   H13       1.0  0.43435  0.10227  0.37922  1.0000
  H   H14       1.0  0.56564  0.60227  0.37922  1.0000
  H   H15       1.0  0.56565  0.89773  0.62078  1.0000
  H   H16       1.0  0.43434  0.39773  0.62078  1.0000
  H   H17       1.0  0.14970  0.09461  0.45932  1.0000
  H   H18       1.0  0.85030  0.59462  0.45932  1.0000
  H   H19       1.0  0.85030  0.90539  0.54068  1.0000
  H   H20       1.0  0.14969  0.40538  0.54068  1.0000
  H   H21       1.0  0.60081  0.17265  0.53747  1.0000
  H   H22       1.0  0.39918  0.67266  0.53747  1.0000
  H   H23       1.0  0.39917  0.82735  0.46253  1.0000
  H   H24       1.0  0.60082  0.32734  0.46253  1.0000
  C   C1        1.0  0.53998  0.92432  0.14329  1.0000
  C   C2        1.0  0.46003  0.42432  0.14329  1.0000
  C   C3        1.0  0.46003  0.07568  0.85671  1.0000
  C   C4        1.0  0.53998  0.57568  0.85671  1.0000
  C   C5        1.0  0.38568  0.83290  0.07124  1.0000
  C   C6        1.0  0.61433  0.33290  0.07125  1.0000
  C   C7        1.0  0.61433  0.16710  0.92876  1.0000
  C   C8        1.0  0.38567  0.66710  0.92876  1.0000
  C   C9        1.0  0.56726  0.75000  1.00000  1.0000
  C   C10       1.0  0.43274  0.25000  1.00000  1.0000
  C   C11       1.0  0.13101  0.25966  0.35256  1.0000
  C   C12       1.0  0.86900  0.75967  0.35256  1.0000
  C   C13       1.0  0.86899  0.74034  0.64744  1.0000
  C   C14       1.0  0.13099  0.24033  0.64744  1.0000
  C   C15       1.0  0.29553  0.16927  0.42371  1.0000
  C   C16       1.0  0.70447  0.66928  0.42371  1.0000
  C   C17       1.0  0.70447  0.83073  0.57629  1.0000
  C   C18       1.0  0.29552  0.33072  0.57629  1.0000
  C   C19       1.0  0.46481  0.25000  0.50000  1.0000
  C   C20       1.0  0.53519  0.75000  0.50000  1.0000
  O   O1        1.0  0.99749  0.20070  0.28236  1.0000
  O   O2        1.0  0.00249  0.70071  0.28236  1.0000
  O   O3        1.0  0.00250  0.79930  0.71764  1.0000
  O   O4        1.0  0.99749  0.29929  0.71764  1.0000
  O   O5        1.0  0.12652  0.39545  0.36168  1.0000
  O   O6        1.0  0.87349  0.89546  0.36168  1.0000
  O   O7        1.0  0.87349  0.60455  0.63832  1.0000
  O   O8        1.0  0.12650  0.10455  0.63832  1.0000
  O   O9        1.0  0.80270  0.93876  0.13384  1.0000
  O   O10       1.0  0.19729  0.43875  0.13384  1.0000
  O   O11       1.0  0.19730  0.06123  0.86617  1.0000
  O   O12       1.0  0.80270  0.56124  0.86616  1.0000
  O   O13       1.0  0.41147  0.98576  0.21334  1.0000
  O   O14       1.0  0.58855  0.48576  0.21334  1.0000
  O   O15       1.0  0.58854  0.01424  0.78666  1.0000
  O   O16       1.0  0.41148  0.51425  0.78666  1.0000
