data_image0
_chemical_formula_structural       Ba2H24C28N4O20
_chemical_formula_sum              "Ba2 H24 C28 N4 O20"
_cell_length_a       7.16312
_cell_length_b       10.4679
_cell_length_c       11.1408
_cell_angle_alpha    89.9277
_cell_angle_beta     85.0272
_cell_angle_gamma    82.5508

_space_group_name_H-M_alt    "P 1"
_space_group_IT_number       1

loop_
  _space_group_symop_operation_xyz
  'x, y, z'

loop_
  _atom_site_type_symbol
  _atom_site_label
  _atom_site_symmetry_multiplicity
  _atom_site_fract_x
  _atom_site_fract_y
  _atom_site_fract_z
  _atom_site_occupancy
  Ba  Ba1       1.0  0.26522  0.95418  0.75287  1.0000
  Ba  Ba2       1.0  0.73477  0.04582  0.24713  1.0000
  H   H1        1.0  0.30921  0.02573  0.44434  1.0000
  H   H2        1.0  0.69079  0.97427  0.55566  1.0000
  H   H3        1.0  0.16677  0.05952  0.05203  1.0000
  H   H4        1.0  0.83324  0.94048  0.94797  1.0000
  H   H5        1.0  0.00851  0.72566  0.69048  1.0000
  H   H6        1.0  0.99150  0.27435  0.30952  1.0000
  H   H7        1.0  0.97985  0.72264  0.83169  1.0000
  H   H8        1.0  0.02015  0.27736  0.16830  1.0000
  H   H9        1.0  0.64598  0.74675  0.82523  1.0000
  H   H10       1.0  0.35402  0.25325  0.17477  1.0000
  H   H11       1.0  0.67808  0.75824  0.68414  1.0000
  H   H12       1.0  0.32191  0.24177  0.31586  1.0000
  H   H13       1.0  0.97474  0.46897  0.58252  1.0000
  H   H14       1.0  0.02525  0.53104  0.41749  1.0000
  H   H15       1.0  0.79163  0.54698  0.77546  1.0000
  H   H16       1.0  0.20838  0.45302  0.22455  1.0000
  H   H17       1.0  0.71457  0.38491  0.93265  1.0000
  H   H18       1.0  0.28544  0.61509  0.06735  1.0000
  H   H19       1.0  0.23754  0.50558  0.89169  1.0000
  H   H20       1.0  0.76246  0.49442  0.10830  1.0000
  H   H21       1.0  0.37534  0.58420  0.69546  1.0000
  H   H22       1.0  0.62466  0.41580  0.30453  1.0000
  H   H23       1.0  0.54613  0.41706  0.54402  1.0000
  H   H24       1.0  0.45386  0.58293  0.45596  1.0000
  C   C1        1.0  0.12120  0.21551  0.52618  1.0000
  C   C2        1.0  0.87879  0.78449  0.47382  1.0000
  C   C3        1.0  0.00261  0.26958  0.63799  1.0000
  C   C4        1.0  0.99738  0.73042  0.36201  1.0000
  C   C5        1.0  0.94114  0.40138  0.65268  1.0000
  C   C6        1.0  0.05884  0.59862  0.34732  1.0000
  C   C7        1.0  0.83926  0.44506  0.76022  1.0000
  C   C8        1.0  0.16074  0.55493  0.23978  1.0000
  C   C9        1.0  0.79645  0.35611  0.84800  1.0000
  C   C10       1.0  0.20354  0.64389  0.15201  1.0000
  C   C11       1.0  0.85898  0.22589  0.82413  1.0000
  C   C12       1.0  0.14102  0.77411  0.17587  1.0000
  C   C13       1.0  0.81155  0.12617  0.91443  1.0000
  C   C14       1.0  0.18845  0.87383  0.08557  1.0000
  C   C15       1.0  0.24237  0.24987  0.95917  1.0000
  C   C16       1.0  0.75763  0.75013  0.04083  1.0000
  C   C17       1.0  0.32360  0.30530  0.84373  1.0000
  C   C18       1.0  0.67639  0.69470  0.15627  1.0000
  C   C19       1.0  0.30985  0.43811  0.82341  1.0000
  C   C20       1.0  0.69016  0.56189  0.17659  1.0000
  C   C21       1.0  0.38594  0.48124  0.71349  1.0000
  C   C22       1.0  0.61407  0.51876  0.28650  1.0000
  C   C23       1.0  0.47831  0.39030  0.62981  1.0000
  C   C24       1.0  0.52170  0.60970  0.37019  1.0000
  C   C25       1.0  0.48801  0.25980  0.65845  1.0000
  C   C26       1.0  0.51199  0.74020  0.34154  1.0000
  C   C27       1.0  0.59271  0.15902  0.57316  1.0000
  C   C28       1.0  0.40730  0.84098  0.42684  1.0000
  N   N1        1.0  0.96393  0.18357  0.72297  1.0000
  N   N2        1.0  0.03607  0.81643  0.27703  1.0000
  N   N3        1.0  0.40845  0.21782  0.76190  1.0000
  N   N4        1.0  0.59155  0.78218  0.23809  1.0000
  O   O1        1.0  0.20159  0.09978  0.53575  1.0000
  O   O2        1.0  0.79842  0.90023  0.46425  1.0000
  O   O3        1.0  0.13616  0.28567  0.43447  1.0000
  O   O4        1.0  0.86383  0.71434  0.56553  1.0000
  O   O5        1.0  0.87520  0.00676  0.87955  1.0000
  O   O6        1.0  0.12480  0.99324  0.12045  1.0000
  O   O7        1.0  0.72107  0.15691  0.01236  1.0000
  O   O8        1.0  0.27894  0.84309  0.98765  1.0000
  O   O9        1.0  0.22069  0.13044  0.95274  1.0000
  O   O10       1.0  0.77931  0.86956  0.04727  1.0000
  O   O11       1.0  0.20250  0.32084  0.05159  1.0000
  O   O12       1.0  0.79749  0.67916  0.94841  1.0000
  O   O13       1.0  0.60402  0.04121  0.61697  1.0000
  O   O14       1.0  0.39599  0.95879  0.38303  1.0000
  O   O15       1.0  0.66204  0.18751  0.47236  1.0000
  O   O16       1.0  0.33797  0.81249  0.52763  1.0000
  O   O17       1.0  0.07147  0.73957  0.76374  1.0000
  O   O18       1.0  0.92853  0.26043  0.23626  1.0000
  O   O19       1.0  0.58024  0.77201  0.75325  1.0000
  O   O20       1.0  0.41975  0.22799  0.24675  1.0000
