data_image0
_chemical_formula_structural       Mg2H32C16Br4O4
_chemical_formula_sum              "Mg2 H32 C16 Br4 O4"
_cell_length_a       3.94318
_cell_length_b       7.54056
_cell_length_c       18.2902
_cell_angle_alpha    90
_cell_angle_beta     90
_cell_angle_gamma    90

_space_group_name_H-M_alt    "P 1"
_space_group_IT_number       1

loop_
  _space_group_symop_operation_xyz
  'x, y, z'

loop_
  _atom_site_type_symbol
  _atom_site_label
  _atom_site_symmetry_multiplicity
  _atom_site_fract_x
  _atom_site_fract_y
  _atom_site_fract_z
  _atom_site_occupancy
  Mg  Mg1       1.0  0.00000  0.00000  0.00000  1.0000
  Mg  Mg2       1.0  0.50000  0.50000  0.50000  1.0000
  H   H1        1.0  0.22524  0.02798  0.17312  1.0000
  H   H2        1.0  0.22524  0.97202  0.82688  1.0000
  H   H3        1.0  0.27477  0.52798  0.32688  1.0000
  H   H4        1.0  0.27476  0.47202  0.67312  1.0000
  H   H5        1.0  0.77476  0.97202  0.82688  1.0000
  H   H6        1.0  0.77477  0.02798  0.17312  1.0000
  H   H7        1.0  0.72524  0.47202  0.67312  1.0000
  H   H8        1.0  0.72524  0.52798  0.32688  1.0000
  H   H9        1.0  0.22223  0.27584  0.25109  1.0000
  H   H10       1.0  0.22222  0.72416  0.74891  1.0000
  H   H11       1.0  0.27778  0.77584  0.24891  1.0000
  H   H12       1.0  0.27777  0.22416  0.75109  1.0000
  H   H13       1.0  0.77778  0.72416  0.74891  1.0000
  H   H14       1.0  0.77777  0.27584  0.25109  1.0000
  H   H15       1.0  0.72223  0.22416  0.75109  1.0000
  H   H16       1.0  0.72223  0.77584  0.24891  1.0000
  H   H17       1.0  0.22276  0.52212  0.17241  1.0000
  H   H18       1.0  0.22276  0.47788  0.82759  1.0000
  H   H19       1.0  0.27725  0.02212  0.32759  1.0000
  H   H20       1.0  0.27725  0.97788  0.67241  1.0000
  H   H21       1.0  0.77725  0.47788  0.82759  1.0000
  H   H22       1.0  0.77725  0.52212  0.17241  1.0000
  H   H23       1.0  0.72276  0.97788  0.67241  1.0000
  H   H24       1.0  0.72276  0.02212  0.32759  1.0000
  H   H25       1.0  0.22539  0.40471  0.05460  1.0000
  H   H26       1.0  0.22539  0.59529  0.94540  1.0000
  H   H27       1.0  0.27460  0.90471  0.44540  1.0000
  H   H28       1.0  0.27460  0.09529  0.55460  1.0000
  H   H29       1.0  0.77460  0.59529  0.94540  1.0000
  H   H30       1.0  0.77460  0.40471  0.05460  1.0000
  H   H31       1.0  0.72539  0.09529  0.55460  1.0000
  H   H32       1.0  0.72539  0.90471  0.44540  1.0000
  C   C1        1.0  1.00000  0.11178  0.16588  1.0000
  C   C2        1.0  1.00000  0.88822  0.83412  1.0000
  C   C3        1.0  0.50000  0.61178  0.33412  1.0000
  C   C4        1.0  0.50000  0.38822  0.66588  1.0000
  C   C5        1.0  0.00000  0.27572  0.21512  1.0000
  C   C6        1.0  0.00000  0.72428  0.78488  1.0000
  C   C7        1.0  0.50000  0.77572  0.28488  1.0000
  C   C8        1.0  0.50000  0.22428  0.71512  1.0000
  C   C9        1.0  1.00000  0.43787  0.16370  1.0000
  C   C10       1.0  1.00000  0.56213  0.83630  1.0000
  C   C11       1.0  0.50000  0.93787  0.33630  1.0000
  C   C12       1.0  0.50000  0.06213  0.66370  1.0000
  C   C13       1.0  0.00000  0.36532  0.08572  1.0000
  C   C14       1.0  0.00000  0.63468  0.91428  1.0000
  C   C15       1.0  0.50000  0.86532  0.41428  1.0000
  C   C16       1.0  0.50000  0.13468  0.58572  1.0000
  Br  Br1       1.0  0.50000  0.19308  0.93735  1.0000
  Br  Br2       1.0  0.50000  0.80692  0.06265  1.0000
  Br  Br3       1.0  0.00000  0.69308  0.56265  1.0000
  Br  Br4       1.0  0.00000  0.30692  0.43735  1.0000
  O   O1        1.0  0.00000  0.17239  0.09060  1.0000
  O   O2        1.0  1.00000  0.82761  0.90940  1.0000
  O   O3        1.0  0.50000  0.67239  0.40940  1.0000
  O   O4        1.0  0.50000  0.32761  0.59060  1.0000
