data_image0
_chemical_formula_structural       Mg4H24C8O24
_chemical_formula_sum              "Mg4 H24 C8 O24"
_cell_length_a       7.06186
_cell_length_b       8.61018
_cell_length_c       9.42343
_cell_angle_alpha    98.3584
_cell_angle_beta     90.0001
_cell_angle_gamma    90.0002

_space_group_name_H-M_alt    "P 1"
_space_group_IT_number       1

loop_
  _space_group_symop_operation_xyz
  'x, y, z'

loop_
  _atom_site_type_symbol
  _atom_site_label
  _atom_site_symmetry_multiplicity
  _atom_site_fract_x
  _atom_site_fract_y
  _atom_site_fract_z
  _atom_site_occupancy
  Mg  Mg1       1.0  1.00000  1.00000  0.00000  1.0000
  Mg  Mg2       1.0  0.50000  0.00000  0.50000  1.0000
  Mg  Mg3       1.0  0.50000  0.50000  0.00000  1.0000
  Mg  Mg4       1.0  1.00000  0.50000  0.50000  1.0000
  H   H1        1.0  0.60563  0.79484  0.99322  1.0000
  H   H2        1.0  0.10564  0.20516  0.50678  1.0000
  H   H3        1.0  0.39437  0.20516  0.00678  1.0000
  H   H4        1.0  0.89437  0.79484  0.49322  1.0000
  H   H5        1.0  0.38522  0.76625  0.95622  1.0000
  H   H6        1.0  0.88522  0.23375  0.54379  1.0000
  H   H7        1.0  0.61478  0.23375  0.04379  1.0000
  H   H8        1.0  0.11478  0.76625  0.45621  1.0000
  H   H9        1.0  0.03441  0.33229  0.88158  1.0000
  H   H10       1.0  0.53441  0.66771  0.61842  1.0000
  H   H11       1.0  0.96559  0.66771  0.11842  1.0000
  H   H12       1.0  0.46559  0.33229  0.38157  1.0000
  H   H13       1.0  0.71315  0.08043  0.77394  1.0000
  H   H14       1.0  0.21315  0.91955  0.72607  1.0000
  H   H15       1.0  0.28685  0.91958  0.22606  1.0000
  H   H16       1.0  0.78686  0.08044  0.27393  1.0000
  H   H17       1.0  0.34607  0.46718  0.72317  1.0000
  H   H18       1.0  0.84608  0.53282  0.77683  1.0000
  H   H19       1.0  0.65393  0.53282  0.27683  1.0000
  H   H20       1.0  0.15392  0.46718  0.22317  1.0000
  H   H21       1.0  0.39867  0.29914  0.76359  1.0000
  H   H22       1.0  0.89868  0.70086  0.73641  1.0000
  H   H23       1.0  0.60133  0.70086  0.23641  1.0000
  H   H24       1.0  0.10132  0.29914  0.26359  1.0000
  C   C1        1.0  0.78045  0.97017  0.72425  1.0000
  C   C2        1.0  0.28047  0.02982  0.77573  1.0000
  C   C3        1.0  0.21954  0.02984  0.27575  1.0000
  C   C4        1.0  0.71952  0.97017  0.22427  1.0000
  C   C5        1.0  0.89272  0.32878  0.93093  1.0000
  C   C6        1.0  0.39272  0.67123  0.56906  1.0000
  C   C7        1.0  0.10728  0.67122  0.06907  1.0000
  C   C8        1.0  0.60728  0.32877  0.43094  1.0000
  O   O1        1.0  0.89647  0.90415  0.79891  1.0000
  O   O2        1.0  0.39644  0.09583  0.70110  1.0000
  O   O3        1.0  0.10352  0.09585  0.20110  1.0000
  O   O4        1.0  0.60355  0.90417  0.29889  1.0000
  O   O5        1.0  0.73544  0.91738  0.59577  1.0000
  O   O6        1.0  0.23543  0.08261  0.90425  1.0000
  O   O7        1.0  0.26457  0.08262  0.40423  1.0000
  O   O8        1.0  0.76457  0.91738  0.09575  1.0000
  O   O9        1.0  0.77959  0.44025  0.91814  1.0000
  O   O10       1.0  0.27959  0.55975  0.58185  1.0000
  O   O11       1.0  0.22041  0.55975  0.08186  1.0000
  O   O12       1.0  0.72041  0.44025  0.41815  1.0000
  O   O13       1.0  0.85347  0.21227  0.99551  1.0000
  O   O14       1.0  0.35347  0.78773  0.50449  1.0000
  O   O15       1.0  0.14653  0.78774  0.00450  1.0000
  O   O16       1.0  0.64652  0.21227  0.49551  1.0000
  O   O17       1.0  0.51482  0.72234  0.93648  1.0000
  O   O18       1.0  0.01482  0.27767  0.56353  1.0000
  O   O19       1.0  0.48518  0.27767  0.06352  1.0000
  O   O20       1.0  0.98518  0.72233  0.43648  1.0000
  O   O21       1.0  0.38561  0.41138  0.80374  1.0000
  O   O22       1.0  0.88562  0.58862  0.69626  1.0000
  O   O23       1.0  0.61439  0.58862  0.19626  1.0000
  O   O24       1.0  0.11438  0.41138  0.30374  1.0000
