data_image0
_chemical_formula_structural       Mg2Cu2H32C32O24
_chemical_formula_sum              "Mg2 Cu2 H32 C32 O24"
_cell_length_a       6.46698
_cell_length_b       6.89076
_cell_length_c       20.4929
_cell_angle_alpha    89.9999
_cell_angle_beta     89.9991
_cell_angle_gamma    90

_space_group_name_H-M_alt    "P 1"
_space_group_IT_number       1

loop_
  _space_group_symop_operation_xyz
  'x, y, z'

loop_
  _atom_site_type_symbol
  _atom_site_label
  _atom_site_symmetry_multiplicity
  _atom_site_fract_x
  _atom_site_fract_y
  _atom_site_fract_z
  _atom_site_occupancy
  Mg  Mg1       1.0  0.50000  0.11532  0.00000  1.0000
  Mg  Mg2       1.0  1.00000  0.88471  0.50000  1.0000
  Cu  Cu1       1.0  1.00000  0.72499  0.00000  1.0000
  Cu  Cu2       1.0  0.50000  0.27500  0.50000  1.0000
  H   H1        1.0  0.48794  0.41271  0.91964  1.0000
  H   H2        1.0  0.98791  0.58740  0.58039  1.0000
  H   H3        1.0  0.01209  0.58740  0.41961  1.0000
  H   H4        1.0  0.51206  0.41271  0.08036  1.0000
  H   H5        1.0  0.24969  0.37732  0.93508  1.0000
  H   H6        1.0  0.74965  0.62267  0.56494  1.0000
  H   H7        1.0  0.25035  0.62267  0.43506  1.0000
  H   H8        1.0  0.75031  0.37732  0.06492  1.0000
  H   H9        1.0  0.51876  0.77748  0.92658  1.0000
  H   H10       1.0  0.01877  0.22252  0.57346  1.0000
  H   H11       1.0  0.98123  0.22251  0.42654  1.0000
  H   H12       1.0  0.48124  0.77748  0.07342  1.0000
  H   H13       1.0  0.29426  0.88087  0.91791  1.0000
  H   H14       1.0  0.79426  0.11915  0.58213  1.0000
  H   H15       1.0  0.20574  0.11915  0.41787  1.0000
  H   H16       1.0  0.70574  0.88086  0.08209  1.0000
  H   H17       1.0  0.82522  0.58288  0.77635  1.0000
  H   H18       1.0  0.32524  0.41709  0.72368  1.0000
  H   H19       1.0  0.67476  0.41709  0.27632  1.0000
  H   H20       1.0  0.17478  0.58288  0.22365  1.0000
  H   H21       1.0  0.89512  0.38039  0.67885  1.0000
  H   H22       1.0  0.39512  0.61960  0.82119  1.0000
  H   H23       1.0  0.60488  0.61959  0.17881  1.0000
  H   H24       1.0  0.10488  0.38039  0.32115  1.0000
  H   H25       1.0  0.99197  0.03223  0.69174  1.0000
  H   H26       1.0  0.49197  0.96774  0.80831  1.0000
  H   H27       1.0  0.50803  0.96774  0.19169  1.0000
  H   H28       1.0  0.00803  0.03223  0.30827  1.0000
  H   H29       1.0  0.00823  0.88752  0.80336  1.0000
  H   H30       1.0  0.50820  0.11250  0.69668  1.0000
  H   H31       1.0  0.49180  0.11250  0.30331  1.0000
  H   H32       1.0  0.99177  0.88752  0.19664  1.0000
  C   C1        1.0  0.92709  0.15250  0.85225  1.0000
  C   C2        1.0  0.42710  0.84749  0.64779  1.0000
  C   C3        1.0  0.57290  0.84749  0.35220  1.0000
  C   C4        1.0  0.07291  0.15250  0.14775  1.0000
  C   C5        1.0  0.87777  0.35049  0.84462  1.0000
  C   C6        1.0  0.37780  0.64950  0.65542  1.0000
  C   C7        1.0  0.62220  0.64949  0.34458  1.0000
  C   C8        1.0  0.12223  0.35049  0.15538  1.0000
  C   C9        1.0  0.86512  0.43014  0.78204  1.0000
  C   C10       1.0  0.36515  0.56984  0.71799  1.0000
  C   C11       1.0  0.63485  0.56984  0.28200  1.0000
  C   C12       1.0  0.13488  0.43014  0.21796  1.0000
  C   C13       1.0  0.90474  0.31558  0.72724  1.0000
  C   C14       1.0  0.40476  0.68441  0.77280  1.0000
  C   C15       1.0  0.59525  0.68441  0.22720  1.0000
  C   C16       1.0  0.09526  0.31558  0.27276  1.0000
  C   C17       1.0  0.96005  0.12101  0.73460  1.0000
  C   C18       1.0  0.46005  0.87897  0.76544  1.0000
  C   C19       1.0  0.53996  0.87897  0.23456  1.0000
  C   C20       1.0  0.03995  0.12101  0.26540  1.0000
  C   C21       1.0  0.97020  0.04029  0.79695  1.0000
  C   C22       1.0  0.47019  0.95971  0.70309  1.0000
  C   C23       1.0  0.52981  0.95970  0.29691  1.0000
  C   C24       1.0  0.02980  0.04029  0.20305  1.0000
  C   C25       1.0  0.91154  0.05746  0.91765  1.0000
  C   C26       1.0  0.41149  0.94254  0.58239  1.0000
  C   C27       1.0  0.58851  0.94253  0.41761  1.0000
  C   C28       1.0  0.08846  0.05746  0.08235  1.0000
  C   C29       1.0  0.85425  0.48698  0.90122  1.0000
  C   C30       1.0  0.35420  0.51301  0.59881  1.0000
  C   C31       1.0  0.64580  0.51301  0.40119  1.0000
  C   C32       1.0  0.14575  0.48698  0.09878  1.0000
  O   O1        1.0  0.02143  0.90247  0.92567  1.0000
  O   O2        1.0  0.52137  0.09752  0.57434  1.0000
  O   O3        1.0  0.47863  0.09751  0.42566  1.0000
  O   O4        1.0  0.97857  0.90246  0.07433  1.0000
  O   O5        1.0  0.79028  0.12614  0.95940  1.0000
  O   O6        1.0  0.29019  0.87382  0.54065  1.0000
  O   O7        1.0  0.70981  0.87382  0.45935  1.0000
  O   O8        1.0  0.20973  0.12613  0.04060  1.0000
  O   O9        1.0  0.02149  0.51802  0.93387  1.0000
  O   O10       1.0  0.52138  0.48199  0.56614  1.0000
  O   O11       1.0  0.47862  0.48198  0.43385  1.0000
  O   O12       1.0  0.97851  0.51802  0.06613  1.0000
  O   O13       1.0  0.68577  0.57310  0.91180  1.0000
  O   O14       1.0  0.18569  0.42693  0.58828  1.0000
  O   O15       1.0  0.81430  0.42693  0.41172  1.0000
  O   O16       1.0  0.31423  0.57310  0.08821  1.0000
  O   O17       1.0  0.38581  0.31269  0.93273  1.0000
  O   O18       1.0  0.88575  0.68736  0.56727  1.0000
  O   O19       1.0  0.11425  0.68736  0.43273  1.0000
  O   O20       1.0  0.61420  0.31269  0.06727  1.0000
  O   O21       1.0  0.43927  0.89817  0.93152  1.0000
  O   O22       1.0  0.93924  0.10186  0.56849  1.0000
  O   O23       1.0  0.06076  0.10185  0.43151  1.0000
  O   O24       1.0  0.56073  0.89817  0.06848  1.0000
