data_image0
_chemical_formula_structural       Li4H72C40S4N4O12
_chemical_formula_sum              "Li4 H72 C40 S4 N4 O12"
_cell_length_a       6.31211
_cell_length_b       10.1462
_cell_length_c       19.4668
_cell_angle_alpha    94.1285
_cell_angle_beta     89.9997
_cell_angle_gamma    89.9989

_space_group_name_H-M_alt    "P 1"
_space_group_IT_number       1

loop_
  _space_group_symop_operation_xyz
  'x, y, z'

loop_
  _atom_site_type_symbol
  _atom_site_label
  _atom_site_symmetry_multiplicity
  _atom_site_fract_x
  _atom_site_fract_y
  _atom_site_fract_z
  _atom_site_occupancy
  Li  Li1       1.0  0.30620  0.47563  0.77470  1.0000
  Li  Li2       1.0  0.19377  0.97563  0.77470  1.0000
  Li  Li3       1.0  0.69378  0.52436  0.22530  1.0000
  Li  Li4       1.0  0.80624  0.02435  0.22530  1.0000
  H   H1        1.0  0.76304  0.52876  0.62783  1.0000
  H   H2        1.0  0.73697  0.02877  0.62784  1.0000
  H   H3        1.0  0.23698  0.47123  0.37216  1.0000
  H   H4        1.0  0.26305  0.97122  0.37217  1.0000
  H   H5        1.0  0.00152  0.43842  0.64023  1.0000
  H   H6        1.0  0.49849  0.93843  0.64024  1.0000
  H   H7        1.0  0.99848  0.56157  0.35977  1.0000
  H   H8        1.0  0.50150  0.06157  0.35977  1.0000
  H   H9        1.0  0.91863  0.47230  0.55580  1.0000
  H   H10       1.0  0.58139  0.97231  0.55581  1.0000
  H   H11       1.0  0.08138  0.52769  0.44419  1.0000
  H   H12       1.0  0.41861  0.02769  0.44420  1.0000
  H   H13       1.0  0.29839  0.57241  0.54252  1.0000
  H   H14       1.0  0.20163  0.07243  0.54251  1.0000
  H   H15       1.0  0.70163  0.42758  0.45748  1.0000
  H   H16       1.0  0.79838  0.92758  0.45749  1.0000
  H   H17       1.0  0.35683  0.54623  0.63004  1.0000
  H   H18       1.0  0.14317  0.04625  0.63003  1.0000
  H   H19       1.0  0.64318  0.45376  0.36996  1.0000
  H   H20       1.0  0.85683  0.95375  0.36998  1.0000
  H   H21       1.0  0.37784  0.70770  0.60012  1.0000
  H   H22       1.0  0.12216  0.20772  0.60011  1.0000
  H   H23       1.0  0.62217  0.29229  0.39987  1.0000
  H   H24       1.0  0.87783  0.79229  0.39989  1.0000
  H   H25       1.0  0.95315  0.70018  0.51436  1.0000
  H   H26       1.0  0.54688  0.20019  0.51435  1.0000
  H   H27       1.0  0.04687  0.29981  0.48564  1.0000
  H   H28       1.0  0.45315  0.79981  0.48565  1.0000
  H   H29       1.0  0.04083  0.83436  0.57105  1.0000
  H   H30       1.0  0.45916  0.33438  0.57106  1.0000
  H   H31       1.0  0.95917  0.16563  0.42894  1.0000
  H   H32       1.0  0.54086  0.66562  0.42894  1.0000
  H   H33       1.0  0.78801  0.76094  0.58343  1.0000
  H   H34       1.0  0.71201  0.26096  0.58344  1.0000
  H   H35       1.0  0.21201  0.23904  0.41656  1.0000
  H   H36       1.0  0.28800  0.73904  0.41656  1.0000
  H   H37       1.0  0.35065  0.31651  0.92576  1.0000
  H   H38       1.0  0.14935  0.81652  0.92575  1.0000
  H   H39       1.0  0.64935  0.68349  0.07425  1.0000
  H   H40       1.0  0.85065  0.18348  0.07424  1.0000
  H   H41       1.0  0.24684  0.22461  0.85123  1.0000
  H   H42       1.0  0.25315  0.72461  0.85123  1.0000
  H   H43       1.0  0.75316  0.77539  0.14878  1.0000
  H   H44       1.0  0.74686  0.27539  0.14877  1.0000
  H   H45       1.0  0.04377  0.28021  0.98845  1.0000
  H   H46       1.0  0.45621  0.78020  0.98845  1.0000
  H   H47       1.0  0.95622  0.71980  0.01156  1.0000
  H   H48       1.0  0.54377  0.21980  0.01155  1.0000
  H   H49       1.0  0.94874  0.17364  0.91842  1.0000
  H   H50       1.0  0.55125  0.67363  0.91842  1.0000
  H   H51       1.0  0.05125  0.82637  0.08158  1.0000
  H   H52       1.0  0.44875  0.32638  0.08158  1.0000
  H   H53       1.0  0.75370  0.34807  0.87038  1.0000
  H   H54       1.0  0.74631  0.84806  0.87038  1.0000
  H   H55       1.0  0.24632  0.65194  0.12962  1.0000
  H   H56       1.0  0.25368  0.15196  0.12962  1.0000
  H   H57       1.0  0.74905  0.41433  0.95761  1.0000
  H   H58       1.0  0.75094  0.91431  0.95761  1.0000
  H   H59       1.0  0.25095  0.58569  0.04239  1.0000
  H   H60       1.0  0.24905  0.08569  0.04239  1.0000
  H   H61       1.0  0.92941  0.55755  0.85850  1.0000
  H   H62       1.0  0.57059  0.05754  0.85850  1.0000
  H   H63       1.0  0.07060  0.44246  0.14150  1.0000
  H   H64       1.0  0.42939  0.94247  0.14151  1.0000
  H   H65       1.0  0.06265  0.54922  0.93976  1.0000
  H   H66       1.0  0.43735  0.04921  0.93976  1.0000
  H   H67       1.0  0.93737  0.45080  0.06024  1.0000
  H   H68       1.0  0.56262  0.95080  0.06025  1.0000
  H   H69       1.0  0.74410  0.85518  0.72128  1.0000
  H   H70       1.0  0.75580  0.35522  0.72129  1.0000
  H   H71       1.0  0.25588  0.14481  0.27871  1.0000
  H   H72       1.0  0.24418  0.64479  0.27872  1.0000
  C   C1        1.0  0.79537  0.75469  0.72775  1.0000
  C   C2        1.0  0.70456  0.25472  0.72775  1.0000
  C   C3        1.0  0.20462  0.24530  0.27224  1.0000
  C   C4        1.0  0.29542  0.74527  0.27225  1.0000
  C   C5        1.0  0.67085  0.66263  0.75706  1.0000
  C   C6        1.0  0.82912  0.16266  0.75705  1.0000
  C   C7        1.0  0.32913  0.33735  0.24294  1.0000
  C   C8        1.0  0.17090  0.83734  0.24295  1.0000
  C   C9        1.0  0.05274  0.64087  0.61344  1.0000
  C   C10       1.0  0.44723  0.14088  0.61345  1.0000
  C   C11       1.0  0.94727  0.35913  0.38655  1.0000
  C   C12       1.0  0.55276  0.85914  0.38655  1.0000
  C   C13       1.0  0.92631  0.51221  0.60975  1.0000
  C   C14       1.0  0.57369  0.01223  0.60975  1.0000
  C   C15       1.0  0.07370  0.48778  0.39025  1.0000
  C   C16       1.0  0.42630  0.98778  0.39026  1.0000
  C   C17       1.0  0.28622  0.61561  0.59585  1.0000
  C   C18       1.0  0.21378  0.11562  0.59584  1.0000
  C   C19       1.0  0.71380  0.38438  0.40415  1.0000
  C   C20       1.0  0.78622  0.88438  0.40416  1.0000
  C   C21       1.0  0.95298  0.74082  0.56821  1.0000
  C   C22       1.0  0.54702  0.24084  0.56821  1.0000
  C   C23       1.0  0.04703  0.25916  0.43178  1.0000
  C   C24       1.0  0.45299  0.75917  0.43179  1.0000
  C   C25       1.0  0.21139  0.30162  0.89194  1.0000
  C   C26       1.0  0.28860  0.80162  0.89194  1.0000
  C   C27       1.0  0.78861  0.69839  0.10807  1.0000
  C   C28       1.0  0.71139  0.19839  0.10806  1.0000
  C   C29       1.0  0.00977  0.27297  0.93294  1.0000
  C   C30       1.0  0.49022  0.77296  0.93294  1.0000
  C   C31       1.0  0.99022  0.72704  0.06706  1.0000
  C   C32       1.0  0.50979  0.22705  0.06706  1.0000
  C   C33       1.0  0.85321  0.38160  0.91449  1.0000
  C   C34       1.0  0.64678  0.88160  0.91449  1.0000
  C   C35       1.0  0.14679  0.61841  0.08551  1.0000
  C   C36       1.0  0.35321  0.11841  0.08552  1.0000
  C   C37       1.0  0.99984  0.49107  0.89404  1.0000
  C   C38       1.0  0.50015  0.99106  0.89404  1.0000
  C   C39       1.0  0.00017  0.50894  0.10596  1.0000
  C   C40       1.0  0.49983  0.00895  0.10596  1.0000
  S   S1        1.0  0.04219  0.71047  0.70376  1.0000
  S   S2        1.0  0.45774  0.21048  0.70375  1.0000
  S   S3        1.0  0.95781  0.28952  0.29623  1.0000
  S   S4        1.0  0.54225  0.78952  0.29624  1.0000
  N   N1        1.0  0.56922  0.58210  0.78293  1.0000
  N   N2        1.0  0.93075  0.08212  0.78292  1.0000
  N   N3        1.0  0.43077  0.41790  0.21707  1.0000
  N   N4        1.0  0.06924  0.91789  0.21708  1.0000
  O   O1        1.0  0.10998  0.60149  0.74422  1.0000
  O   O2        1.0  0.38998  0.10150  0.74421  1.0000
  O   O3        1.0  0.89002  0.39851  0.25578  1.0000
  O   O4        1.0  0.61001  0.89850  0.25579  1.0000
  O   O5        1.0  0.17721  0.82910  0.70499  1.0000
  O   O6        1.0  0.32272  0.32911  0.70499  1.0000
  O   O7        1.0  0.82275  0.17090  0.29500  1.0000
  O   O8        1.0  0.67728  0.67090  0.29502  1.0000
  O   O9        1.0  0.17184  0.42223  0.85835  1.0000
  O   O10       1.0  0.32816  0.92222  0.85835  1.0000
  O   O11       1.0  0.82815  0.57777  0.14165  1.0000
  O   O12       1.0  0.67183  0.07778  0.14165  1.0000
