data_image0
_chemical_formula_structural       Cd2H48C68N8O12
_chemical_formula_sum              "Cd2 H48 C68 N8 O12"
_cell_length_a       9.8192
_cell_length_b       10.415
_cell_length_c       14.0662
_cell_angle_alpha    86.4044
_cell_angle_beta     81.5359
_cell_angle_gamma    81.0478

_space_group_name_H-M_alt    "P 1"
_space_group_IT_number       1

loop_
  _space_group_symop_operation_xyz
  'x, y, z'

loop_
  _atom_site_type_symbol
  _atom_site_label
  _atom_site_symmetry_multiplicity
  _atom_site_fract_x
  _atom_site_fract_y
  _atom_site_fract_z
  _atom_site_occupancy
  Cd  Cd1       1.0  0.61307  0.60714  0.55323  1.0000
  Cd  Cd2       1.0  0.38693  0.39286  0.44677  1.0000
  H   H1        1.0  0.60661  0.09437  0.54282  1.0000
  H   H2        1.0  0.39339  0.90564  0.45718  1.0000
  H   H3        1.0  0.95665  0.84357  0.63709  1.0000
  H   H4        1.0  0.04335  0.15643  0.36291  1.0000
  H   H5        1.0  0.07352  0.03693  0.65210  1.0000
  H   H6        1.0  0.92648  0.96307  0.34790  1.0000
  H   H7        1.0  0.95024  0.25962  0.61776  1.0000
  H   H8        1.0  0.04976  0.74038  0.38224  1.0000
  H   H9        1.0  0.28618  0.29343  0.23998  1.0000
  H   H10       1.0  0.71382  0.70657  0.76002  1.0000
  H   H11       1.0  0.80731  0.89082  0.96055  1.0000
  H   H12       1.0  0.19269  0.10917  0.03945  1.0000
  H   H13       1.0  0.32321  0.04990  0.24695  1.0000
  H   H14       1.0  0.67679  0.95010  0.75305  1.0000
  H   H15       1.0  0.50789  0.86146  0.21185  1.0000
  H   H16       1.0  0.49211  0.13854  0.78815  1.0000
  H   H17       1.0  0.69768  0.87560  0.07897  1.0000
  H   H18       1.0  0.30232  0.12440  0.92103  1.0000
  H   H19       1.0  0.45723  0.39332  0.02578  1.0000
  H   H20       1.0  0.54277  0.60668  0.97422  1.0000
  H   H21       1.0  0.64826  0.40705  0.89127  1.0000
  H   H22       1.0  0.35174  0.59295  0.10873  1.0000
  H   H23       1.0  0.82368  0.21414  0.84792  1.0000
  H   H24       1.0  0.17632  0.78585  0.15208  1.0000
  H   H25       1.0  0.88052  0.45363  0.41587  1.0000
  H   H26       1.0  0.11949  0.54637  0.58413  1.0000
  H   H27       1.0  0.62683  0.80514  0.38313  1.0000
  H   H28       1.0  0.37317  0.19486  0.61687  1.0000
  H   H29       1.0  0.77092  0.85807  0.22553  1.0000
  H   H30       1.0  0.22907  0.14193  0.77447  1.0000
  H   H31       1.0  0.96817  0.69811  0.16028  1.0000
  H   H32       1.0  0.03183  0.30189  0.83972  1.0000
  H   H33       1.0  0.09323  0.38788  0.30021  1.0000
  H   H34       1.0  0.90677  0.61212  0.69978  1.0000
  H   H35       1.0  0.06082  0.51071  0.09704  1.0000
  H   H36       1.0  0.93918  0.48929  0.90295  1.0000
  H   H37       1.0  0.37362  0.79205  0.66835  1.0000
  H   H38       1.0  0.62638  0.20795  0.33165  1.0000
  H   H39       1.0  0.52110  0.40422  0.72335  1.0000
  H   H40       1.0  0.47890  0.59578  0.27665  1.0000
  H   H41       1.0  0.34421  0.39315  0.87191  1.0000
  H   H42       1.0  0.65579  0.60685  0.12809  1.0000
  H   H43       1.0  0.17635  0.59074  0.91694  1.0000
  H   H44       1.0  0.82365  0.40926  0.08306  1.0000
  H   H45       1.0  0.19775  0.91688  0.77663  1.0000
  H   H46       1.0  0.80224  0.08312  0.22337  1.0000
  H   H47       1.0  0.00649  0.76437  0.91908  1.0000
  H   H48       1.0  0.99352  0.23563  0.08092  1.0000
  C   C1        1.0  0.77151  0.19120  0.57883  1.0000
  C   C2        1.0  0.22849  0.80880  0.42118  1.0000
  C   C3        1.0  0.70824  0.08255  0.56740  1.0000
  C   C4        1.0  0.29175  0.91745  0.43260  1.0000
  C   C5        1.0  0.77475  0.95752  0.58989  1.0000
  C   C6        1.0  0.22525  0.04248  0.41011  1.0000
  C   C7        1.0  0.90653  0.94151  0.62024  1.0000
  C   C8        1.0  0.09347  0.05849  0.37977  1.0000
  C   C9        1.0  0.97118  0.04931  0.62878  1.0000
  C   C10       1.0  0.02882  0.95069  0.37122  1.0000
  C   C11       1.0  0.90343  0.17371  0.60913  1.0000
  C   C12       1.0  0.09657  0.82629  0.39087  1.0000
  C   C13       1.0  0.69882  0.32737  0.56390  1.0000
  C   C14       1.0  0.30118  0.67263  0.43610  1.0000
  C   C15       1.0  0.70322  0.84107  0.58656  1.0000
  C   C16       1.0  0.29678  0.15893  0.41344  1.0000
  C   C17       1.0  0.41359  0.17568  0.13818  1.0000
  C   C18       1.0  0.58641  0.82432  0.86182  1.0000
  C   C19       1.0  0.40981  0.05924  0.19052  1.0000
  C   C20       1.0  0.59019  0.94076  0.80948  1.0000
  C   C21       1.0  0.51395  0.95225  0.16962  1.0000
  C   C22       1.0  0.48605  0.04775  0.83038  1.0000
  C   C23       1.0  0.62023  0.96096  0.09485  1.0000
  C   C24       1.0  0.37977  0.03904  0.90515  1.0000
  C   C25       1.0  0.62739  0.07814  0.03867  1.0000
  C   C26       1.0  0.37261  0.92186  0.96133  1.0000
  C   C27       1.0  0.52327  0.18957  0.06100  1.0000
  C   C28       1.0  0.47673  0.81043  0.93900  1.0000
  C   C29       1.0  0.53396  0.30826  0.00755  1.0000
  C   C30       1.0  0.46604  0.69173  0.99245  1.0000
  C   C31       1.0  0.64100  0.31582  0.93301  1.0000
  C   C32       1.0  0.35900  0.68418  0.06699  1.0000
  C   C33       1.0  0.74197  0.20723  0.90821  1.0000
  C   C34       1.0  0.25803  0.79277  0.09179  1.0000
  C   C35       1.0  0.73668  0.08976  0.96017  1.0000
  C   C36       1.0  0.26332  0.91024  0.03983  1.0000
  C   C37       1.0  0.93912  0.55817  0.28045  1.0000
  C   C38       1.0  0.06088  0.44183  0.71955  1.0000
  C   C39       1.0  0.85741  0.54023  0.36976  1.0000
  C   C40       1.0  0.14259  0.45977  0.63024  1.0000
  C   C41       1.0  0.71577  0.73772  0.35158  1.0000
  C   C42       1.0  0.28423  0.26228  0.64843  1.0000
  C   C43       1.0  0.79448  0.76583  0.26449  1.0000
  C   C44       1.0  0.20552  0.23417  0.73551  1.0000
  C   C45       1.0  0.90602  0.67525  0.22809  1.0000
  C   C46       1.0  0.09398  0.32475  0.77191  1.0000
  C   C47       1.0  0.05350  0.45771  0.24570  1.0000
  C   C48       1.0  0.94650  0.54229  0.75430  1.0000
  C   C49       1.0  0.10636  0.44599  0.15194  1.0000
  C   C50       1.0  0.89365  0.55402  0.84806  1.0000
  C   C51       1.0  0.21430  0.34178  0.11003  1.0000
  C   C52       1.0  0.78570  0.65822  0.88997  1.0000
  C   C53       1.0  0.25866  0.70852  0.79550  1.0000
  C   C54       1.0  0.74134  0.29148  0.20450  1.0000
  C   C55       1.0  0.36228  0.70529  0.71502  1.0000
  C   C56       1.0  0.63772  0.29471  0.28498  1.0000
  C   C57       1.0  0.44543  0.48851  0.74605  1.0000
  C   C58       1.0  0.55457  0.51149  0.25395  1.0000
  C   C59       1.0  0.34681  0.48258  0.82769  1.0000
  C   C60       1.0  0.65319  0.51742  0.17231  1.0000
  C   C61       1.0  0.25270  0.59319  0.85252  1.0000
  C   C62       1.0  0.74730  0.40681  0.14748  1.0000
  C   C63       1.0  0.16655  0.82981  0.81594  1.0000
  C   C64       1.0  0.83345  0.17019  0.18406  1.0000
  C   C65       1.0  0.04755  0.84566  0.87802  1.0000
  C   C66       1.0  0.95245  0.15434  0.12198  1.0000
  C   C67       1.0  0.96859  0.97767  0.89138  1.0000
  C   C68       1.0  0.03142  0.02233  0.10862  1.0000
  N   N1        1.0  0.30877  0.28220  0.16658  1.0000
  N   N2        1.0  0.69123  0.71779  0.83342  1.0000
  N   N3        1.0  0.83499  0.97957  0.93768  1.0000
  N   N4        1.0  0.16501  0.02042  0.06232  1.0000
  N   N5        1.0  0.74767  0.62682  0.40349  1.0000
  N   N6        1.0  0.25233  0.37318  0.59651  1.0000
  N   N7        1.0  0.45244  0.59807  0.69070  1.0000
  N   N8        1.0  0.54756  0.40193  0.30930  1.0000
  O   O1        1.0  0.76076  0.42005  0.58321  1.0000
  O   O2        1.0  0.23924  0.57995  0.41679  1.0000
  O   O3        1.0  0.57948  0.34637  0.53608  1.0000
  O   O4        1.0  0.42052  0.65364  0.46392  1.0000
  O   O5        1.0  0.59446  0.85093  0.54661  1.0000
  O   O6        1.0  0.40554  0.14907  0.45340  1.0000
  O   O7        1.0  0.75641  0.73286  0.62568  1.0000
  O   O8        1.0  0.24359  0.26714  0.37431  1.0000
  O   O9        1.0  0.21496  0.31151  0.02488  1.0000
  O   O10       1.0  0.78503  0.68850  0.97512  1.0000
  O   O11       1.0  0.02014  0.07723  0.86310  1.0000
  O   O12       1.0  0.97986  0.92277  0.13690  1.0000
