data_image0
_chemical_formula_structural       Zn4P8H32C28N8O32
_chemical_formula_sum              "Zn4 P8 H32 C28 N8 O32"
_cell_length_a       7.41813
_cell_length_b       9.69704
_cell_length_c       16.0693
_cell_angle_alpha    90
_cell_angle_beta     90.0003
_cell_angle_gamma    89.4638

_space_group_name_H-M_alt    "P 1"
_space_group_IT_number       1

loop_
  _space_group_symop_operation_xyz
  'x, y, z'

loop_
  _atom_site_type_symbol
  _atom_site_label
  _atom_site_symmetry_multiplicity
  _atom_site_fract_x
  _atom_site_fract_y
  _atom_site_fract_z
  _atom_site_occupancy
  Zn  Zn1       1.0  0.77222  0.70537  0.68464  1.0000
  Zn  Zn2       1.0  0.22778  0.79463  0.18464  1.0000
  Zn  Zn3       1.0  0.22778  0.29463  0.31536  1.0000
  Zn  Zn4       1.0  0.77222  0.20537  0.81536  1.0000
  P   P1        1.0  0.89238  0.39766  0.65085  1.0000
  P   P2        1.0  0.10763  0.10234  0.15085  1.0000
  P   P3        1.0  0.10762  0.60234  0.34915  1.0000
  P   P4        1.0  0.89237  0.89766  0.84915  1.0000
  P   P5        1.0  0.48480  0.47388  0.64772  1.0000
  P   P6        1.0  0.51520  0.02612  0.14772  1.0000
  P   P7        1.0  0.51520  0.52612  0.35228  1.0000
  P   P8        1.0  0.48480  0.97388  0.85228  1.0000
  H   H1        1.0  0.15442  0.39434  0.58604  1.0000
  H   H2        1.0  0.84557  0.10566  0.08604  1.0000
  H   H3        1.0  0.84558  0.60566  0.41396  1.0000
  H   H4        1.0  0.15442  0.89434  0.91396  1.0000
  H   H5        1.0  0.50931  0.41978  0.77837  1.0000
  H   H6        1.0  0.49068  0.08022  0.27837  1.0000
  H   H7        1.0  0.49070  0.58022  0.22163  1.0000
  H   H8        1.0  0.50931  0.91978  0.72163  1.0000
  H   H9        1.0  0.72286  0.35093  0.43484  1.0000
  H   H10       1.0  0.27714  0.14907  0.93484  1.0000
  H   H11       1.0  0.27714  0.64908  0.56516  1.0000
  H   H12       1.0  0.72286  0.85093  0.06516  1.0000
  H   H13       1.0  0.60590  0.18189  0.62481  1.0000
  H   H14       1.0  0.39410  0.31810  0.12481  1.0000
  H   H15       1.0  0.39410  0.81811  0.37519  1.0000
  H   H16       1.0  0.60590  0.68189  0.87519  1.0000
  H   H17       1.0  0.83217  0.25108  0.31695  1.0000
  H   H18       1.0  0.16782  0.24892  0.81695  1.0000
  H   H19       1.0  0.16782  0.74892  0.68305  1.0000
  H   H20       1.0  0.83218  0.75108  0.18306  1.0000
  H   H21       1.0  0.89236  0.99383  0.31177  1.0000
  H   H22       1.0  0.10763  0.50617  0.81177  1.0000
  H   H23       1.0  0.10764  0.00618  0.68823  1.0000
  H   H24       1.0  0.89237  0.49383  0.18823  1.0000
  H   H25       1.0  0.82846  0.85687  0.44177  1.0000
  H   H26       1.0  0.17154  0.64312  0.94177  1.0000
  H   H27       1.0  0.17154  0.14312  0.55823  1.0000
  H   H28       1.0  0.82847  0.35688  0.05823  1.0000
  H   H29       1.0  0.68989  0.45115  0.53680  1.0000
  H   H30       1.0  0.31011  0.04884  0.03680  1.0000
  H   H31       1.0  0.31011  0.54885  0.46320  1.0000
  H   H32       1.0  0.68989  0.95116  0.96320  1.0000
  C   C1        1.0  0.80884  0.18280  0.36941  1.0000
  C   C2        1.0  0.19116  0.31719  0.86941  1.0000
  C   C3        1.0  0.19116  0.81721  0.63059  1.0000
  C   C4        1.0  0.80884  0.68281  0.13059  1.0000
  C   C5        1.0  0.83889  0.04261  0.36764  1.0000
  C   C6        1.0  0.16110  0.45739  0.86764  1.0000
  C   C7        1.0  0.16110  0.95740  0.63236  1.0000
  C   C8        1.0  0.83890  0.54260  0.13236  1.0000
  C   C9        1.0  0.80070  0.96733  0.43962  1.0000
  C   C10       1.0  0.19930  0.53266  0.93963  1.0000
  C   C11       1.0  0.19930  0.03267  0.56037  1.0000
  C   C12       1.0  0.80071  0.46734  0.06037  1.0000
  C   C13       1.0  0.73113  0.03029  0.51076  1.0000
  C   C14       1.0  0.26887  0.46971  0.01076  1.0000
  C   C15       1.0  0.26887  0.96971  0.48924  1.0000
  C   C16       1.0  0.73115  0.53029  0.98925  1.0000
  C   C17       1.0  0.70235  0.17590  0.51002  1.0000
  C   C18       1.0  0.29764  0.32409  0.01002  1.0000
  C   C19       1.0  0.29764  0.82411  0.48998  1.0000
  C   C20       1.0  0.70236  0.67591  0.98998  1.0000
  C   C21       1.0  0.69925  0.94516  0.58677  1.0000
  C   C22       1.0  0.30076  0.55483  0.08677  1.0000
  C   C23       1.0  0.30075  0.05484  0.41323  1.0000
  C   C24       1.0  0.69926  0.44517  0.91323  1.0000
  C   C25       1.0  0.67590  0.39022  0.59420  1.0000
  C   C26       1.0  0.32410  0.10978  0.09419  1.0000
  C   C27       1.0  0.32409  0.60977  0.40580  1.0000
  C   C28       1.0  0.67591  0.89023  0.90580  1.0000
  N   N1        1.0  0.74556  0.24490  0.43896  1.0000
  N   N2        1.0  0.25443  0.25510  0.93895  1.0000
  N   N3        1.0  0.25443  0.75510  0.56104  1.0000
  N   N4        1.0  0.74557  0.74490  0.06105  1.0000
  N   N5        1.0  0.63614  0.24643  0.57579  1.0000
  N   N6        1.0  0.36385  0.25357  0.07578  1.0000
  N   N7        1.0  0.36385  0.75357  0.42422  1.0000
  N   N8        1.0  0.63615  0.74643  0.92422  1.0000
  O   O1        1.0  0.76919  0.82412  0.58541  1.0000
  O   O2        1.0  0.23081  0.67588  0.08541  1.0000
  O   O3        1.0  0.23081  0.17588  0.41458  1.0000
  O   O4        1.0  0.76919  0.32412  0.91458  1.0000
  O   O5        1.0  0.60860  0.99628  0.64670  1.0000
  O   O6        1.0  0.39141  0.50372  0.14670  1.0000
  O   O7        1.0  0.39139  0.00372  0.35329  1.0000
  O   O8        1.0  0.60861  0.49629  0.85329  1.0000
  O   O9        1.0  0.88220  0.29448  0.72163  1.0000
  O   O10       1.0  0.11781  0.20551  0.22163  1.0000
  O   O11       1.0  0.11781  0.70552  0.27837  1.0000
  O   O12       1.0  0.88219  0.79448  0.77837  1.0000
  O   O13       1.0  0.93669  0.54544  0.67497  1.0000
  O   O14       1.0  0.06331  0.95456  0.17496  1.0000
  O   O15       1.0  0.06331  0.45456  0.32503  1.0000
  O   O16       1.0  0.93669  0.04544  0.82504  1.0000
  O   O17       1.0  0.03189  0.34378  0.58420  1.0000
  O   O18       1.0  0.96811  0.15622  0.08420  1.0000
  O   O19       1.0  0.96811  0.65622  0.41580  1.0000
  O   O20       1.0  0.03189  0.84378  0.91580  1.0000
  O   O21       1.0  0.44582  0.38174  0.72662  1.0000
  O   O22       1.0  0.55417  0.11826  0.22662  1.0000
  O   O23       1.0  0.55418  0.61827  0.27338  1.0000
  O   O24       1.0  0.44582  0.88174  0.77337  1.0000
  O   O25       1.0  0.32599  0.47200  0.58783  1.0000
  O   O26       1.0  0.67400  0.02800  0.08784  1.0000
  O   O27       1.0  0.67401  0.52800  0.41217  1.0000
  O   O28       1.0  0.32600  0.97200  0.91216  1.0000
  O   O29       1.0  0.53757  0.61869  0.67341  1.0000
  O   O30       1.0  0.46243  0.88131  0.17341  1.0000
  O   O31       1.0  0.46243  0.38131  0.32659  1.0000
  O   O32       1.0  0.53757  0.11869  0.82659  1.0000
