data_image0
_chemical_formula_structural       Mn4H20C6Se4N4
_chemical_formula_sum              "Mn4 H20 C6 Se4 N4"
_cell_length_a       6.49825
_cell_length_b       6.61352
_cell_length_c       10.6973
_cell_angle_alpha    107.984
_cell_angle_beta     90.0005
_cell_angle_gamma    89.9995

_space_group_name_H-M_alt    "P 1"
_space_group_IT_number       1

loop_
  _space_group_symop_operation_xyz
  'x, y, z'

loop_
  _atom_site_type_symbol
  _atom_site_label
  _atom_site_symmetry_multiplicity
  _atom_site_fract_x
  _atom_site_fract_y
  _atom_site_fract_z
  _atom_site_occupancy
  Mn  Mn1       1.0  0.00109  0.36275  0.41607  1.0000
  Mn  Mn2       1.0  0.50108  0.63727  0.58393  1.0000
  Mn  Mn3       1.0  0.50149  0.05304  0.41603  1.0000
  Mn  Mn4       1.0  0.00148  0.94696  0.58397  1.0000
  H   H1        1.0  0.20591  0.84917  0.25881  1.0000
  H   H2        1.0  0.70590  0.15084  0.74119  1.0000
  H   H3        1.0  0.70587  0.40967  0.25871  1.0000
  H   H4        1.0  0.20586  0.59032  0.74128  1.0000
  H   H5        1.0  0.38179  0.66833  0.25864  1.0000
  H   H6        1.0  0.88179  0.33167  0.74136  1.0000
  H   H7        1.0  0.88186  0.59020  0.25854  1.0000
  H   H8        1.0  0.38186  0.40979  0.74146  1.0000
  H   H9        1.0  0.41886  0.99652  0.12314  1.0000
  H   H10       1.0  0.91886  0.00347  0.87686  1.0000
  H   H11       1.0  0.91898  0.12667  0.12319  1.0000
  H   H12       1.0  0.41895  0.87333  0.87681  1.0000
  H   H13       1.0  0.60735  0.80357  0.12098  1.0000
  H   H14       1.0  0.10736  0.19641  0.87901  1.0000
  H   H15       1.0  0.10737  0.31750  0.12095  1.0000
  H   H16       1.0  0.60735  0.68251  0.87905  1.0000
  H   H17       1.0  0.17352  0.71055  0.00002  1.0000
  H   H18       1.0  0.67354  0.28945  0.99998  1.0000
  H   H19       1.0  0.35882  0.51337  0.00008  1.0000
  H   H20       1.0  0.85883  0.48662  0.99991  1.0000
  C   C1        1.0  0.43989  0.83090  0.12280  1.0000
  C   C2        1.0  0.93989  0.16910  0.87720  1.0000
  C   C3        1.0  0.93992  0.29191  0.12278  1.0000
  C   C4        1.0  0.43990  0.70808  0.87722  1.0000
  C   C5        1.0  0.34040  0.67919  0.00004  1.0000
  C   C6        1.0  0.84041  0.32081  0.99996  1.0000
  Se  Se1       1.0  0.88154  0.98016  0.36778  1.0000
  Se  Se2       1.0  0.38152  0.01986  0.63222  1.0000
  Se  Se3       1.0  0.38120  0.38736  0.36801  1.0000
  Se  Se4       1.0  0.88119  0.61264  0.63200  1.0000
  N   N1        1.0  0.36196  0.81785  0.24916  1.0000
  N   N2        1.0  0.86196  0.18215  0.75083  1.0000
  N   N3        1.0  0.86193  0.43126  0.24908  1.0000
  N   N4        1.0  0.36192  0.56874  0.75091  1.0000
