data_image0
_chemical_formula_structural       Mn8H32C8Se8N8
_chemical_formula_sum              "Mn8 H32 C8 Se8 N8"
_cell_length_a       6.58003
_cell_length_b       6.6235
_cell_length_c       17.4763
_cell_angle_alpha    90.0004
_cell_angle_beta     90.0001
_cell_angle_gamma    90.0001

_space_group_name_H-M_alt    "P 1"
_space_group_IT_number       1

loop_
  _space_group_symop_operation_xyz
  'x, y, z'

loop_
  _atom_site_type_symbol
  _atom_site_label
  _atom_site_symmetry_multiplicity
  _atom_site_fract_x
  _atom_site_fract_y
  _atom_site_fract_z
  _atom_site_occupancy
  Mn  Mn1       1.0  0.81702  0.40277  0.70101  1.0000
  Mn  Mn2       1.0  0.81701  0.90276  0.79899  1.0000
  Mn  Mn3       1.0  0.68298  0.40277  0.20101  1.0000
  Mn  Mn4       1.0  0.31702  0.09723  0.70101  1.0000
  Mn  Mn5       1.0  0.18298  0.59723  0.29899  1.0000
  Mn  Mn6       1.0  0.18298  0.09723  0.20101  1.0000
  Mn  Mn7       1.0  0.31702  0.59723  0.79899  1.0000
  Mn  Mn8       1.0  0.68298  0.90277  0.29899  1.0000
  H   H1        1.0  0.93773  0.70635  0.60709  1.0000
  H   H2        1.0  0.93773  0.20634  0.89291  1.0000
  H   H3        1.0  0.56226  0.70635  0.10709  1.0000
  H   H4        1.0  0.43774  0.79366  0.60709  1.0000
  H   H5        1.0  0.06226  0.29366  0.39291  1.0000
  H   H6        1.0  0.06227  0.79366  0.10709  1.0000
  H   H7        1.0  0.43774  0.29366  0.89291  1.0000
  H   H8        1.0  0.56226  0.20634  0.39291  1.0000
  H   H9        1.0  0.11954  0.53836  0.61987  1.0000
  H   H10       1.0  0.11954  0.03836  0.88013  1.0000
  H   H11       1.0  0.38046  0.53837  0.11987  1.0000
  H   H12       1.0  0.61954  0.96164  0.61987  1.0000
  H   H13       1.0  0.88045  0.46164  0.38013  1.0000
  H   H14       1.0  0.88045  0.96163  0.11987  1.0000
  H   H15       1.0  0.61955  0.46164  0.88013  1.0000
  H   H16       1.0  0.38045  0.03836  0.38013  1.0000
  H   H17       1.0  0.76897  0.49469  0.51481  1.0000
  H   H18       1.0  0.76896  0.99468  0.98519  1.0000
  H   H19       1.0  0.73104  0.49471  0.01481  1.0000
  H   H20       1.0  0.26896  0.00530  0.51481  1.0000
  H   H21       1.0  0.23104  0.50531  0.48519  1.0000
  H   H22       1.0  0.23104  0.00530  0.01481  1.0000
  H   H23       1.0  0.26896  0.50531  0.98519  1.0000
  H   H24       1.0  0.73104  0.99470  0.48519  1.0000
  H   H25       1.0  0.94105  0.29754  0.53717  1.0000
  H   H26       1.0  0.94104  0.79754  0.96283  1.0000
  H   H27       1.0  0.55897  0.29755  0.03717  1.0000
  H   H28       1.0  0.44104  0.20245  0.53717  1.0000
  H   H29       1.0  0.05896  0.70246  0.46283  1.0000
  H   H30       1.0  0.05895  0.20245  0.03717  1.0000
  H   H31       1.0  0.44105  0.70246  0.96283  1.0000
  H   H32       1.0  0.55896  0.79755  0.46283  1.0000
  C   C1        1.0  0.92749  0.46255  0.53102  1.0000
  C   C2        1.0  0.92749  0.96254  0.96898  1.0000
  C   C3        1.0  0.57251  0.46256  0.03101  1.0000
  C   C4        1.0  0.42749  0.03745  0.53102  1.0000
  C   C5        1.0  0.07250  0.53745  0.46898  1.0000
  C   C6        1.0  0.07251  0.03745  0.03102  1.0000
  C   C7        1.0  0.42750  0.53745  0.96898  1.0000
  C   C8        1.0  0.57251  0.96255  0.46898  1.0000
  Se  Se1       1.0  0.94287  0.04552  0.67415  1.0000
  Se  Se2       1.0  0.94287  0.54552  0.82585  1.0000
  Se  Se3       1.0  0.55713  0.04553  0.17415  1.0000
  Se  Se4       1.0  0.44287  0.45448  0.67415  1.0000
  Se  Se5       1.0  0.05713  0.95448  0.32585  1.0000
  Se  Se6       1.0  0.05713  0.45448  0.17415  1.0000
  Se  Se7       1.0  0.44287  0.95448  0.82585  1.0000
  Se  Se8       1.0  0.55713  0.54552  0.32585  1.0000
  N   N1        1.0  0.96702  0.55334  0.60644  1.0000
  N   N2        1.0  0.96701  0.05335  0.89356  1.0000
  N   N3        1.0  0.53299  0.55336  0.10644  1.0000
  N   N4        1.0  0.46701  0.94664  0.60644  1.0000
  N   N5        1.0  0.03299  0.44665  0.39356  1.0000
  N   N6        1.0  0.03299  0.94664  0.10644  1.0000
  N   N7        1.0  0.46702  0.44665  0.89356  1.0000
  N   N8        1.0  0.53299  0.05335  0.39356  1.0000
