data_image0
_chemical_formula_structural       CdH24C36N6O6F8
_chemical_formula_sum              "Cd1 H24 C36 N6 O6 F8"
_cell_length_a       10.1637
_cell_length_b       10.3571
_cell_length_c       10.3633
_cell_angle_alpha    71.9584
_cell_angle_beta     77.4834
_cell_angle_gamma    78.1523

_space_group_name_H-M_alt    "P 1"
_space_group_IT_number       1

loop_
  _space_group_symop_operation_xyz
  'x, y, z'

loop_
  _atom_site_type_symbol
  _atom_site_label
  _atom_site_symmetry_multiplicity
  _atom_site_fract_x
  _atom_site_fract_y
  _atom_site_fract_z
  _atom_site_occupancy
  Cd  Cd1       1.0  0.00000  0.49999  0.50000  1.0000
  H   H1        1.0  0.75755  0.53633  0.77010  1.0000
  H   H2        1.0  0.24245  0.46367  0.22991  1.0000
  H   H3        1.0  0.13923  0.65778  0.63704  1.0000
  H   H4        1.0  0.86077  0.34222  0.36295  1.0000
  H   H5        1.0  0.72462  0.61323  0.98276  1.0000
  H   H6        1.0  0.27538  0.38677  0.01725  1.0000
  H   H7        1.0  0.11984  0.74621  0.83724  1.0000
  H   H8        1.0  0.88016  0.25381  0.16274  1.0000
  H   H9        1.0  0.79646  0.74435  0.10544  1.0000
  H   H10       1.0  0.20355  0.25566  0.89455  1.0000
  H   H11       1.0  0.95979  0.65769  0.12999  1.0000
  H   H12       1.0  0.04022  0.34232  0.87001  1.0000
  H   H13       1.0  0.07722  0.18231  0.62265  1.0000
  H   H14       1.0  0.92278  0.81767  0.37736  1.0000
  H   H15       1.0  0.69570  0.41811  0.60830  1.0000
  H   H16       1.0  0.30431  0.58188  0.39170  1.0000
  H   H17       1.0  0.98350  0.96817  0.65411  1.0000
  H   H18       1.0  0.01650  0.03182  0.34590  1.0000
  H   H19       1.0  0.58454  0.21397  0.64091  1.0000
  H   H20       1.0  0.41547  0.78603  0.35908  1.0000
  H   H21       1.0  0.79713  0.86638  0.63838  1.0000
  H   H22       1.0  0.20286  0.13362  0.36162  1.0000
  H   H23       1.0  0.67385  0.90493  0.77487  1.0000
  H   H24       1.0  0.32615  0.09506  0.22514  1.0000
  C   C1        1.0  0.83609  0.58156  0.79040  1.0000
  C   C2        1.0  0.16392  0.41844  0.20961  1.0000
  C   C3        1.0  0.04764  0.65135  0.71472  1.0000
  C   C4        1.0  0.95236  0.34866  0.28527  1.0000
  C   C5        1.0  0.81817  0.62559  0.90808  1.0000
  C   C6        1.0  0.18183  0.37441  0.09192  1.0000
  C   C7        1.0  0.03671  0.69953  0.82812  1.0000
  C   C8        1.0  0.96328  0.30048  0.17188  1.0000
  C   C9        1.0  0.91938  0.68745  0.92844  1.0000
  C   C10       1.0  0.08062  0.31257  0.07154  1.0000
  C   C11       1.0  0.90328  0.73622  0.05479  1.0000
  C   C12       1.0  0.09672  0.26378  0.94520  1.0000
  C   C13       1.0  0.95366  0.87098  0.02632  1.0000
  C   C14       1.0  0.04635  0.12903  0.97369  1.0000
  C   C15       1.0  0.86699  0.99578  0.99402  1.0000
  C   C16       1.0  0.13302  0.00422  0.00598  1.0000
  C   C17       1.0  0.91195  0.12088  0.96939  1.0000
  C   C18       1.0  0.08805  0.87913  0.03062  1.0000
  C   C19       1.0  0.96857  0.18457  0.62772  1.0000
  C   C20       1.0  0.03143  0.81540  0.37229  1.0000
  C   C21       1.0  0.75528  0.31568  0.62056  1.0000
  C   C22       1.0  0.24473  0.68431  0.37943  1.0000
  C   C23       1.0  0.91562  0.06558  0.64554  1.0000
  C   C24       1.0  0.08438  0.93440  0.35447  1.0000
  C   C25       1.0  0.69439  0.20145  0.63846  1.0000
  C   C26       1.0  0.30561  0.79855  0.36154  1.0000
  C   C27       1.0  0.77594  0.07306  0.64952  1.0000
  C   C28       1.0  0.22406  0.92694  0.35047  1.0000
  C   C29       1.0  0.71584  0.94610  0.66580  1.0000
  C   C30       1.0  0.28415  0.05390  0.33420  1.0000
  C   C31       1.0  0.60503  0.97239  0.58139  1.0000
  C   C32       1.0  0.39495  0.02762  0.41861  1.0000
  C   C33       1.0  0.63004  0.02001  0.43827  1.0000
  C   C34       1.0  0.36996  0.97999  0.56173  1.0000
  C   C35       1.0  0.52865  0.04705  0.35859  1.0000
  C   C36       1.0  0.47134  0.95296  0.64141  1.0000
  N   N1        1.0  0.94885  0.59443  0.69431  1.0000
  N   N2        1.0  0.05115  0.40558  0.30569  1.0000
  N   N3        1.0  0.89055  0.30828  0.61378  1.0000
  N   N4        1.0  0.10946  0.69170  0.38623  1.0000
  N   N5        1.0  0.29784  0.32812  0.58374  1.0000
  N   N6        1.0  0.70216  0.67188  0.41625  1.0000
  O   O1        1.0  0.17925  0.39119  0.62464  1.0000
  O   O2        1.0  0.82076  0.60881  0.37536  1.0000
  O   O3        1.0  0.34053  0.34498  0.45712  1.0000
  O   O4        1.0  0.65945  0.65500  0.54288  1.0000
  O   O5        1.0  0.36558  0.25178  0.67420  1.0000
  O   O6        1.0  0.63444  0.74824  0.32579  1.0000
  F   F1        1.0  0.73613  0.99573  0.98437  1.0000
  F   F2        1.0  0.26387  0.00428  0.01564  1.0000
  F   F3        1.0  0.82176  0.23845  0.93902  1.0000
  F   F4        1.0  0.17824  0.76156  0.06098  1.0000
  F   F5        1.0  0.75921  0.04043  0.37305  1.0000
  F   F6        1.0  0.24078  0.95957  0.62696  1.0000
  F   F7        1.0  0.56200  0.09230  0.21980  1.0000
  F   F8        1.0  0.43799  0.90770  0.78020  1.0000
