data_image0
_chemical_formula_structural       Cu4H28C24I4N4
_chemical_formula_sum              "Cu4 H28 C24 I4 N4"
_cell_length_a       4.10955
_cell_length_b       9.03119
_cell_length_c       19.9391
_cell_angle_alpha    95.4853
_cell_angle_beta     89.9999
_cell_angle_gamma    90.0001

_space_group_name_H-M_alt    "P 1"
_space_group_IT_number       1

loop_
  _space_group_symop_operation_xyz
  'x, y, z'

loop_
  _atom_site_type_symbol
  _atom_site_label
  _atom_site_symmetry_multiplicity
  _atom_site_fract_x
  _atom_site_fract_y
  _atom_site_fract_z
  _atom_site_occupancy
  Cu  Cu1       1.0  0.89473  0.80441  0.78843  1.0000
  Cu  Cu2       1.0  0.39472  0.69559  0.71155  1.0000
  Cu  Cu3       1.0  0.10527  0.19559  0.21156  1.0000
  Cu  Cu4       1.0  0.60528  0.30440  0.28845  1.0000
  H   H1        1.0  0.16966  0.96754  0.91403  1.0000
  H   H2        1.0  0.66964  0.53248  0.58596  1.0000
  H   H3        1.0  0.83037  0.03246  0.08597  1.0000
  H   H4        1.0  0.33038  0.46752  0.41404  1.0000
  H   H5        1.0  0.87246  0.42590  0.91215  1.0000
  H   H6        1.0  0.37249  0.07410  0.58783  1.0000
  H   H7        1.0  0.12756  0.57409  0.08785  1.0000
  H   H8        1.0  0.62749  0.92589  0.41217  1.0000
  H   H9        1.0  0.58174  0.35179  0.80489  1.0000
  H   H10       1.0  0.08177  0.14821  0.69509  1.0000
  H   H11       1.0  0.41824  0.64821  0.19511  1.0000
  H   H12       1.0  0.91821  0.85179  0.30491  1.0000
  H   H13       1.0  0.59837  0.08398  0.75656  1.0000
  H   H14       1.0  0.09837  0.41602  0.74342  1.0000
  H   H15       1.0  0.40162  0.91602  0.24344  1.0000
  H   H16       1.0  0.90166  0.58398  0.25658  1.0000
  H   H17       1.0  0.02938  0.26917  0.03039  1.0000
  H   H18       1.0  0.52945  0.23086  0.46959  1.0000
  H   H19       1.0  0.97062  0.73083  0.96961  1.0000
  H   H20       1.0  0.47052  0.76915  0.53040  1.0000
  H   H21       1.0  0.37163  0.33335  0.98775  1.0000
  H   H22       1.0  0.87167  0.16668  0.51224  1.0000
  H   H23       1.0  0.62839  0.66666  0.01226  1.0000
  H   H24       1.0  0.12832  0.83333  0.48775  1.0000
  H   H25       1.0  0.34878  0.14442  0.00491  1.0000
  H   H26       1.0  0.84881  0.35562  0.49508  1.0000
  H   H27       1.0  0.65125  0.85558  0.99510  1.0000
  H   H28       1.0  0.15115  0.64440  0.50491  1.0000
  C   C1        1.0  0.03758  0.05635  0.89215  1.0000
  C   C2        1.0  0.53759  0.44367  0.60784  1.0000
  C   C3        1.0  0.96243  0.94365  0.10785  1.0000
  C   C4        1.0  0.46242  0.55633  0.39217  1.0000
  C   C5        1.0  0.03807  0.20132  0.92372  1.0000
  C   C6        1.0  0.53810  0.29868  0.57627  1.0000
  C   C7        1.0  0.96195  0.79867  0.07628  1.0000
  C   C8        1.0  0.46191  0.70131  0.42373  1.0000
  C   C9        1.0  0.87442  0.30990  0.89091  1.0000
  C   C10       1.0  0.37444  0.19013  0.60908  1.0000
  C   C11       1.0  0.12560  0.69011  0.10910  1.0000
  C   C12       1.0  0.62553  0.80988  0.39092  1.0000
  C   C13       1.0  0.71390  0.26910  0.83052  1.0000
  C   C14       1.0  0.21391  0.23087  0.66946  1.0000
  C   C15       1.0  0.28611  0.73089  0.16948  1.0000
  C   C16       1.0  0.78609  0.76911  0.33054  1.0000
  C   C17       1.0  0.72236  0.12143  0.80352  1.0000
  C   C18       1.0  0.22238  0.37859  0.69647  1.0000
  C   C19       1.0  0.27763  0.87858  0.19648  1.0000
  C   C20       1.0  0.77762  0.62142  0.30354  1.0000
  C   C21       1.0  0.20598  0.23842  0.98988  1.0000
  C   C22       1.0  0.70601  0.26160  0.51011  1.0000
  C   C23       1.0  0.79404  0.76158  0.01012  1.0000
  C   C24       1.0  0.29396  0.73841  0.48989  1.0000
  I   I1        1.0  0.38609  0.66943  0.84169  1.0000
  I   I2        1.0  0.88608  0.83054  0.65829  1.0000
  I   I3        1.0  0.61389  0.33057  0.15831  1.0000
  I   I4        1.0  0.11391  0.16944  0.34170  1.0000
  N   N1        1.0  0.88548  0.01610  0.83332  1.0000
  N   N2        1.0  0.38545  0.48390  0.66667  1.0000
  N   N3        1.0  0.11454  0.98389  0.16668  1.0000
  N   N4        1.0  0.61457  0.51610  0.33333  1.0000
