data_image0
_chemical_formula_structural       Cu2H30C34S2N2O10
_chemical_formula_sum              "Cu2 H30 C34 S2 N2 O10"
_cell_length_a       8.01384
_cell_length_b       10.1214
_cell_length_c       12.6505
_cell_angle_alpha    85.8281
_cell_angle_beta     78.7038
_cell_angle_gamma    74.714

_space_group_name_H-M_alt    "P 1"
_space_group_IT_number       1

loop_
  _space_group_symop_operation_xyz
  'x, y, z'

loop_
  _atom_site_type_symbol
  _atom_site_label
  _atom_site_symmetry_multiplicity
  _atom_site_fract_x
  _atom_site_fract_y
  _atom_site_fract_z
  _atom_site_occupancy
  Cu  Cu1       1.0  0.86514  0.60248  0.53431  1.0000
  Cu  Cu2       1.0  0.13478  0.39752  0.46572  1.0000
  H   H1        1.0  0.05080  0.76532  0.76867  1.0000
  H   H2        1.0  0.94929  0.23468  0.23129  1.0000
  H   H3        1.0  0.18692  0.82326  0.91530  1.0000
  H   H4        1.0  0.81309  0.17675  0.08468  1.0000
  H   H5        1.0  0.46169  0.66241  0.95814  1.0000
  H   H6        1.0  0.53830  0.33760  0.04187  1.0000
  H   H7        1.0  0.59122  0.44770  0.86079  1.0000
  H   H8        1.0  0.40878  0.55232  0.13922  1.0000
  H   H9        1.0  0.48048  0.13340  0.87048  1.0000
  H   H10       1.0  0.51951  0.86662  0.12952  1.0000
  H   H11       1.0  0.71543  0.99598  0.96654  1.0000
  H   H12       1.0  0.28452  0.00402  0.03349  1.0000
  H   H13       1.0  0.01995  0.02977  0.91627  1.0000
  H   H14       1.0  0.98004  0.97018  0.08373  1.0000
  H   H15       1.0  0.08780  0.19116  0.76745  1.0000
  H   H16       1.0  0.91220  0.80881  0.23253  1.0000
  H   H17       1.0  0.45103  0.71258  0.53206  1.0000
  H   H18       1.0  0.54893  0.28746  0.46793  1.0000
  H   H19       1.0  0.16158  0.01366  0.51203  1.0000
  H   H20       1.0  0.83845  0.98637  0.48797  1.0000
  H   H21       1.0  0.08338  0.94392  0.63964  1.0000
  H   H22       1.0  0.91665  0.05612  0.36035  1.0000
  H   H23       1.0  0.18159  0.83241  0.52933  1.0000
  H   H24       1.0  0.81841  0.16763  0.47068  1.0000
  H   H25       1.0  0.33854  0.00953  0.73774  1.0000
  H   H26       1.0  0.66149  0.99048  0.26225  1.0000
  H   H27       1.0  0.32172  0.11440  0.61805  1.0000
  H   H28       1.0  0.67831  0.88561  0.38194  1.0000
  H   H29       1.0  0.53115  0.00606  0.63884  1.0000
  H   H30       1.0  0.46888  0.99395  0.36116  1.0000
  C   C1        1.0  0.15722  0.55276  0.64304  1.0000
  C   C2        1.0  0.84278  0.44725  0.35695  1.0000
  C   C3        1.0  0.24420  0.57622  0.73149  1.0000
  C   C4        1.0  0.75584  0.42376  0.26849  1.0000
  C   C5        1.0  0.17027  0.69740  0.78966  1.0000
  C   C6        1.0  0.82977  0.30259  0.21031  1.0000
  C   C7        1.0  0.24629  0.72929  0.87073  1.0000
  C   C8        1.0  0.75373  0.27072  0.12923  1.0000
  C   C9        1.0  0.39894  0.63858  0.89538  1.0000
  C   C10       1.0  0.60105  0.36143  0.10462  1.0000
  C   C11       1.0  0.47213  0.51663  0.84060  1.0000
  C   C12       1.0  0.52789  0.48338  0.15941  1.0000
  C   C13       1.0  0.39595  0.48218  0.75887  1.0000
  C   C14       1.0  0.60407  0.51781  0.24114  1.0000
  C   C15       1.0  0.65114  0.23910  0.76585  1.0000
  C   C16       1.0  0.34884  0.76090  0.23417  1.0000
  C   C17       1.0  0.61424  0.14570  0.84908  1.0000
  C   C18       1.0  0.38575  0.85429  0.15093  1.0000
  C   C19       1.0  0.74573  0.06929  0.90286  1.0000
  C   C20       1.0  0.25424  0.93070  0.09714  1.0000
  C   C21       1.0  0.91580  0.08742  0.87461  1.0000
  C   C22       1.0  0.08417  0.91257  0.12542  1.0000
  C   C23       1.0  0.95500  0.17780  0.79106  1.0000
  C   C24       1.0  0.04500  0.82217  0.20895  1.0000
  C   C25       1.0  0.82464  0.25244  0.73503  1.0000
  C   C26       1.0  0.17534  0.74753  0.26498  1.0000
  C   C27       1.0  0.88033  0.34324  0.64307  1.0000
  C   C28       1.0  0.11958  0.65678  0.35695  1.0000
  C   C29       1.0  0.48800  0.79052  0.57297  1.0000
  C   C30       1.0  0.51200  0.20948  0.42703  1.0000
  C   C31       1.0  0.18712  0.92470  0.56731  1.0000
  C   C32       1.0  0.81291  0.07533  0.43269  1.0000
  C   C33       1.0  0.38935  0.01586  0.65053  1.0000
  C   C34       1.0  0.61069  0.98415  0.34946  1.0000
  S   S1        1.0  0.48205  0.32360  0.69321  1.0000
  S   S2        1.0  0.51796  0.67638  0.30680  1.0000
  N   N1        1.0  0.35923  0.90551  0.59568  1.0000
  N   N2        1.0  0.64079  0.09452  0.40431  1.0000
  O   O1        1.0  0.00902  0.63487  0.63584  1.0000
  O   O2        1.0  0.99112  0.36524  0.36404  1.0000
  O   O3        1.0  0.23948  0.45172  0.58179  1.0000
  O   O4        1.0  0.76038  0.54811  0.41831  1.0000
  O   O5        1.0  0.78910  0.46605  0.64090  1.0000
  O   O6        1.0  0.21095  0.53398  0.35919  1.0000
  O   O7        1.0  0.01972  0.28574  0.57837  1.0000
  O   O8        1.0  0.98013  0.71421  0.42159  1.0000
  O   O9        1.0  0.63871  0.77296  0.59372  1.0000
  O   O10       1.0  0.36128  0.22697  0.40628  1.0000
