data_image0
_chemical_formula_structural       Cd2H36C66N10O12F18
_chemical_formula_sum              "Cd2 H36 C66 N10 O12 F18"
_cell_length_a       10.7973
_cell_length_b       12.3545
_cell_length_c       13.7136
_cell_angle_alpha    110.176
_cell_angle_beta     96.4188
_cell_angle_gamma    99.7255

_space_group_name_H-M_alt    "P 1"
_space_group_IT_number       1

loop_
  _space_group_symop_operation_xyz
  'x, y, z'

loop_
  _atom_site_type_symbol
  _atom_site_label
  _atom_site_symmetry_multiplicity
  _atom_site_fract_x
  _atom_site_fract_y
  _atom_site_fract_z
  _atom_site_occupancy
  Cd  Cd1       1.0  0.99668  0.28343  0.21647  1.0000
  Cd  Cd2       1.0  0.00332  0.71657  0.78352  1.0000
  H   H1        1.0  0.73216  0.28422  0.10087  1.0000
  H   H2        1.0  0.26784  0.71578  0.89912  1.0000
  H   H3        1.0  0.88976  0.44408  0.42050  1.0000
  H   H4        1.0  0.11024  0.55591  0.57950  1.0000
  H   H5        1.0  0.53318  0.35482  0.12937  1.0000
  H   H6        1.0  0.46682  0.64518  0.87062  1.0000
  H   H7        1.0  0.69780  0.52070  0.46253  1.0000
  H   H8        1.0  0.30219  0.47929  0.53747  1.0000
  H   H9        1.0  0.39322  0.41899  0.27576  1.0000
  H   H10       1.0  0.60678  0.58101  0.72423  1.0000
  H   H11       1.0  0.47289  0.52334  0.40196  1.0000
  H   H12       1.0  0.52710  0.47665  0.59804  1.0000
  H   H13       1.0  0.55547  0.05959  0.10640  1.0000
  H   H14       1.0  0.44454  0.94042  0.89360  1.0000
  H   H15       1.0  0.61573  0.16106  0.23690  1.0000
  H   H16       1.0  0.38427  0.83895  0.76310  1.0000
  H   H17       1.0  0.42597  0.18830  0.35955  1.0000
  H   H18       1.0  0.57403  0.81171  0.64046  1.0000
  H   H19       1.0  0.36551  0.09358  0.02047  1.0000
  H   H20       1.0  0.63450  0.90642  0.97953  1.0000
  H   H21       1.0  0.22234  0.25635  0.35804  1.0000
  H   H22       1.0  0.77766  0.74365  0.64196  1.0000
  H   H23       1.0  0.16860  0.17080  0.03359  1.0000
  H   H24       1.0  0.83141  0.82921  0.96642  1.0000
  H   H25       1.0  0.95888  0.43451  0.06716  1.0000
  H   H26       1.0  0.04112  0.56549  0.93284  1.0000
  H   H27       1.0  0.92067  0.07495  0.99319  1.0000
  H   H28       1.0  0.07934  0.92505  0.00680  1.0000
  H   H29       1.0  0.88224  0.40380  0.87684  1.0000
  H   H30       1.0  0.11775  0.59620  0.12316  1.0000
  H   H31       1.0  0.84960  0.03024  0.80148  1.0000
  H   H32       1.0  0.15040  0.96976  0.19852  1.0000
  H   H33       1.0  0.79626  0.27475  0.70105  1.0000
  H   H34       1.0  0.20374  0.72525  0.29895  1.0000
  H   H35       1.0  0.71618  0.13038  0.68472  1.0000
  H   H36       1.0  0.28382  0.86962  0.31527  1.0000
  C   C1        1.0  0.72117  0.33786  0.17976  1.0000
  C   C2        1.0  0.27884  0.66214  0.82024  1.0000
  C   C3        1.0  0.80890  0.42606  0.35775  1.0000
  C   C4        1.0  0.19109  0.57394  0.64225  1.0000
  C   C5        1.0  0.60984  0.37746  0.19631  1.0000
  C   C6        1.0  0.39016  0.62254  0.80369  1.0000
  C   C7        1.0  0.69984  0.46898  0.38063  1.0000
  C   C8        1.0  0.30016  0.53102  0.61936  1.0000
  C   C9        1.0  0.59746  0.44511  0.29882  1.0000
  C   C10       1.0  0.40254  0.55488  0.70117  1.0000
  C   C11       1.0  0.47726  0.49110  0.31758  1.0000
  C   C12       1.0  0.52274  0.50890  0.68241  1.0000
  C   C13       1.0  0.47232  0.58996  0.27746  1.0000
  C   C14       1.0  0.52768  0.41004  0.72253  1.0000
  C   C15       1.0  0.42369  0.56743  0.17091  1.0000
  C   C16       1.0  0.57630  0.43257  0.82909  1.0000
  C   C17       1.0  0.51855  0.70698  0.34245  1.0000
  C   C18       1.0  0.48145  0.29302  0.65755  1.0000
  C   C19       1.0  0.42577  0.65597  0.13137  1.0000
  C   C20       1.0  0.57422  0.34403  0.86863  1.0000
  C   C21       1.0  0.52219  0.80270  0.30745  1.0000
  C   C22       1.0  0.47781  0.19730  0.69255  1.0000
  C   C23       1.0  0.47554  0.77612  0.19698  1.0000
  C   C24       1.0  0.52446  0.22388  0.80302  1.0000
  C   C25       1.0  0.56907  0.92290  0.37386  1.0000
  C   C26       1.0  0.43092  0.07711  0.62614  1.0000
  C   C27       1.0  0.48077  0.87223  0.16248  1.0000
  C   C28       1.0  0.51923  0.12778  0.83752  1.0000
  C   C29       1.0  0.57378  0.01171  0.33453  1.0000
  C   C30       1.0  0.42621  0.98830  0.66548  1.0000
  C   C31       1.0  0.52954  0.98898  0.22718  1.0000
  C   C32       1.0  0.47047  0.01102  0.77282  1.0000
  C   C33       1.0  0.53540  0.08861  0.18690  1.0000
  C   C34       1.0  0.46460  0.91140  0.81310  1.0000
  C   C35       1.0  0.41384  0.13426  0.18952  1.0000
  C   C36       1.0  0.58616  0.86575  0.81049  1.0000
  C   C37       1.0  0.37209  0.18229  0.28512  1.0000
  C   C38       1.0  0.62792  0.81771  0.71488  1.0000
  C   C39       1.0  0.33903  0.13004  0.09758  1.0000
  C   C40       1.0  0.66097  0.86997  0.90242  1.0000
  C   C41       1.0  0.25868  0.22123  0.28519  1.0000
  C   C42       1.0  0.74132  0.77877  0.71481  1.0000
  C   C43       1.0  0.22765  0.17266  0.10430  1.0000
  C   C44       1.0  0.77235  0.82734  0.89570  1.0000
  C   C45       1.0  0.93411  0.34645  0.00523  1.0000
  C   C46       1.0  0.06589  0.65354  0.99477  1.0000
  C   C47       1.0  0.91376  0.14560  0.96378  1.0000
  C   C48       1.0  0.08625  0.85439  0.03621  1.0000
  C   C49       1.0  0.89203  0.32928  0.90017  1.0000
  C   C50       1.0  0.10797  0.67072  0.09983  1.0000
  C   C51       1.0  0.87276  0.12135  0.85737  1.0000
  C   C52       1.0  0.12724  0.87864  0.14263  1.0000
  C   C53       1.0  0.85969  0.21450  0.82370  1.0000
  C   C54       1.0  0.14031  0.78550  0.17629  1.0000
  C   C55       1.0  0.80994  0.19225  0.70963  1.0000
  C   C56       1.0  0.19006  0.80775  0.29037  1.0000
  C   C57       1.0  0.89557  0.13863  0.63595  1.0000
  C   C58       1.0  0.10443  0.86137  0.36405  1.0000
  C   C59       1.0  0.88052  0.01794  0.58832  1.0000
  C   C60       1.0  0.11948  0.98205  0.41168  1.0000
  C   C61       1.0  0.95120  0.96236  0.51274  1.0000
  C   C62       1.0  0.04880  0.03765  0.48726  1.0000
  C   C63       1.0  0.93163  0.83842  0.46032  1.0000
  C   C64       1.0  0.06837  0.16158  0.53968  1.0000
  C   C65       1.0  0.99417  0.20946  0.61127  1.0000
  C   C66       1.0  0.00583  0.79054  0.38873  1.0000
  N   N1        1.0  0.81991  0.36170  0.25883  1.0000
  N   N2        1.0  0.18009  0.63830  0.74117  1.0000
  N   N3        1.0  0.18694  0.21662  0.19624  1.0000
  N   N4        1.0  0.81306  0.78338  0.80376  1.0000
  N   N5        1.0  0.94427  0.25630  0.03714  1.0000
  N   N6        1.0  0.05574  0.74369  0.96286  1.0000
  N   N7        1.0  0.16648  0.51157  0.34039  1.0000
  N   N8        1.0  0.83352  0.48843  0.65961  1.0000
  N   N9        1.0  0.88196  0.06559  0.24039  1.0000
  N   N10       1.0  0.11804  0.93441  0.75961  1.0000
  O   O1        1.0  0.85480  0.07248  0.14916  1.0000
  O   O2        1.0  0.14521  0.92752  0.85084  1.0000
  O   O3        1.0  0.95721  0.15593  0.31414  1.0000
  O   O4        1.0  0.04279  0.84407  0.68586  1.0000
  O   O5        1.0  0.83736  0.97545  0.25703  1.0000
  O   O6        1.0  0.16264  0.02455  0.74298  1.0000
  O   O7        1.0  0.13566  0.48499  0.24068  1.0000
  O   O8        1.0  0.86434  0.51501  0.75932  1.0000
  O   O9        1.0  0.11878  0.43591  0.37936  1.0000
  O   O10       1.0  0.88122  0.56409  0.62064  1.0000
  O   O11       1.0  0.24094  0.60626  0.39864  1.0000
  O   O12       1.0  0.75906  0.39374  0.60136  1.0000
  F   F1        1.0  0.37259  0.45428  0.10388  1.0000
  F   F2        1.0  0.62741  0.54573  0.89612  1.0000
  F   F3        1.0  0.56267  0.73068  0.44600  1.0000
  F   F4        1.0  0.43734  0.26933  0.55400  1.0000
  F   F5        1.0  0.37818  0.62456  0.02726  1.0000
  F   F6        1.0  0.62182  0.37544  0.97274  1.0000
  F   F7        1.0  0.61115  0.95365  0.47817  1.0000
  F   F8        1.0  0.38884  0.04636  0.52184  1.0000
  F   F9        1.0  0.43605  0.84916  0.05835  1.0000
  F   F10       1.0  0.56394  0.15084  0.94166  1.0000
  F   F11       1.0  0.62327  0.12482  0.40143  1.0000
  F   F12       1.0  0.37672  0.87519  0.59858  1.0000
  F   F13       1.0  0.79108  0.94875  0.61695  1.0000
  F   F14       1.0  0.20891  0.05125  0.38305  1.0000
  F   F15       1.0  0.83820  0.76323  0.47818  1.0000
  F   F16       1.0  0.16181  0.23677  0.52182  1.0000
  F   F17       1.0  0.01757  0.32878  0.66042  1.0000
  F   F18       1.0  0.98243  0.67122  0.33959  1.0000
