data_image0
_chemical_formula_structural       Li2Si4B2P2H86C42O4
_chemical_formula_sum              "Li2 Si4 B2 P2 H86 C42 O4"
_cell_length_a       6.07354
_cell_length_b       10.7645
_cell_length_c       19.4878
_cell_angle_alpha    96.0456
_cell_angle_beta     95.8219
_cell_angle_gamma    100.445

_space_group_name_H-M_alt    "P 1"
_space_group_IT_number       1

loop_
  _space_group_symop_operation_xyz
  'x, y, z'

loop_
  _atom_site_type_symbol
  _atom_site_label
  _atom_site_symmetry_multiplicity
  _atom_site_fract_x
  _atom_site_fract_y
  _atom_site_fract_z
  _atom_site_occupancy
  Li  Li1       1.0  0.21516  0.13061  0.23802  1.0000
  Li  Li2       1.0  0.78485  0.86939  0.76198  1.0000
  Si  Si1       1.0  0.82252  0.58421  0.27850  1.0000
  Si  Si2       1.0  0.17746  0.41578  0.72150  1.0000
  Si  Si3       1.0  0.61100  0.43868  0.12830  1.0000
  Si  Si4       1.0  0.38900  0.56131  0.87170  1.0000
  B   B1        1.0  0.88535  0.21603  0.22424  1.0000
  B   B2        1.0  0.11466  0.78397  0.77575  1.0000
  P   P1        1.0  0.62033  0.27857  0.25089  1.0000
  P   P2        1.0  0.37968  0.72142  0.74911  1.0000
  H   H1        1.0  0.06803  0.28500  0.24737  1.0000
  H   H2        1.0  0.93199  0.71500  0.75262  1.0000
  H   H3        1.0  0.87293  0.11191  0.24583  1.0000
  H   H4        1.0  0.12708  0.88809  0.75417  1.0000
  H   H5        1.0  0.86829  0.19992  0.16085  1.0000
  H   H6        1.0  0.13171  0.80008  0.83915  1.0000
  H   H7        1.0  0.45189  0.46081  0.23492  1.0000
  H   H8        1.0  0.54809  0.53918  0.76508  1.0000
  H   H9        1.0  0.84254  0.71295  0.39231  1.0000
  H   H10       1.0  0.15742  0.28705  0.60768  1.0000
  H   H11       1.0  0.83502  0.55080  0.40471  1.0000
  H   H12       1.0  0.16495  0.44920  0.59529  1.0000
  H   H13       1.0  0.58370  0.60121  0.37564  1.0000
  H   H14       1.0  0.41625  0.39878  0.62436  1.0000
  H   H15       1.0  0.18827  0.58460  0.23002  1.0000
  H   H16       1.0  0.81173  0.41541  0.76999  1.0000
  H   H17       1.0  0.14866  0.47418  0.29104  1.0000
  H   H18       1.0  0.85132  0.52581  0.70896  1.0000
  H   H19       1.0  0.23290  0.64011  0.32036  1.0000
  H   H20       1.0  0.76706  0.35987  0.67965  1.0000
  H   H21       1.0  0.89767  0.81845  0.27291  1.0000
  H   H22       1.0  0.10234  0.18154  0.72709  1.0000
  H   H23       1.0  0.61862  0.74927  0.23433  1.0000
  H   H24       1.0  0.38138  0.25074  0.76567  1.0000
  H   H25       1.0  0.85110  0.73385  0.18813  1.0000
  H   H26       1.0  0.14889  0.26615  0.81187  1.0000
  H   H27       1.0  0.88803  0.42838  0.04258  1.0000
  H   H28       1.0  0.11201  0.57162  0.95743  1.0000
  H   H29       1.0  0.99646  0.39022  0.12433  1.0000
  H   H30       1.0  0.00355  0.60978  0.87567  1.0000
  H   H31       1.0  0.99508  0.55139  0.11186  1.0000
  H   H32       1.0  0.00493  0.44861  0.88814  1.0000
  H   H33       1.0  0.39401  0.29260  0.02807  1.0000
  H   H34       1.0  0.60599  0.70739  0.97192  1.0000
  H   H35       1.0  0.26531  0.26588  0.10487  1.0000
  H   H36       1.0  0.73468  0.73409  0.89513  1.0000
  H   H37       1.0  0.51208  0.20505  0.09029  1.0000
  H   H38       1.0  0.48795  0.79493  0.90971  1.0000
  H   H39       1.0  0.38189  0.54293  0.04670  1.0000
  H   H40       1.0  0.61811  0.45706  0.95330  1.0000
  H   H41       1.0  0.61509  0.65610  0.09155  1.0000
  H   H42       1.0  0.38490  0.34389  0.90844  1.0000
  H   H43       1.0  0.37297  0.60871  0.13328  1.0000
  H   H44       1.0  0.62701  0.39127  0.86671  1.0000
  H   H45       1.0  0.33058  0.35849  0.35062  1.0000
  H   H46       1.0  0.66947  0.64151  0.64937  1.0000
  H   H47       1.0  0.36374  0.39112  0.47919  1.0000
  H   H48       1.0  0.63632  0.60887  0.52082  1.0000
  H   H49       1.0  0.70575  0.35340  0.54970  1.0000
  H   H50       1.0  0.29430  0.64659  0.45030  1.0000
  H   H51       1.0  0.01049  0.27882  0.48987  1.0000
  H   H52       1.0  0.98958  0.72118  0.51013  1.0000
  H   H53       1.0  0.97926  0.25023  0.36078  1.0000
  H   H54       1.0  0.02079  0.74978  0.63921  1.0000
  H   H55       1.0  0.01194  0.03437  0.38247  1.0000
  H   H56       1.0  0.98807  0.96564  0.61754  1.0000
  H   H57       1.0  0.28330  0.12852  0.41610  1.0000
  H   H58       1.0  0.71672  0.87149  0.58391  1.0000
  H   H59       1.0  0.14094  0.83795  0.40147  1.0000
  H   H60       1.0  0.85906  0.16206  0.59853  1.0000
  H   H61       1.0  0.29739  0.94004  0.47431  1.0000
  H   H62       1.0  0.70260  0.05996  0.52570  1.0000
  H   H63       1.0  0.62680  0.98655  0.41093  1.0000
  H   H64       1.0  0.37319  0.01346  0.58908  1.0000
  H   H65       1.0  0.52747  0.82121  0.38318  1.0000
  H   H66       1.0  0.47253  0.17881  0.61683  1.0000
  H   H67       1.0  0.56610  0.99759  0.28822  1.0000
  H   H68       1.0  0.43390  0.00244  0.71178  1.0000
  H   H69       1.0  0.34018  0.86146  0.27471  1.0000
  H   H70       1.0  0.65983  0.13857  0.72530  1.0000
  H   H71       1.0  0.42748  0.87832  0.15993  1.0000
  H   H72       1.0  0.57251  0.12168  0.84006  1.0000
  H   H73       1.0  0.53200  0.03648  0.14240  1.0000
  H   H74       1.0  0.46798  0.96351  0.85759  1.0000
  H   H75       1.0  0.40426  0.84032  0.03391  1.0000
  H   H76       1.0  0.59569  0.15967  0.96609  1.0000
  H   H77       1.0  0.32817  0.99045  0.02458  1.0000
  H   H78       1.0  0.67179  0.00954  0.97542  1.0000
  H   H79       1.0  0.04064  0.75945  0.07394  1.0000
  H   H80       1.0  0.95933  0.24056  0.92607  1.0000
  H   H81       1.0  0.95847  0.84454  0.00552  1.0000
  H   H82       1.0  0.04148  0.15546  0.99449  1.0000
  H   H83       1.0  0.94082  0.03029  0.08618  1.0000
  H   H84       1.0  0.05919  0.96973  0.91382  1.0000
  H   H85       1.0  0.85985  0.90877  0.13934  1.0000
  H   H86       1.0  0.14014  0.09125  0.86067  1.0000
  C   C1        1.0  0.62112  0.44291  0.22623  1.0000
  C   C2        1.0  0.37886  0.55709  0.77376  1.0000
  C   C3        1.0  0.76499  0.61395  0.37153  1.0000
  C   C4        1.0  0.23497  0.38604  0.62847  1.0000
  C   C5        1.0  0.12638  0.56924  0.28007  1.0000
  C   C6        1.0  0.87360  0.43075  0.71994  1.0000
  C   C7        1.0  0.79386  0.73505  0.23979  1.0000
  C   C8        1.0  0.20614  0.26495  0.76021  1.0000
  C   C9        1.0  0.89957  0.45329  0.09921  1.0000
  C   C10       1.0  0.10043  0.54670  0.90079  1.0000
  C   C11       1.0  0.42755  0.28562  0.08390  1.0000
  C   C12       1.0  0.57245  0.71436  0.91610  1.0000
  C   C13       1.0  0.48370  0.57464  0.09750  1.0000
  C   C14       1.0  0.51629  0.42535  0.90250  1.0000
  C   C15       1.0  0.65472  0.30386  0.34631  1.0000
  C   C16       1.0  0.34532  0.69614  0.65368  1.0000
  C   C17       1.0  0.48099  0.34162  0.38107  1.0000
  C   C18       1.0  0.51905  0.65838  0.61893  1.0000
  C   C19       1.0  0.49846  0.35925  0.45344  1.0000
  C   C20       1.0  0.50159  0.64075  0.54656  1.0000
  C   C21       1.0  0.69007  0.33782  0.49305  1.0000
  C   C22       1.0  0.30999  0.66217  0.50695  1.0000
  C   C23       1.0  0.86114  0.29663  0.45941  1.0000
  C   C24       1.0  0.13892  0.70337  0.54058  1.0000
  C   C25       1.0  0.84362  0.28010  0.38683  1.0000
  C   C26       1.0  0.15643  0.71991  0.61316  1.0000
  C   C27       1.0  0.19449  0.03726  0.38661  1.0000
  C   C28       1.0  0.80552  0.96275  0.61340  1.0000
  C   C29       1.0  0.26854  0.92527  0.41735  1.0000
  C   C30       1.0  0.73145  0.07474  0.58266  1.0000
  C   C31       1.0  0.48292  0.91549  0.38363  1.0000
  C   C32       1.0  0.51708  0.08453  0.61638  1.0000
  C   C33       1.0  0.42156  0.94727  0.31057  1.0000
  C   C34       1.0  0.57844  0.05275  0.68943  1.0000
  C   C35       1.0  0.38726  0.95666  0.13174  1.0000
  C   C36       1.0  0.61272  0.04333  0.86825  1.0000
  C   C37       1.0  0.31002  0.90996  0.05525  1.0000
  C   C38       1.0  0.68995  0.09004  0.94475  1.0000
  C   C39       1.0  0.05994  0.85427  0.05631  1.0000
  C   C40       1.0  0.94001  0.14574  0.94369  1.0000
  C   C41       1.0  0.99326  0.95002  0.10975  1.0000
  C   C42       1.0  0.00672  0.04999  0.89026  1.0000
  O   O1        1.0  0.25792  0.03000  0.31667  1.0000
  O   O2        1.0  0.74208  0.97002  0.68334  1.0000
  O   O3        1.0  0.19559  0.99990  0.15845  1.0000
  O   O4        1.0  0.80441  0.00010  0.84155  1.0000
