data_image0
_chemical_formula_structural       U2H28C46N6Cl2O12
_chemical_formula_sum              "U2 H28 C46 N6 Cl2 O12"
_cell_length_a       9.63349
_cell_length_b       9.63351
_cell_length_c       12.1869
_cell_angle_alpha    104.257
_cell_angle_beta     104.257
_cell_angle_gamma    100.086

_space_group_name_H-M_alt    "P 1"
_space_group_IT_number       1

loop_
  _space_group_symop_operation_xyz
  'x, y, z'

loop_
  _atom_site_type_symbol
  _atom_site_label
  _atom_site_symmetry_multiplicity
  _atom_site_fract_x
  _atom_site_fract_y
  _atom_site_fract_z
  _atom_site_occupancy
  U   U1        1.0  0.07802  0.92198  0.75000  1.0000
  U   U2        1.0  0.92198  0.07802  0.25000  1.0000
  H   H1        1.0  0.16950  0.09544  0.04479  1.0000
  H   H2        1.0  0.90456  0.83050  0.45521  1.0000
  H   H3        1.0  0.83050  0.90456  0.95521  1.0000
  H   H4        1.0  0.09544  0.16950  0.54479  1.0000
  H   H5        1.0  0.33353  0.12653  0.24367  1.0000
  H   H6        1.0  0.87347  0.66648  0.25633  1.0000
  H   H7        1.0  0.66647  0.87347  0.75632  1.0000
  H   H8        1.0  0.12653  0.33352  0.74367  1.0000
  H   H9        1.0  0.76123  0.14876  0.58528  1.0000
  H   H10       1.0  0.85124  0.23877  0.91472  1.0000
  H   H11       1.0  0.23877  0.85124  0.41472  1.0000
  H   H12       1.0  0.14876  0.76123  0.08528  1.0000
  H   H13       1.0  0.51721  0.96667  0.26371  1.0000
  H   H14       1.0  0.03334  0.48280  0.23630  1.0000
  H   H15       1.0  0.48279  0.03333  0.73629  1.0000
  H   H16       1.0  0.96666  0.51721  0.76370  1.0000
  H   H17       1.0  0.52655  0.79121  0.08264  1.0000
  H   H18       1.0  0.20879  0.47345  0.41737  1.0000
  H   H19       1.0  0.47345  0.20879  0.91736  1.0000
  H   H20       1.0  0.79121  0.52655  0.58263  1.0000
  H   H21       1.0  0.51937  0.64919  0.93957  1.0000
  H   H22       1.0  0.35081  0.48063  0.56043  1.0000
  H   H23       1.0  0.48063  0.35081  0.06043  1.0000
  H   H24       1.0  0.64919  0.51937  0.43957  1.0000
  H   H25       1.0  0.44335  0.73290  0.48342  1.0000
  H   H26       1.0  0.26710  0.55665  0.01658  1.0000
  H   H27       1.0  0.55665  0.26710  0.51658  1.0000
  H   H28       1.0  0.73290  0.44335  0.98342  1.0000
  C   C1        1.0  0.25057  0.03058  0.05506  1.0000
  C   C2        1.0  0.96942  0.74943  0.44495  1.0000
  C   C3        1.0  0.74943  0.96942  0.94494  1.0000
  C   C4        1.0  0.03058  0.25057  0.55505  1.0000
  C   C5        1.0  0.34166  0.04523  0.16746  1.0000
  C   C6        1.0  0.95478  0.65834  0.33254  1.0000
  C   C7        1.0  0.65834  0.95478  0.83254  1.0000
  C   C8        1.0  0.04522  0.34166  0.66746  1.0000
  C   C9        1.0  0.64665  0.08460  0.54733  1.0000
  C   C10       1.0  0.91540  0.35336  0.95267  1.0000
  C   C11       1.0  0.35335  0.91540  0.45267  1.0000
  C   C12       1.0  0.08460  0.64665  0.04733  1.0000
  C   C13       1.0  0.44184  0.95767  0.17789  1.0000
  C   C14       1.0  0.04233  0.55816  0.32211  1.0000
  C   C15       1.0  0.55816  0.04233  0.82211  1.0000
  C   C16       1.0  0.95767  0.44184  0.67789  1.0000
  C   C17       1.0  0.44606  0.85762  0.07532  1.0000
  C   C18       1.0  0.14238  0.55394  0.42468  1.0000
  C   C19       1.0  0.55394  0.14238  0.92468  1.0000
  C   C20       1.0  0.85762  0.44606  0.57532  1.0000
  C   C21       1.0  0.35090  0.84870  0.96472  1.0000
  C   C22       1.0  0.15130  0.64909  0.53528  1.0000
  C   C23       1.0  0.64909  0.15130  0.03528  1.0000
  C   C24       1.0  0.84870  0.35091  0.46472  1.0000
  C   C25       1.0  0.34932  0.74333  0.85332  1.0000
  C   C26       1.0  0.25667  0.65068  0.64668  1.0000
  C   C27       1.0  0.65068  0.25667  0.14668  1.0000
  C   C28       1.0  0.74333  0.34932  0.35332  1.0000
  C   C29       1.0  0.44348  0.64810  0.85673  1.0000
  C   C30       1.0  0.35189  0.55652  0.64327  1.0000
  C   C31       1.0  0.55652  0.35189  0.14326  1.0000
  C   C32       1.0  0.64811  0.44348  0.35673  1.0000
  C   C33       1.0  0.44456  0.55544  0.75000  1.0000
  C   C34       1.0  0.55544  0.44456  0.25000  1.0000
  C   C35       1.0  0.73308  0.85927  0.57708  1.0000
  C   C36       1.0  0.14073  0.26693  0.92292  1.0000
  C   C37       1.0  0.26692  0.14073  0.42292  1.0000
  C   C38       1.0  0.85927  0.73307  0.07708  1.0000
  C   C39       1.0  0.61393  0.93368  0.53750  1.0000
  C   C40       1.0  0.06632  0.38607  0.96250  1.0000
  C   C41       1.0  0.38607  0.06632  0.46250  1.0000
  C   C42       1.0  0.93368  0.61394  0.03750  1.0000
  C   C43       1.0  0.46653  0.84988  0.49029  1.0000
  C   C44       1.0  0.15012  0.53347  0.00971  1.0000
  C   C45       1.0  0.53347  0.15012  0.50971  1.0000
  C   C46       1.0  0.84988  0.46653  0.99029  1.0000
  N   N1        1.0  0.25593  0.93683  0.95504  1.0000
  N   N2        1.0  0.06318  0.74407  0.54496  1.0000
  N   N3        1.0  0.74407  0.06318  0.04496  1.0000
  N   N4        1.0  0.93682  0.25593  0.45504  1.0000
  N   N5        1.0  0.25586  0.74414  0.75000  1.0000
  N   N6        1.0  0.74414  0.25586  0.25000  1.0000
  Cl  Cl1       1.0  0.56077  0.43923  0.75000  1.0000
  Cl  Cl2       1.0  0.43923  0.56077  0.25000  1.0000
  O   O1        1.0  0.95787  0.79265  0.79284  1.0000
  O   O2        1.0  0.20737  0.04214  0.70716  1.0000
  O   O3        1.0  0.04213  0.20735  0.20716  1.0000
  O   O4        1.0  0.79263  0.95786  0.29284  1.0000
  O   O5        1.0  0.86842  0.94472  0.62361  1.0000
  O   O6        1.0  0.05528  0.13158  0.87639  1.0000
  O   O7        1.0  0.13158  0.05528  0.37639  1.0000
  O   O8        1.0  0.94472  0.86842  0.12361  1.0000
  O   O9        1.0  0.70102  0.72424  0.56466  1.0000
  O   O10       1.0  0.27577  0.29898  0.93534  1.0000
  O   O11       1.0  0.29898  0.27576  0.43534  1.0000
  O   O12       1.0  0.72424  0.70102  0.06466  1.0000
