data_image0
_chemical_formula_structural       U2H30C46N6O12
_chemical_formula_sum              "U2 H30 C46 N6 O12"
_cell_length_a       10.1768
_cell_length_b       10.1768
_cell_length_c       11.7325
_cell_angle_alpha    107.082
_cell_angle_beta     107.082
_cell_angle_gamma    103.454

_space_group_name_H-M_alt    "P 1"
_space_group_IT_number       1

loop_
  _space_group_symop_operation_xyz
  'x, y, z'

loop_
  _atom_site_type_symbol
  _atom_site_label
  _atom_site_symmetry_multiplicity
  _atom_site_fract_x
  _atom_site_fract_y
  _atom_site_fract_z
  _atom_site_occupancy
  U   U1        1.0  0.31528  0.68471  0.75000  1.0000
  U   U2        1.0  0.68472  0.31528  0.25000  1.0000
  H   H1        1.0  0.45771  0.90300  0.06792  1.0000
  H   H2        1.0  0.09699  0.54229  0.43208  1.0000
  H   H3        1.0  0.54229  0.09700  0.93208  1.0000
  H   H4        1.0  0.90301  0.45771  0.56792  1.0000
  H   H5        1.0  0.62450  0.94780  0.28674  1.0000
  H   H6        1.0  0.05220  0.37550  0.21325  1.0000
  H   H7        1.0  0.37550  0.05220  0.71326  1.0000
  H   H8        1.0  0.94780  0.62450  0.78675  1.0000
  H   H9        1.0  0.78279  0.78969  0.31017  1.0000
  H   H10       1.0  0.21031  0.21721  0.18983  1.0000
  H   H11       1.0  0.21721  0.21031  0.68983  1.0000
  H   H12       1.0  0.78969  0.78279  0.81017  1.0000
  H   H13       1.0  0.76263  0.59856  0.11319  1.0000
  H   H14       1.0  0.40144  0.23737  0.38681  1.0000
  H   H15       1.0  0.23737  0.40144  0.88681  1.0000
  H   H16       1.0  0.59856  0.76263  0.61319  1.0000
  H   H17       1.0  0.74857  0.45722  0.95543  1.0000
  H   H18       1.0  0.54278  0.25143  0.54458  1.0000
  H   H19       1.0  0.25143  0.54278  0.04457  1.0000
  H   H20       1.0  0.45721  0.74857  0.45542  1.0000
  H   H21       1.0  0.72308  0.27693  0.75000  1.0000
  H   H22       1.0  0.27692  0.72307  0.25000  1.0000
  H   H23       1.0  0.14860  0.03033  0.86875  1.0000
  H   H24       1.0  0.96966  0.85139  0.63124  1.0000
  H   H25       1.0  0.85140  0.96967  0.13126  1.0000
  H   H26       1.0  0.03034  0.14861  0.36875  1.0000
  H   H27       1.0  0.01305  0.81984  0.10359  1.0000
  H   H28       1.0  0.18016  0.98695  0.39640  1.0000
  H   H29       1.0  0.98695  0.18016  0.89641  1.0000
  H   H30       1.0  0.81984  0.01305  0.60358  1.0000
  C   C1        1.0  0.52531  0.83608  0.08060  1.0000
  C   C2        1.0  0.16392  0.47469  0.41939  1.0000
  C   C3        1.0  0.47469  0.16392  0.91940  1.0000
  C   C4        1.0  0.83608  0.52531  0.58060  1.0000
  C   C5        1.0  0.62113  0.86177  0.20364  1.0000
  C   C6        1.0  0.13822  0.37888  0.29635  1.0000
  C   C7        1.0  0.37887  0.13823  0.79636  1.0000
  C   C8        1.0  0.86178  0.62113  0.70365  1.0000
  C   C9        1.0  0.70732  0.77477  0.21573  1.0000
  C   C10       1.0  0.22522  0.29269  0.28427  1.0000
  C   C11       1.0  0.29268  0.22523  0.78426  1.0000
  C   C12       1.0  0.77478  0.70732  0.71574  1.0000
  C   C13       1.0  0.69609  0.66733  0.10427  1.0000
  C   C14       1.0  0.33267  0.30391  0.39573  1.0000
  C   C15       1.0  0.30391  0.33267  0.89573  1.0000
  C   C16       1.0  0.66734  0.69609  0.60427  1.0000
  C   C17       1.0  0.59672  0.64672  0.98328  1.0000
  C   C18       1.0  0.35328  0.40328  0.51672  1.0000
  C   C19       1.0  0.40328  0.35328  0.01672  1.0000
  C   C20       1.0  0.64672  0.59672  0.48329  1.0000
  C   C21       1.0  0.58155  0.53488  0.86238  1.0000
  C   C22       1.0  0.46512  0.41844  0.63762  1.0000
  C   C23       1.0  0.41844  0.46512  0.13762  1.0000
  C   C24       1.0  0.53488  0.58155  0.36238  1.0000
  C   C25       1.0  0.67012  0.44826  0.86521  1.0000
  C   C26       1.0  0.55174  0.32988  0.63479  1.0000
  C   C27       1.0  0.32988  0.55174  0.13479  1.0000
  C   C28       1.0  0.44826  0.67012  0.36521  1.0000
  C   C29       1.0  0.65500  0.34501  0.75000  1.0000
  C   C30       1.0  0.34500  0.65499  0.25000  1.0000
  C   C31       1.0  0.18243  0.82256  0.96739  1.0000
  C   C32       1.0  0.17743  0.81757  0.53260  1.0000
  C   C33       1.0  0.81757  0.17743  0.03262  1.0000
  C   C34       1.0  0.82258  0.18244  0.46739  1.0000
  C   C35       1.0  0.09077  0.91714  0.98531  1.0000
  C   C36       1.0  0.08286  0.90922  0.51468  1.0000
  C   C37       1.0  0.90923  0.08286  0.01470  1.0000
  C   C38       1.0  0.91714  0.09077  0.48530  1.0000
  C   C39       1.0  0.08366  0.01831  0.92646  1.0000
  C   C40       1.0  0.98169  0.91634  0.57353  1.0000
  C   C41       1.0  0.91634  0.98169  0.07355  1.0000
  C   C42       1.0  0.01831  0.08366  0.42645  1.0000
  C   C43       1.0  0.00653  0.89945  0.05899  1.0000
  C   C44       1.0  0.10055  0.99346  0.44101  1.0000
  C   C45       1.0  0.99347  0.10055  0.94102  1.0000
  C   C46       1.0  0.89945  0.00653  0.55898  1.0000
  N   N1        1.0  0.51021  0.72936  0.97252  1.0000
  N   N2        1.0  0.27064  0.48979  0.52748  1.0000
  N   N3        1.0  0.48979  0.27064  0.02748  1.0000
  N   N4        1.0  0.72936  0.51022  0.47252  1.0000
  N   N5        1.0  0.47981  0.52019  0.75000  1.0000
  N   N6        1.0  0.52019  0.47981  0.25000  1.0000
  O   O1        1.0  0.46476  0.82463  0.75188  1.0000
  O   O2        1.0  0.17536  0.53523  0.74811  1.0000
  O   O3        1.0  0.53523  0.17536  0.24812  1.0000
  O   O4        1.0  0.82465  0.46478  0.25189  1.0000
  O   O5        1.0  0.25518  0.84137  0.89375  1.0000
  O   O6        1.0  0.15862  0.74481  0.60624  1.0000
  O   O7        1.0  0.74481  0.15862  0.10625  1.0000
  O   O8        1.0  0.84139  0.25520  0.39376  1.0000
  O   O9        1.0  0.18595  0.73338  0.02001  1.0000
  O   O10       1.0  0.26662  0.81405  0.48000  1.0000
  O   O11       1.0  0.81405  0.26661  0.98000  1.0000
  O   O12       1.0  0.73340  0.18596  0.52001  1.0000
