data_image0
_chemical_formula_structural       Cu4H28C28N4Cl4
_chemical_formula_sum              "Cu4 H28 C28 N4 Cl4"
_cell_length_a       7.84142
_cell_length_b       9.36731
_cell_length_c       10.6205
_cell_angle_alpha    90
_cell_angle_beta     108.548
_cell_angle_gamma    89.9996

_space_group_name_H-M_alt    "P 1"
_space_group_IT_number       1

loop_
  _space_group_symop_operation_xyz
  'x, y, z'

loop_
  _atom_site_type_symbol
  _atom_site_label
  _atom_site_symmetry_multiplicity
  _atom_site_fract_x
  _atom_site_fract_y
  _atom_site_fract_z
  _atom_site_occupancy
  Cu  Cu1       1.0  0.15015  0.12207  0.07277  1.0000
  Cu  Cu2       1.0  0.15014  0.37793  0.57277  1.0000
  Cu  Cu3       1.0  0.84985  0.87793  0.92723  1.0000
  Cu  Cu4       1.0  0.84986  0.62207  0.42723  1.0000
  H   H1        1.0  0.98990  0.23820  0.36082  1.0000
  H   H2        1.0  0.98991  0.26180  0.86082  1.0000
  H   H3        1.0  0.01009  0.76180  0.63918  1.0000
  H   H4        1.0  0.01009  0.73820  0.13918  1.0000
  H   H5        1.0  0.01939  0.12770  0.51012  1.0000
  H   H6        1.0  0.01940  0.37231  0.01013  1.0000
  H   H7        1.0  0.98061  0.87231  0.48988  1.0000
  H   H8        1.0  0.98060  0.62769  0.98987  1.0000
  H   H9        1.0  0.31660  0.27466  0.41973  1.0000
  H   H10       1.0  0.31661  0.22533  0.91973  1.0000
  H   H11       1.0  0.68340  0.72534  0.58027  1.0000
  H   H12       1.0  0.68340  0.77467  0.08027  1.0000
  H   H13       1.0  0.37640  0.79593  0.46990  1.0000
  H   H14       1.0  0.37639  0.70408  0.96990  1.0000
  H   H15       1.0  0.62360  0.20407  0.53009  1.0000
  H   H16       1.0  0.62361  0.29592  0.03010  1.0000
  H   H17       1.0  0.15284  0.93680  0.29500  1.0000
  H   H18       1.0  0.15284  0.56319  0.79500  1.0000
  H   H19       1.0  0.84715  0.06319  0.70500  1.0000
  H   H20       1.0  0.84716  0.43681  0.20500  1.0000
  H   H21       1.0  0.54374  0.07138  0.13447  1.0000
  H   H22       1.0  0.54374  0.42862  0.63447  1.0000
  H   H23       1.0  0.45626  0.92862  0.86553  1.0000
  H   H24       1.0  0.45626  0.57138  0.36553  1.0000
  H   H25       1.0  0.78047  0.94102  0.29888  1.0000
  H   H26       1.0  0.78047  0.55898  0.79887  1.0000
  H   H27       1.0  0.21953  0.05898  0.70112  1.0000
  H   H28       1.0  0.21953  0.44102  0.20113  1.0000
  C   C1        1.0  0.07772  0.20413  0.45783  1.0000
  C   C2        1.0  0.07773  0.29587  0.95784  1.0000
  C   C3        1.0  0.92228  0.79587  0.54217  1.0000
  C   C4        1.0  0.92227  0.70413  0.04216  1.0000
  C   C5        1.0  0.26384  0.22027  0.49061  1.0000
  C   C6        1.0  0.26385  0.27973  0.99062  1.0000
  C   C7        1.0  0.73616  0.77973  0.50939  1.0000
  C   C8        1.0  0.73615  0.72027  0.00938  1.0000
  C   C9        1.0  0.60188  0.85693  0.40348  1.0000
  C   C10       1.0  0.60188  0.64307  0.90347  1.0000
  C   C11       1.0  0.39811  0.14306  0.59652  1.0000
  C   C12       1.0  0.39812  0.35693  0.09653  1.0000
  C   C13       1.0  0.42032  0.85626  0.39793  1.0000
  C   C14       1.0  0.42031  0.64374  0.89792  1.0000
  C   C15       1.0  0.57968  0.14374  0.60207  1.0000
  C   C16       1.0  0.57969  0.35626  0.10207  1.0000
  C   C17       1.0  0.29415  0.93391  0.30062  1.0000
  C   C18       1.0  0.29415  0.56609  0.80062  1.0000
  C   C19       1.0  0.70585  0.06609  0.69938  1.0000
  C   C20       1.0  0.70586  0.43391  0.19938  1.0000
  C   C21       1.0  0.51068  0.01021  0.21071  1.0000
  C   C22       1.0  0.51068  0.48979  0.71070  1.0000
  C   C23       1.0  0.48931  0.98979  0.78929  1.0000
  C   C24       1.0  0.48932  0.51021  0.28930  1.0000
  C   C25       1.0  0.64434  0.93591  0.30474  1.0000
  C   C26       1.0  0.64434  0.56409  0.80473  1.0000
  C   C27       1.0  0.35565  0.06409  0.69526  1.0000
  C   C28       1.0  0.35566  0.43591  0.19526  1.0000
  N   N1        1.0  0.33691  0.01161  0.20790  1.0000
  N   N2        1.0  0.33691  0.48839  0.70790  1.0000
  N   N3        1.0  0.66309  0.98839  0.79210  1.0000
  N   N4        1.0  0.66310  0.51161  0.29210  1.0000
  Cl  Cl1       1.0  0.89202  0.07640  0.11605  1.0000
  Cl  Cl2       1.0  0.89202  0.42360  0.61605  1.0000
  Cl  Cl3       1.0  0.10798  0.92361  0.88395  1.0000
  Cl  Cl4       1.0  0.10798  0.57640  0.38395  1.0000
