data_image0
_chemical_formula_structural       Zn4H44C40S4N12Cl8
_chemical_formula_sum              "Zn4 H44 C40 S4 N12 Cl8"
_cell_length_a       9.13485
_cell_length_b       9.89469
_cell_length_c       17.6326
_cell_angle_alpha    105.836
_cell_angle_beta     89.9894
_cell_angle_gamma    117.528

_space_group_name_H-M_alt    "P 1"
_space_group_IT_number       1

loop_
  _space_group_symop_operation_xyz
  'x, y, z'

loop_
  _atom_site_type_symbol
  _atom_site_label
  _atom_site_symmetry_multiplicity
  _atom_site_fract_x
  _atom_site_fract_y
  _atom_site_fract_z
  _atom_site_occupancy
  Zn  Zn1       1.0  0.57402  0.57895  0.37595  1.0000
  Zn  Zn2       1.0  0.99503  0.42106  0.12407  1.0000
  Zn  Zn3       1.0  0.42598  0.42104  0.62405  1.0000
  Zn  Zn4       1.0  0.00497  0.57894  0.87593  1.0000
  H   H1        1.0  0.20438  0.52878  0.36856  1.0000
  H   H2        1.0  0.67554  0.47092  0.13145  1.0000
  H   H3        1.0  0.79562  0.47122  0.63144  1.0000
  H   H4        1.0  0.32446  0.52908  0.86855  1.0000
  H   H5        1.0  0.10163  0.62608  0.42877  1.0000
  H   H6        1.0  0.47536  0.37350  0.07124  1.0000
  H   H7        1.0  0.89837  0.37391  0.57123  1.0000
  H   H8        1.0  0.52464  0.62650  0.92876  1.0000
  H   H9        1.0  0.13567  0.48185  0.45631  1.0000
  H   H10       1.0  0.65376  0.51776  0.04369  1.0000
  H   H11       1.0  0.86432  0.51815  0.54369  1.0000
  H   H12       1.0  0.34624  0.48224  0.95630  1.0000
  H   H13       1.0  0.69710  0.01796  0.68750  1.0000
  H   H14       1.0  0.67941  0.98252  0.81233  1.0000
  H   H15       1.0  0.30290  0.98204  0.31250  1.0000
  H   H16       1.0  0.32059  0.01748  0.18767  1.0000
  H   H17       1.0  0.60251  0.12552  0.66414  1.0000
  H   H18       1.0  0.47713  0.87464  0.83562  1.0000
  H   H19       1.0  0.39749  0.87447  0.33585  1.0000
  H   H20       1.0  0.52287  0.12536  0.16438  1.0000
  H   H21       1.0  0.78681  0.13838  0.62441  1.0000
  H   H22       1.0  0.64861  0.86194  0.87535  1.0000
  H   H23       1.0  0.21319  0.86162  0.37559  1.0000
  H   H24       1.0  0.35139  0.13806  0.12465  1.0000
  H   H25       1.0  0.98722  0.87720  0.68237  1.0000
  H   H26       1.0  0.10971  0.12263  0.81762  1.0000
  H   H27       1.0  0.01279  0.12281  0.31763  1.0000
  H   H28       1.0  0.89029  0.87737  0.18238  1.0000
  H   H29       1.0  0.90547  0.76011  0.79362  1.0000
  H   H30       1.0  0.14504  0.23960  0.70639  1.0000
  H   H31       1.0  0.09453  0.23989  0.20638  1.0000
  H   H32       1.0  0.85496  0.76040  0.29361  1.0000
  H   H33       1.0  0.34253  0.69718  0.64984  1.0000
  H   H34       1.0  0.64516  0.30222  0.84982  1.0000
  H   H35       1.0  0.65747  0.30282  0.35016  1.0000
  H   H36       1.0  0.35484  0.69777  0.15018  1.0000
  H   H37       1.0  0.23266  0.57358  0.75581  1.0000
  H   H38       1.0  0.65894  0.42585  0.74390  1.0000
  H   H39       1.0  0.76734  0.42641  0.24419  1.0000
  H   H40       1.0  0.34106  0.57416  0.25610  1.0000
  H   H41       1.0  0.73696  0.84628  0.51788  1.0000
  H   H42       1.0  0.89071  0.15390  0.98206  1.0000
  H   H43       1.0  0.26304  0.15372  0.48212  1.0000
  H   H44       1.0  0.10929  0.84610  0.01794  1.0000
  C   C1        1.0  0.18997  0.58004  0.42973  1.0000
  C   C2        1.0  0.60982  0.41959  0.07028  1.0000
  C   C3        1.0  0.81002  0.41996  0.57027  1.0000
  C   C4        1.0  0.39018  0.58041  0.92972  1.0000
  C   C5        1.0  0.35316  0.70697  0.47741  1.0000
  C   C6        1.0  0.64600  0.29273  0.02257  1.0000
  C   C7        1.0  0.64684  0.29303  0.52259  1.0000
  C   C8        1.0  0.35400  0.70727  0.97743  1.0000
  C   C9        1.0  0.38784  0.83937  0.54559  1.0000
  C   C10       1.0  0.54834  0.16047  0.95431  1.0000
  C   C11       1.0  0.61216  0.16062  0.45441  1.0000
  C   C12       1.0  0.45167  0.83953  0.04569  1.0000
  C   C13       1.0  0.56105  0.91823  0.57060  1.0000
  C   C14       1.0  0.64286  0.08186  0.92925  1.0000
  C   C15       1.0  0.43895  0.08177  0.42940  1.0000
  C   C16       1.0  0.35714  0.91814  0.07075  1.0000
  C   C17       1.0  0.66805  0.05807  0.63997  1.0000
  C   C18       1.0  0.61018  0.94221  0.85982  1.0000
  C   C19       1.0  0.33195  0.94193  0.36003  1.0000
  C   C20       1.0  0.38982  0.05779  0.14018  1.0000
  C   C21       1.0  0.17768  0.80286  0.65854  1.0000
  C   C22       1.0  0.37456  0.19675  0.84131  1.0000
  C   C23       1.0  0.82232  0.19714  0.34146  1.0000
  C   C24       1.0  0.62544  0.80325  0.15868  1.0000
  C   C25       1.0  0.05014  0.81675  0.69882  1.0000
  C   C26       1.0  0.23310  0.18300  0.80112  1.0000
  C   C27       1.0  0.94987  0.18325  0.30118  1.0000
  C   C28       1.0  0.76690  0.81700  0.19888  1.0000
  C   C29       1.0  0.00163  0.74933  0.75985  1.0000
  C   C30       1.0  0.25204  0.25040  0.74010  1.0000
  C   C31       1.0  0.99837  0.25067  0.24015  1.0000
  C   C32       1.0  0.74796  0.74961  0.25990  1.0000
  C   C33       1.0  0.24442  0.71343  0.67920  1.0000
  C   C34       1.0  0.53074  0.28598  0.82051  1.0000
  C   C35       1.0  0.75558  0.28657  0.32080  1.0000
  C   C36       1.0  0.46926  0.71402  0.17949  1.0000
  C   C37       1.0  0.18519  0.64625  0.73945  1.0000
  C   C38       1.0  0.53871  0.35321  0.76029  1.0000
  C   C39       1.0  0.81481  0.35375  0.26055  1.0000
  C   C40       1.0  0.46128  0.64679  0.23970  1.0000
  S   S1        1.0  0.24542  0.89948  0.58577  1.0000
  S   S2        1.0  0.34570  0.10021  0.91412  1.0000
  S   S3        1.0  0.75458  0.10052  0.41423  1.0000
  S   S4        1.0  0.65430  0.89979  0.08587  1.0000
  N   N1        1.0  0.49722  0.70751  0.46197  1.0000
  N   N2        1.0  0.78956  0.29233  0.03802  1.0000
  N   N3        1.0  0.50278  0.29249  0.53803  1.0000
  N   N4        1.0  0.21044  0.70767  0.96198  1.0000
  N   N5        1.0  0.61976  0.83529  0.51835  1.0000
  N   N6        1.0  0.78446  0.16476  0.98158  1.0000
  N   N7        1.0  0.38023  0.16471  0.48165  1.0000
  N   N8        1.0  0.21554  0.83524  0.01842  1.0000
  N   N9        1.0  0.06843  0.66582  0.78075  1.0000
  N   N10       1.0  0.40239  0.33385  0.71911  1.0000
  N   N11       1.0  0.93157  0.33418  0.21925  1.0000
  N   N12       1.0  0.59761  0.66616  0.28089  1.0000
  Cl  Cl1       1.0  0.83842  0.68317  0.43640  1.0000
  Cl  Cl2       1.0  0.15531  0.31704  0.06372  1.0000
  Cl  Cl3       1.0  0.16158  0.31683  0.56360  1.0000
  Cl  Cl4       1.0  0.84469  0.68296  0.93628  1.0000
  Cl  Cl5       1.0  0.38600  0.32097  0.32904  1.0000
  Cl  Cl6       1.0  0.06495  0.67899  0.17090  1.0000
  Cl  Cl7       1.0  0.61400  0.67902  0.67096  1.0000
  Cl  Cl8       1.0  0.93505  0.32102  0.82910  1.0000
