data_image0
_chemical_formula_structural       Cu3H14C12N4Cl2O6
_chemical_formula_sum              "Cu3 H14 C12 N4 Cl2 O6"
_cell_length_a       4.95419
_cell_length_b       8.63847
_cell_length_c       12.1363
_cell_angle_alpha    109.927
_cell_angle_beta     93.1743
_cell_angle_gamma    115.832

_space_group_name_H-M_alt    "P 1"
_space_group_IT_number       1

loop_
  _space_group_symop_operation_xyz
  'x, y, z'

loop_
  _atom_site_type_symbol
  _atom_site_label
  _atom_site_symmetry_multiplicity
  _atom_site_fract_x
  _atom_site_fract_y
  _atom_site_fract_z
  _atom_site_occupancy
  Cu  Cu1       1.0  0.49958  0.49994  0.00004  1.0000
  Cu  Cu2       1.0  0.19609  0.39906  0.38975  1.0000
  Cu  Cu3       1.0  0.80465  0.60072  0.61033  1.0000
  H   H1        1.0  0.62596  0.13742  0.19508  1.0000
  H   H2        1.0  0.37438  0.86278  0.80502  1.0000
  H   H3        1.0  0.95144  0.70636  0.24785  1.0000
  H   H4        1.0  0.04839  0.29348  0.75197  1.0000
  H   H5        1.0  0.50189  0.12838  0.40944  1.0000
  H   H6        1.0  0.49834  0.87157  0.59034  1.0000
  H   H7        1.0  0.24931  0.94435  0.44897  1.0000
  H   H8        1.0  0.75116  0.05543  0.55073  1.0000
  H   H9        1.0  0.26460  0.17015  0.50445  1.0000
  H   H10       1.0  0.73576  0.82958  0.49542  1.0000
  H   H11       1.0  0.31048  0.40702  0.18863  1.0000
  H   H12       1.0  0.68924  0.59313  0.81134  1.0000
  H   H13       1.0  0.01465  0.43054  0.18313  1.0000
  H   H14       1.0  0.98503  0.56951  0.81714  1.0000
  C   C1        1.0  0.57165  0.85782  0.12180  1.0000
  C   C2        1.0  0.42812  0.14223  0.87826  1.0000
  C   C3        1.0  0.70518  0.04293  0.20609  1.0000
  C   C4        1.0  0.29492  0.95715  0.79395  1.0000
  C   C5        1.0  0.02540  0.99237  0.31913  1.0000
  C   C6        1.0  0.97478  0.00757  0.68076  1.0000
  C   C7        1.0  0.88594  0.80530  0.23506  1.0000
  C   C8        1.0  0.11398  0.19461  0.76482  1.0000
  C   C9        1.0  0.32076  0.77968  0.01115  1.0000
  C   C10       1.0  0.67877  0.22048  0.98901  1.0000
  C   C11       1.0  0.27238  0.06161  0.42681  1.0000
  C   C12       1.0  0.72794  0.93821  0.57298  1.0000
  N   N1        1.0  0.66766  0.74059  0.13629  1.0000
  N   N2        1.0  0.33201  0.25937  0.86369  1.0000
  N   N3        1.0  0.93662  0.11248  0.30236  1.0000
  N   N4        1.0  0.06374  0.88756  0.69759  1.0000
  Cl  Cl1       1.0  0.26164  0.51019  0.59700  1.0000
  Cl  Cl2       1.0  0.73862  0.48997  0.40311  1.0000
  O   O1        1.0  0.28348  0.62675  0.92500  1.0000
  O   O2        1.0  0.71552  0.37315  0.07524  1.0000
  O   O3        1.0  0.16683  0.86068  0.00932  1.0000
  O   O4        1.0  0.83313  0.13968  0.99083  1.0000
  O   O5        1.0  0.21136  0.46988  0.23966  1.0000
  O   O6        1.0  0.78860  0.53030  0.76046  1.0000
