data_image0
_chemical_formula_structural       Hg2H64C68Br4N8
_chemical_formula_sum              "Hg2 H64 C68 Br4 N8"
_cell_length_a       10.435
_cell_length_b       10.4471
_cell_length_c       16.2905
_cell_angle_alpha    105.802
_cell_angle_beta     106.166
_cell_angle_gamma    98.1654

_space_group_name_H-M_alt    "P 1"
_space_group_IT_number       1

loop_
  _space_group_symop_operation_xyz
  'x, y, z'

loop_
  _atom_site_type_symbol
  _atom_site_label
  _atom_site_symmetry_multiplicity
  _atom_site_fract_x
  _atom_site_fract_y
  _atom_site_fract_z
  _atom_site_occupancy
  Hg  Hg1       1.0  0.97531  0.22512  0.25001  1.0000
  Hg  Hg2       1.0  0.02469  0.77487  0.74999  1.0000
  H   H1        1.0  0.18500  0.37185  0.51713  1.0000
  H   H2        1.0  0.85481  0.16797  0.98310  1.0000
  H   H3        1.0  0.81500  0.62815  0.48287  1.0000
  H   H4        1.0  0.14519  0.83203  0.01690  1.0000
  H   H5        1.0  0.09783  0.40597  0.41894  1.0000
  H   H6        1.0  0.98743  0.17887  0.08119  1.0000
  H   H7        1.0  0.90218  0.59403  0.58106  1.0000
  H   H8        1.0  0.01257  0.82114  0.91881  1.0000
  H   H9        1.0  0.24333  0.62136  0.53651  1.0000
  H   H10       1.0  0.08510  0.20649  0.96359  1.0000
  H   H11       1.0  0.75667  0.37864  0.46349  1.0000
  H   H12       1.0  0.91490  0.79351  0.03642  1.0000
  H   H13       1.0  0.16180  0.59111  0.61407  1.0000
  H   H14       1.0  0.97693  0.04756  0.88597  1.0000
  H   H15       1.0  0.83820  0.40889  0.38593  1.0000
  H   H16       1.0  0.02308  0.95245  0.11404  1.0000
  H   H17       1.0  0.98103  0.37224  0.56682  1.0000
  H   H18       1.0  0.80521  0.91435  0.93317  1.0000
  H   H19       1.0  0.01898  0.62776  0.43318  1.0000
  H   H20       1.0  0.19480  0.08565  0.06683  1.0000
  H   H21       1.0  0.57683  0.05531  0.43853  1.0000
  H   H22       1.0  0.61702  0.63886  0.06192  1.0000
  H   H23       1.0  0.42318  0.94469  0.56147  1.0000
  H   H24       1.0  0.38297  0.36115  0.93807  1.0000
  H   H25       1.0  0.83215  0.38778  0.67785  1.0000
  H   H26       1.0  0.70882  0.65370  0.82212  1.0000
  H   H27       1.0  0.16785  0.61222  0.32215  1.0000
  H   H28       1.0  0.29118  0.34631  0.17787  1.0000
  H   H29       1.0  0.92786  0.20952  0.61994  1.0000
  H   H30       1.0  0.58900  0.80737  0.88011  1.0000
  H   H31       1.0  0.07214  0.79048  0.38006  1.0000
  H   H32       1.0  0.41099  0.19264  0.11989  1.0000
  H   H33       1.0  0.81373  0.04715  0.57744  1.0000
  H   H34       1.0  0.46901  0.73613  0.92268  1.0000
  H   H35       1.0  0.18628  0.95285  0.42256  1.0000
  H   H36       1.0  0.53098  0.26388  0.07732  1.0000
  H   H37       1.0  0.90647  0.90364  0.21708  1.0000
  H   H38       1.0  0.68657  0.18967  0.28292  1.0000
  H   H39       1.0  0.09354  0.09635  0.78292  1.0000
  H   H40       1.0  0.31344  0.81033  0.71708  1.0000
  H   H41       1.0  0.38977  0.17963  0.42476  1.0000
  H   H42       1.0  0.75520  0.46562  0.07550  1.0000
  H   H43       1.0  0.61023  0.82035  0.57524  1.0000
  H   H44       1.0  0.24479  0.53438  0.92449  1.0000
  H   H45       1.0  0.73693  0.83972  0.46797  1.0000
  H   H46       1.0  0.37121  0.76906  0.03215  1.0000
  H   H47       1.0  0.26307  0.16028  0.53203  1.0000
  H   H48       1.0  0.62879  0.23094  0.96785  1.0000
  H   H49       1.0  0.79333  0.67255  0.21050  1.0000
  H   H50       1.0  0.46222  0.08275  0.28983  1.0000
  H   H51       1.0  0.20668  0.32745  0.78950  1.0000
  H   H52       1.0  0.53778  0.91725  0.71017  1.0000
  H   H53       1.0  0.71008  0.64104  0.33285  1.0000
  H   H54       1.0  0.30800  0.87715  0.16745  1.0000
  H   H55       1.0  0.28992  0.35896  0.66715  1.0000
  H   H56       1.0  0.69201  0.12285  0.83255  1.0000
  H   H57       1.0  0.64416  0.51065  0.66513  1.0000
  H   H58       1.0  0.84487  0.47888  0.83481  1.0000
  H   H59       1.0  0.35583  0.48934  0.33487  1.0000
  H   H60       1.0  0.15514  0.52113  0.16519  1.0000
  H   H61       1.0  0.42320  0.40739  0.53704  1.0000
  H   H62       1.0  0.87031  0.38652  0.96298  1.0000
  H   H63       1.0  0.57679  0.59260  0.46296  1.0000
  H   H64       1.0  0.12968  0.61348  0.03702  1.0000
  C   C1        1.0  0.10518  0.42169  0.48987  1.0000
  C   C2        1.0  0.93191  0.11535  0.01026  1.0000
  C   C3        1.0  0.89482  0.57831  0.51013  1.0000
  C   C4        1.0  0.06808  0.88465  0.98974  1.0000
  C   C5        1.0  0.92612  0.20452  0.44692  1.0000
  C   C6        1.0  0.75735  0.97926  0.05304  1.0000
  C   C7        1.0  0.07389  0.79548  0.55308  1.0000
  C   C8        1.0  0.24264  0.02074  0.94696  1.0000
  C   C9        1.0  0.14608  0.57485  0.54192  1.0000
  C   C10       1.0  0.03297  0.10397  0.95813  1.0000
  C   C11       1.0  0.85392  0.42515  0.45808  1.0000
  C   C12       1.0  0.96704  0.89603  0.04188  1.0000
  C   C13       1.0  0.96760  0.35505  0.49477  1.0000
  C   C14       1.0  0.86017  0.97299  0.00526  1.0000
  C   C15       1.0  0.03240  0.64495  0.50523  1.0000
  C   C16       1.0  0.13983  0.02701  0.99474  1.0000
  C   C17       1.0  0.88369  0.00202  0.34635  1.0000
  C   C18       1.0  0.65552  0.03744  0.15371  1.0000
  C   C19       1.0  0.11632  0.99797  0.65365  1.0000
  C   C20       1.0  0.34448  0.96255  0.84629  1.0000
  C   C21       1.0  0.71662  0.21324  0.55972  1.0000
  C   C22       1.0  0.65312  0.65689  0.94050  1.0000
  C   C23       1.0  0.28337  0.78675  0.44028  1.0000
  C   C24       1.0  0.34688  0.34312  0.05949  1.0000
  C   C25       1.0  0.83743  0.98276  0.41692  1.0000
  C   C26       1.0  0.56556  0.92057  0.08317  1.0000
  C   C27       1.0  0.16258  0.01723  0.58308  1.0000
  C   C28       1.0  0.43444  0.07943  0.91683  1.0000
  C   C29       1.0  0.59121  0.15437  0.48896  1.0000
  C   C30       1.0  0.66543  0.60263  0.01139  1.0000
  C   C31       1.0  0.40879  0.84562  0.51104  1.0000
  C   C32       1.0  0.33456  0.39737  0.98861  1.0000
  C   C33       1.0  0.73360  0.34034  0.62373  1.0000
  C   C34       1.0  0.71590  0.60959  0.87634  1.0000
  C   C35       1.0  0.26640  0.65965  0.37626  1.0000
  C   C36       1.0  0.28409  0.39042  0.12366  1.0000
  C   C37       1.0  0.83538  0.14440  0.56438  1.0000
  C   C38       1.0  0.57947  0.77078  0.93574  1.0000
  C   C39       1.0  0.16462  0.85560  0.43562  1.0000
  C   C40       1.0  0.42052  0.22923  0.06426  1.0000
  C   C41       1.0  0.86950  0.89030  0.27117  1.0000
  C   C42       1.0  0.61906  0.09846  0.22893  1.0000
  C   C43       1.0  0.13051  0.10970  0.72883  1.0000
  C   C44       1.0  0.38095  0.90153  0.77107  1.0000
  C   C45       1.0  0.48600  0.22380  0.48132  1.0000
  C   C46       1.0  0.74256  0.50511  0.01893  1.0000
  C   C47       1.0  0.51400  0.77619  0.51867  1.0000
  C   C48       1.0  0.25744  0.49489  0.98106  1.0000
  C   C49       1.0  0.77453  0.85385  0.41426  1.0000
  C   C50       1.0  0.43928  0.86027  0.08590  1.0000
  C   C51       1.0  0.22547  0.14615  0.58574  1.0000
  C   C52       1.0  0.56072  0.13973  0.91411  1.0000
  C   C53       1.0  0.80617  0.76172  0.26809  1.0000
  C   C54       1.0  0.49358  0.03806  0.23211  1.0000
  C   C55       1.0  0.19384  0.23828  0.73191  1.0000
  C   C56       1.0  0.50642  0.96194  0.76789  1.0000
  C   C57       1.0  0.75919  0.74370  0.33827  1.0000
  C   C58       1.0  0.40525  0.92087  0.16193  1.0000
  C   C59       1.0  0.24081  0.25629  0.66173  1.0000
  C   C60       1.0  0.59476  0.07912  0.83807  1.0000
  C   C61       1.0  0.62815  0.40984  0.61629  1.0000
  C   C62       1.0  0.79304  0.51178  0.88375  1.0000
  C   C63       1.0  0.37185  0.59015  0.38371  1.0000
  C   C64       1.0  0.20696  0.48823  0.11624  1.0000
  C   C65       1.0  0.50463  0.35209  0.54457  1.0000
  C   C66       1.0  0.80734  0.46029  0.95554  1.0000
  C   C67       1.0  0.49536  0.64789  0.45542  1.0000
  C   C68       1.0  0.19265  0.53972  0.04445  1.0000
  Br  Br1       1.0  0.21007  0.16656  0.26374  1.0000
  Br  Br2       1.0  0.90270  0.44584  0.23610  1.0000
  Br  Br3       1.0  0.78994  0.83346  0.73627  1.0000
  Br  Br4       1.0  0.09729  0.55416  0.76390  1.0000
  N   N1        1.0  0.93722  0.14085  0.36700  1.0000
  N   N2        1.0  0.77370  0.07035  0.13297  1.0000
  N   N3        1.0  0.06279  0.85914  0.63300  1.0000
  N   N4        1.0  0.22630  0.92964  0.86703  1.0000
  N   N5        1.0  0.86706  0.11246  0.47986  1.0000
  N   N6        1.0  0.63225  0.88719  0.02018  1.0000
  N   N7        1.0  0.13294  0.88754  0.52014  1.0000
  N   N8        1.0  0.36775  0.11281  0.97982  1.0000
