data_image0
_chemical_formula_structural       Ni2H32C16S4N12O4
_chemical_formula_sum              "Ni2 H32 C16 S4 N12 O4"
_cell_length_a       7.69074
_cell_length_b       7.69077
_cell_length_c       12.3673
_cell_angle_alpha    104.203
_cell_angle_beta     104.204
_cell_angle_gamma    100.643

_space_group_name_H-M_alt    "P 1"
_space_group_IT_number       1

loop_
  _space_group_symop_operation_xyz
  'x, y, z'

loop_
  _atom_site_type_symbol
  _atom_site_label
  _atom_site_symmetry_multiplicity
  _atom_site_fract_x
  _atom_site_fract_y
  _atom_site_fract_z
  _atom_site_occupancy
  Ni  Ni1       1.0  0.50000  0.50000  0.50000  1.0000
  Ni  Ni2       1.0  0.50000  0.50000  1.00000  1.0000
  H   H1        1.0  0.27493  0.66430  0.38204  1.0000
  H   H2        1.0  0.33570  0.72506  0.11796  1.0000
  H   H3        1.0  0.72507  0.33569  0.61797  1.0000
  H   H4        1.0  0.66431  0.27494  0.88205  1.0000
  H   H5        1.0  0.14208  0.46237  0.34873  1.0000
  H   H6        1.0  0.53763  0.85790  0.15127  1.0000
  H   H7        1.0  0.85791  0.53763  0.65127  1.0000
  H   H8        1.0  0.46238  0.14210  0.84873  1.0000
  H   H9        1.0  0.14309  0.41421  0.57540  1.0000
  H   H10       1.0  0.58577  0.85690  0.92459  1.0000
  H   H11       1.0  0.85690  0.58578  0.42460  1.0000
  H   H12       1.0  0.41423  0.14310  0.07541  1.0000
  H   H13       1.0  0.14237  0.62891  0.54161  1.0000
  H   H14       1.0  0.37109  0.85763  0.95839  1.0000
  H   H15       1.0  0.85762  0.37109  0.45839  1.0000
  H   H16       1.0  0.62891  0.14237  0.04161  1.0000
  H   H17       1.0  0.41076  0.39356  0.71546  1.0000
  H   H18       1.0  0.60640  0.58922  0.78453  1.0000
  H   H19       1.0  0.58924  0.60643  0.28454  1.0000
  H   H20       1.0  0.39359  0.41078  0.21547  1.0000
  H   H21       1.0  0.60251  0.87537  0.73501  1.0000
  H   H22       1.0  0.12462  0.39748  0.76498  1.0000
  H   H23       1.0  0.39749  0.12462  0.26499  1.0000
  H   H24       1.0  0.87538  0.60252  0.23502  1.0000
  H   H25       1.0  0.40157  0.88723  0.62966  1.0000
  H   H26       1.0  0.11277  0.59844  0.87032  1.0000
  H   H27       1.0  0.59843  0.11277  0.37034  1.0000
  H   H28       1.0  0.88723  0.40156  0.12968  1.0000
  H   H29       1.0  0.11769  0.89290  0.67930  1.0000
  H   H30       1.0  0.10711  0.88232  0.82070  1.0000
  H   H31       1.0  0.88231  0.10710  0.32070  1.0000
  H   H32       1.0  0.89289  0.11768  0.17930  1.0000
  C   C1        1.0  0.73398  0.89578  0.54488  1.0000
  C   C2        1.0  0.10426  0.26604  0.95513  1.0000
  C   C3        1.0  0.26603  0.10425  0.45513  1.0000
  C   C4        1.0  0.89576  0.73396  0.04487  1.0000
  C   C5        1.0  0.18701  0.56633  0.61066  1.0000
  C   C6        1.0  0.43371  0.81300  0.88932  1.0000
  C   C7        1.0  0.81299  0.43367  0.38933  1.0000
  C   C8        1.0  0.56629  0.18700  0.11068  1.0000
  C   C9        1.0  0.45491  0.54515  0.75000  1.0000
  C   C10       1.0  0.54509  0.45486  0.24999  1.0000
  C   C11       1.0  0.45042  0.82961  0.70091  1.0000
  C   C12       1.0  0.17039  0.54960  0.79909  1.0000
  C   C13       1.0  0.54957  0.17038  0.29909  1.0000
  C   C14       1.0  0.82961  0.45040  0.20091  1.0000
  C   C15       1.0  0.16623  0.83378  0.74999  1.0000
  C   C16       1.0  0.83377  0.16622  0.25001  1.0000
  S   S1        1.0  0.86428  0.10538  0.58465  1.0000
  S   S2        1.0  0.89464  0.13573  0.91537  1.0000
  S   S3        1.0  0.13571  0.89463  0.41536  1.0000
  S   S4        1.0  0.10537  0.86427  0.08464  1.0000
  N   N1        1.0  0.64193  0.74059  0.51560  1.0000
  N   N2        1.0  0.25941  0.35807  0.98440  1.0000
  N   N3        1.0  0.35807  0.25940  0.48440  1.0000
  N   N4        1.0  0.74059  0.64193  0.01560  1.0000
  N   N5        1.0  0.39208  0.62422  0.65426  1.0000
  N   N6        1.0  0.37576  0.60791  0.84572  1.0000
  N   N7        1.0  0.60791  0.37578  0.34574  1.0000
  N   N8        1.0  0.62424  0.39209  0.15428  1.0000
  N   N9        1.0  0.10352  0.62861  0.70388  1.0000
  N   N10       1.0  0.37138  0.89648  0.79611  1.0000
  N   N11       1.0  0.89648  0.37138  0.29612  1.0000
  N   N12       1.0  0.62862  0.10352  0.20389  1.0000
  O   O1        1.0  0.27622  0.53271  0.36995  1.0000
  O   O2        1.0  0.46726  0.72376  0.13004  1.0000
  O   O3        1.0  0.72378  0.46728  0.63004  1.0000
  O   O4        1.0  0.53275  0.27624  0.86997  1.0000
