data_image0
_chemical_formula_structural       CoH28C24N2O6
_chemical_formula_sum              "Co1 H28 C24 N2 O6"
_cell_length_a       8.10262
_cell_length_b       9.03763
_cell_length_c       9.04072
_cell_angle_alpha    103.696
_cell_angle_beta     116.627
_cell_angle_gamma    89.9852

_space_group_name_H-M_alt    "P 1"
_space_group_IT_number       1

loop_
  _space_group_symop_operation_xyz
  'x, y, z'

loop_
  _atom_site_type_symbol
  _atom_site_label
  _atom_site_symmetry_multiplicity
  _atom_site_fract_x
  _atom_site_fract_y
  _atom_site_fract_z
  _atom_site_occupancy
  Co  Co1       1.0  0.22524  0.00001  0.00006  1.0000
  H   H1        1.0  0.12708  0.86572  0.57959  1.0000
  H   H2        1.0  0.54749  0.13428  0.42018  1.0000
  H   H3        1.0  0.34442  0.80545  0.60383  1.0000
  H   H4        1.0  0.74052  0.19465  0.39591  1.0000
  H   H5        1.0  0.56998  0.81348  0.91814  1.0000
  H   H6        1.0  0.65172  0.18688  0.08161  1.0000
  H   H7        1.0  0.43731  0.63044  0.80287  1.0000
  H   H8        1.0  0.63379  0.36973  0.19690  1.0000
  H   H9        1.0  0.30794  0.64742  0.00564  1.0000
  H   H10       1.0  0.30169  0.35237  0.99431  1.0000
  H   H11       1.0  0.55623  0.66262  0.11732  1.0000
  H   H12       1.0  0.43792  0.33739  0.88231  1.0000
  H   H13       1.0  0.67515  0.95719  0.16270  1.0000
  H   H14       1.0  0.51207  0.04281  0.83717  1.0000
  H   H15       1.0  0.71548  0.90919  0.35338  1.0000
  H   H16       1.0  0.36164  0.09088  0.64658  1.0000
  H   H17       1.0  0.21311  0.78631  0.18855  1.0000
  H   H18       1.0  0.02408  0.21360  0.81146  1.0000
  H   H19       1.0  0.35119  0.95177  0.34919  1.0000
  H   H20       1.0  0.00155  0.04815  0.65077  1.0000
  H   H21       1.0  0.26436  0.53699  0.23215  1.0000
  H   H22       1.0  0.03191  0.46301  0.76800  1.0000
  H   H23       1.0  0.41773  0.37945  0.43331  1.0000
  H   H24       1.0  0.98439  0.62059  0.56697  1.0000
  H   H25       1.0  0.70620  0.49228  0.71068  1.0000
  H   H26       1.0  0.99565  0.50779  0.28970  1.0000
  H   H27       1.0  0.68232  0.92049  0.58345  1.0000
  H   H28       1.0  0.09860  0.07943  0.41668  1.0000
  C   C1        1.0  0.89462  0.77425  0.82014  1.0000
  C   C2        1.0  0.07446  0.22578  0.18012  1.0000
  C   C3        1.0  0.27497  0.87451  0.67119  1.0000
  C   C4        1.0  0.60382  0.12548  0.32860  1.0000
  C   C5        1.0  0.44284  0.74211  0.88805  1.0000
  C   C6        1.0  0.55446  0.25800  0.11167  1.0000
  C   C7        1.0  0.43713  0.72037  0.04632  1.0000
  C   C8        1.0  0.39020  0.27953  0.95343  1.0000
  C   C9        1.0  0.61791  0.96018  0.25274  1.0000
  C   C10       1.0  0.36477  0.03980  0.74715  1.0000
  C   C11       1.0  0.35741  0.83925  0.27413  1.0000
  C   C12       1.0  0.08280  0.16067  0.72585  1.0000
  C   C13       1.0  0.46264  0.74017  0.39058  1.0000
  C   C14       1.0  0.07170  0.25976  0.60950  1.0000
  C   C15       1.0  0.39172  0.58636  0.35057  1.0000
  C   C16       1.0  0.04078  0.41358  0.64954  1.0000
  C   C17       1.0  0.47769  0.49734  0.46512  1.0000
  C   C18       1.0  0.01242  0.50268  0.53514  1.0000
  C   C19       1.0  0.63733  0.55932  0.61897  1.0000
  C   C20       1.0  0.01839  0.44076  0.38138  1.0000
  C   C21       1.0  0.71407  0.71112  0.65888  1.0000
  C   C22       1.0  0.05514  0.28891  0.34138  1.0000
  C   C23       1.0  0.62472  0.80057  0.54527  1.0000
  C   C24       1.0  0.07931  0.19939  0.45491  1.0000
  N   N1        1.0  0.43200  0.86848  0.15741  1.0000
  N   N2        1.0  0.27414  0.13142  0.84250  1.0000
  O   O1        1.0  0.95998  0.69990  0.93029  1.0000
  O   O2        1.0  0.02934  0.30003  0.06986  1.0000
  O   O3        1.0  0.97059  0.90276  0.82574  1.0000
  O   O4        1.0  0.14504  0.09734  0.17451  1.0000
  O   O5        1.0  0.28005  0.81248  0.80460  1.0000
  O   O6        1.0  0.47534  0.18734  0.19506  1.0000
