data_image0
_chemical_formula_structural       Zn4H32C36N8O8
_chemical_formula_sum              "Zn4 H32 C36 N8 O8"
_cell_length_a       8.85114
_cell_length_b       9.79708
_cell_length_c       10.7577
_cell_angle_alpha    90.0001
_cell_angle_beta     99.6211
_cell_angle_gamma    90

_space_group_name_H-M_alt    "P 1"
_space_group_IT_number       1

loop_
  _space_group_symop_operation_xyz
  'x, y, z'

loop_
  _atom_site_type_symbol
  _atom_site_label
  _atom_site_symmetry_multiplicity
  _atom_site_fract_x
  _atom_site_fract_y
  _atom_site_fract_z
  _atom_site_occupancy
  Zn  Zn1       1.0  0.34600  0.77376  0.64837  1.0000
  Zn  Zn2       1.0  0.15400  0.27376  0.35163  1.0000
  Zn  Zn3       1.0  0.65400  0.22624  0.35163  1.0000
  Zn  Zn4       1.0  0.84600  0.72624  0.64837  1.0000
  H   H1        1.0  0.52143  0.83717  0.40879  1.0000
  H   H2        1.0  0.97857  0.33717  0.59121  1.0000
  H   H3        1.0  0.47858  0.16283  0.59121  1.0000
  H   H4        1.0  0.02143  0.66283  0.40879  1.0000
  H   H5        1.0  0.58592  0.80444  0.19403  1.0000
  H   H6        1.0  0.91408  0.30444  0.80597  1.0000
  H   H7        1.0  0.41408  0.19556  0.80597  1.0000
  H   H8        1.0  0.08592  0.69556  0.19403  1.0000
  H   H9        1.0  0.48825  0.60533  0.06335  1.0000
  H   H10       1.0  0.01175  0.10533  0.93665  1.0000
  H   H11       1.0  0.51175  0.39467  0.93665  1.0000
  H   H12       1.0  0.98825  0.89466  0.06335  1.0000
  H   H13       1.0  0.32897  0.42759  0.14521  1.0000
  H   H14       1.0  0.17103  0.92759  0.85479  1.0000
  H   H15       1.0  0.67103  0.57241  0.85479  1.0000
  H   H16       1.0  0.82897  0.07241  0.14521  1.0000
  H   H17       1.0  0.20788  0.47957  0.58276  1.0000
  H   H18       1.0  0.29213  0.97957  0.41724  1.0000
  H   H19       1.0  0.79213  0.52043  0.41724  1.0000
  H   H20       1.0  0.70788  0.02043  0.58276  1.0000
  H   H21       1.0  0.53443  0.99323  0.87396  1.0000
  H   H22       1.0  0.96557  0.49323  0.12604  1.0000
  H   H23       1.0  0.46557  0.00677  0.12604  1.0000
  H   H24       1.0  0.03443  0.50677  0.87396  1.0000
  H   H25       1.0  0.68326  0.91554  0.98552  1.0000
  H   H26       1.0  0.81674  0.41554  0.01448  1.0000
  H   H27       1.0  0.31674  0.08446  0.01448  1.0000
  H   H28       1.0  0.18326  0.58446  0.98552  1.0000
  H   H29       1.0  0.50724  0.82680  0.92981  1.0000
  H   H30       1.0  0.99276  0.32680  0.07019  1.0000
  H   H31       1.0  0.49276  0.17320  0.07019  1.0000
  H   H32       1.0  0.00724  0.67320  0.92981  1.0000
  C   C1        1.0  0.38900  0.64927  0.39752  1.0000
  C   C2        1.0  0.11100  0.14926  0.60248  1.0000
  C   C3        1.0  0.61100  0.35074  0.60248  1.0000
  C   C4        1.0  0.88900  0.85073  0.39752  1.0000
  C   C5        1.0  0.47794  0.74941  0.35161  1.0000
  C   C6        1.0  0.02206  0.24941  0.64839  1.0000
  C   C7        1.0  0.52206  0.25060  0.64839  1.0000
  C   C8        1.0  0.97794  0.75059  0.35161  1.0000
  C   C9        1.0  0.51308  0.73043  0.23124  1.0000
  C   C10       1.0  0.98692  0.23043  0.76876  1.0000
  C   C11       1.0  0.48691  0.26957  0.76875  1.0000
  C   C12       1.0  0.01308  0.76957  0.23125  1.0000
  C   C13       1.0  0.45943  0.61593  0.15751  1.0000
  C   C14       1.0  0.04057  0.11594  0.84249  1.0000
  C   C15       1.0  0.54057  0.38407  0.84249  1.0000
  C   C16       1.0  0.95943  0.88406  0.15751  1.0000
  C   C17       1.0  0.37028  0.51601  0.20233  1.0000
  C   C18       1.0  0.12972  0.01601  0.79767  1.0000
  C   C19       1.0  0.62972  0.48399  0.79767  1.0000
  C   C20       1.0  0.87028  0.98399  0.20233  1.0000
  C   C21       1.0  0.33621  0.53309  0.32376  1.0000
  C   C22       1.0  0.16378  0.03309  0.67624  1.0000
  C   C23       1.0  0.66378  0.46691  0.67623  1.0000
  C   C24       1.0  0.83622  0.96691  0.32377  1.0000
  C   C25       1.0  0.26051  0.51837  0.50565  1.0000
  C   C26       1.0  0.23949  0.01837  0.49435  1.0000
  C   C27       1.0  0.73949  0.48163  0.49435  1.0000
  C   C28       1.0  0.76051  0.98163  0.50565  1.0000
  C   C29       1.0  0.59366  0.89735  0.90420  1.0000
  C   C30       1.0  0.90634  0.39735  0.09580  1.0000
  C   C31       1.0  0.40634  0.10265  0.09580  1.0000
  C   C32       1.0  0.09366  0.60265  0.90420  1.0000
  C   C33       1.0  0.65889  0.83823  0.79580  1.0000
  C   C34       1.0  0.84111  0.33823  0.20420  1.0000
  C   C35       1.0  0.34111  0.16177  0.20420  1.0000
  C   C36       1.0  0.15889  0.66177  0.79580  1.0000
  N   N1        1.0  0.33820  0.63699  0.51241  1.0000
  N   N2        1.0  0.16179  0.13699  0.48759  1.0000
  N   N3        1.0  0.66179  0.36301  0.48759  1.0000
  N   N4        1.0  0.83820  0.86301  0.51241  1.0000
  N   N5        1.0  0.25445  0.45201  0.39528  1.0000
  N   N6        1.0  0.24555  0.95201  0.60472  1.0000
  N   N7        1.0  0.74555  0.54799  0.60472  1.0000
  N   N8        1.0  0.75445  0.04799  0.39528  1.0000
  O   O1        1.0  0.80202  0.81048  0.81015  1.0000
  O   O2        1.0  0.69798  0.31049  0.18986  1.0000
  O   O3        1.0  0.19798  0.18952  0.18986  1.0000
  O   O4        1.0  0.30202  0.68952  0.81014  1.0000
  O   O5        1.0  0.57253  0.81589  0.69025  1.0000
  O   O6        1.0  0.92747  0.31589  0.30975  1.0000
  O   O7        1.0  0.42747  0.18411  0.30975  1.0000
  O   O8        1.0  0.07253  0.68411  0.69025  1.0000
