data_image0
_chemical_formula_structural       Cd2H48C52S4N4Cl4O16
_chemical_formula_sum              "Cd2 H48 C52 S4 N4 Cl4 O16"
_cell_length_a       11.3827
_cell_length_b       11.3838
_cell_length_c       14.2104
_cell_angle_alpha    102.228
_cell_angle_beta     102.232
_cell_angle_gamma    118.105

_space_group_name_H-M_alt    "P 1"
_space_group_IT_number       1

loop_
  _space_group_symop_operation_xyz
  'x, y, z'

loop_
  _atom_site_type_symbol
  _atom_site_label
  _atom_site_symmetry_multiplicity
  _atom_site_fract_x
  _atom_site_fract_y
  _atom_site_fract_z
  _atom_site_occupancy
  Cd  Cd1       1.0  0.97925  0.97926  0.99999  1.0000
  Cd  Cd2       1.0  0.72919  0.22922  0.50001  1.0000
  H   H1        1.0  0.05729  0.17483  0.56584  1.0000
  H   H2        1.0  0.60904  0.49153  0.43429  1.0000
  H   H3        1.0  0.24132  0.85886  0.93406  1.0000
  H   H4        1.0  0.92489  0.30743  0.06584  1.0000
  H   H5        1.0  0.08395  0.35478  0.71342  1.0000
  H   H6        1.0  0.64135  0.37054  0.28670  1.0000
  H   H7        1.0  0.12047  0.89140  0.78654  1.0000
  H   H8        1.0  0.10486  0.33409  0.21342  1.0000
  H   H9        1.0  0.50621  0.65983  0.72613  1.0000
  H   H10       1.0  0.93350  0.77994  0.27376  1.0000
  H   H11       1.0  0.53005  0.18371  0.77387  1.0000
  H   H12       1.0  0.40987  0.75638  0.22625  1.0000
  H   H13       1.0  0.47338  0.47854  0.57159  1.0000
  H   H14       1.0  0.90683  0.90175  0.42833  1.0000
  H   H15       1.0  0.65172  0.15685  0.92839  1.0000
  H   H16       1.0  0.22859  0.72353  0.07161  1.0000
  H   H17       1.0  0.01895  0.14366  0.37663  1.0000
  H   H18       1.0  0.76706  0.64229  0.62337  1.0000
  H   H19       1.0  0.39208  0.01673  0.12332  1.0000
  H   H20       1.0  0.89347  0.26876  0.87668  1.0000
  H   H21       1.0  0.15795  0.28834  0.35704  1.0000
  H   H22       1.0  0.93132  0.80085  0.64286  1.0000
  H   H23       1.0  0.55065  0.18100  0.14286  1.0000
  H   H24       1.0  0.03821  0.40777  0.85713  1.0000
  H   H25       1.0  0.76975  0.64463  0.87050  1.0000
  H   H26       1.0  0.77407  0.89920  0.12923  1.0000
  H   H27       1.0  0.64925  0.02416  0.62952  1.0000
  H   H28       1.0  0.39474  0.01974  0.37070  1.0000
  H   H29       1.0  0.55542  0.42657  0.86368  1.0000
  H   H30       1.0  0.56292  0.69180  0.13620  1.0000
  H   H31       1.0  0.44188  0.81293  0.63643  1.0000
  H   H32       1.0  0.17670  0.80533  0.36377  1.0000
  H   H33       1.0  0.49778  0.46181  0.16491  1.0000
  H   H34       1.0  0.29683  0.33289  0.83516  1.0000
  H   H35       1.0  0.08295  0.54674  0.33513  1.0000
  H   H36       1.0  0.21157  0.74763  0.66484  1.0000
  H   H37       1.0  0.28193  0.24428  0.15741  1.0000
  H   H38       1.0  0.08683  0.12455  0.84271  1.0000
  H   H39       1.0  0.87445  0.33672  0.34259  1.0000
  H   H40       1.0  0.99394  0.53178  0.65727  1.0000
  H   H41       1.0  0.77241  0.04941  0.97447  1.0000
  H   H42       1.0  0.07483  0.79787  0.02547  1.0000
  H   H43       1.0  0.54813  0.32520  0.52555  1.0000
  H   H44       1.0  0.79954  0.02258  0.47453  1.0000
  H   H45       1.0  0.77530  0.97651  0.86401  1.0000
  H   H46       1.0  0.11253  0.91127  0.13597  1.0000
  H   H47       1.0  0.66143  0.36268  0.63601  1.0000
  H   H48       1.0  0.72667  0.02540  0.36401  1.0000
  C   C1        1.0  0.26450  0.31734  0.55984  1.0000
  C   C2        1.0  0.75747  0.70468  0.44018  1.0000
  C   C3        1.0  0.45456  0.00735  0.94008  1.0000
  C   C4        1.0  0.06738  0.51463  0.05986  1.0000
  C   C5        1.0  0.15531  0.28072  0.59977  1.0000
  C   C6        1.0  0.68099  0.55559  0.40033  1.0000
  C   C7        1.0  0.30544  0.93084  0.90014  1.0000
  C   C8        1.0  0.03079  0.40546  0.09979  1.0000
  C   C9        1.0  0.17143  0.38167  0.68485  1.0000
  C   C10       1.0  0.69683  0.48659  0.31525  1.0000
  C   C11       1.0  0.23651  0.94680  0.81509  1.0000
  C   C12       1.0  0.13173  0.42158  0.18487  1.0000
  C   C13       1.0  0.29834  0.51647  0.73005  1.0000
  C   C14       1.0  0.78633  0.56823  0.26998  1.0000
  C   C15       1.0  0.31824  0.03643  0.76992  1.0000
  C   C16       1.0  0.26651  0.54851  0.23010  1.0000
  C   C17       1.0  0.40781  0.55409  0.69054  1.0000
  C   C18       1.0  0.86340  0.71720  0.30940  1.0000
  C   C19       1.0  0.46722  0.11351  0.80943  1.0000
  C   C20       1.0  0.30411  0.65801  0.19062  1.0000
  C   C21       1.0  0.38971  0.45279  0.60409  1.0000
  C   C22       1.0  0.84860  0.78560  0.39587  1.0000
  C   C23       1.0  0.53556  0.09859  0.89586  1.0000
  C   C24       1.0  0.20282  0.63988  0.10412  1.0000
  C   C25       1.0  0.11512  0.17890  0.35587  1.0000
  C   C26       1.0  0.82307  0.75920  0.64412  1.0000
  C   C27       1.0  0.50903  0.07275  0.14406  1.0000
  C   C28       1.0  0.92874  0.36492  0.85591  1.0000
  C   C29       1.0  0.08037  0.07547  0.25064  1.0000
  C   C30       1.0  0.82500  0.82978  0.74938  1.0000
  C   C31       1.0  0.57966  0.07464  0.24929  1.0000
  C   C32       1.0  0.82538  0.33027  0.75065  1.0000
  C   C33       1.0  0.71889  0.65027  0.92677  1.0000
  C   C34       1.0  0.72342  0.79207  0.07300  1.0000
  C   C35       1.0  0.54211  0.97346  0.57326  1.0000
  C   C36       1.0  0.40036  0.96888  0.42696  1.0000
  C   C37       1.0  0.59953  0.52929  0.92359  1.0000
  C   C38       1.0  0.60568  0.67592  0.07627  1.0000
  C   C39       1.0  0.42597  0.85565  0.57647  1.0000
  C   C40       1.0  0.27939  0.84945  0.42372  1.0000
  C   C41       1.0  0.54118  0.54117  0.99996  1.0000
  C   C42       1.0  0.29121  0.79104  0.50007  1.0000
  C   C43       1.0  0.41538  0.41539  0.00002  1.0000
  C   C44       1.0  0.16535  0.66519  0.50000  1.0000
  C   C45       1.0  0.40937  0.38980  0.09162  1.0000
  C   C46       1.0  0.29813  0.31777  0.90845  1.0000
  C   C47       1.0  0.06777  0.54798  0.40840  1.0000
  C   C48       1.0  0.13960  0.65919  0.59156  1.0000
  C   C49       1.0  0.28963  0.26891  0.08803  1.0000
  C   C50       1.0  0.18083  0.20166  0.91208  1.0000
  C   C51       1.0  0.95157  0.43071  0.41198  1.0000
  C   C52       1.0  0.01863  0.53949  0.58791  1.0000
  S   S1        1.0  0.24853  0.18337  0.45534  1.0000
  S   S2        1.0  0.72800  0.79316  0.54472  1.0000
  S   S3        1.0  0.54297  0.97778  0.04459  1.0000
  S   S4        1.0  0.93319  0.49836  0.95533  1.0000
  N   N1        1.0  0.77950  0.77950  0.99986  1.0000
  N   N2        1.0  0.52958  0.02955  0.50012  1.0000
  N   N3        1.0  0.17687  0.17690  0.00007  1.0000
  N   N4        1.0  0.92670  0.42673  0.49992  1.0000
  Cl  Cl1       1.0  0.31994  0.63935  0.83884  1.0000
  Cl  Cl2       1.0  0.80032  0.48097  0.16117  1.0000
  Cl  Cl3       1.0  0.23107  0.05054  0.66113  1.0000
  Cl  Cl4       1.0  0.38935  0.57011  0.33892  1.0000
  O   O1        1.0  0.38519  0.25427  0.43366  1.0000
  O   O2        1.0  0.82057  0.95149  0.56645  1.0000
  O   O3        1.0  0.70133  0.07033  0.06634  1.0000
  O   O4        1.0  0.00384  0.63489  0.93348  1.0000
  O   O5        1.0  0.09717  0.97278  0.24810  1.0000
  O   O6        1.0  0.72467  0.84883  0.75195  1.0000
  O   O7        1.0  0.59911  0.97456  0.25184  1.0000
  O   O8        1.0  0.72257  0.34689  0.74808  1.0000
  O   O9        1.0  0.03600  0.10448  0.17416  1.0000
  O   O10       1.0  0.93072  0.86229  0.82582  1.0000
  O   O11       1.0  0.61178  0.18012  0.32576  1.0000
  O   O12       1.0  0.85461  0.28624  0.67422  1.0000
  O   O13       1.0  0.83313  0.05949  0.93174  1.0000
  O   O14       1.0  0.12770  0.90132  0.06821  1.0000
  O   O15       1.0  0.65158  0.37794  0.56828  1.0000
  O   O16       1.0  0.80960  0.08328  0.43179  1.0000
