data_image0
_chemical_formula_structural       Zn6H20C24N8O24
_chemical_formula_sum              "Zn6 H20 C24 N8 O24"
_cell_length_a       5.16136
_cell_length_b       9.96724
_cell_length_c       17.5186
_cell_angle_alpha    89.9997
_cell_angle_beta     90
_cell_angle_gamma    95.1602

_space_group_name_H-M_alt    "P 1"
_space_group_IT_number       1

loop_
  _space_group_symop_operation_xyz
  'x, y, z'

loop_
  _atom_site_type_symbol
  _atom_site_label
  _atom_site_symmetry_multiplicity
  _atom_site_fract_x
  _atom_site_fract_y
  _atom_site_fract_z
  _atom_site_occupancy
  Zn  Zn1       1.0  0.76039  0.59453  0.76863  1.0000
  Zn  Zn2       1.0  0.73962  0.90548  0.26863  1.0000
  Zn  Zn3       1.0  0.23962  0.40548  0.23137  1.0000
  Zn  Zn4       1.0  0.26038  0.09452  0.73137  1.0000
  Zn  Zn5       1.0  0.00000  1.00000  0.00000  1.0000
  Zn  Zn6       1.0  0.50000  0.50000  0.50000  1.0000
  H   H1        1.0  0.28495  0.62813  0.83973  1.0000
  H   H2        1.0  0.21506  0.87187  0.33973  1.0000
  H   H3        1.0  0.71505  0.37187  0.16027  1.0000
  H   H4        1.0  0.78494  0.12813  0.66027  1.0000
  H   H5        1.0  0.44127  0.51943  0.88471  1.0000
  H   H6        1.0  0.05874  0.98058  0.38472  1.0000
  H   H7        1.0  0.55874  0.48057  0.11529  1.0000
  H   H8        1.0  0.94127  0.01943  0.61529  1.0000
  H   H9        1.0  0.12611  0.20236  0.89007  1.0000
  H   H10       1.0  0.37388  0.29765  0.39006  1.0000
  H   H11       1.0  0.87389  0.79765  0.10994  1.0000
  H   H12       1.0  0.62611  0.70235  0.60993  1.0000
  H   H13       1.0  0.58680  0.20553  0.98030  1.0000
  H   H14       1.0  0.91320  0.29447  0.48030  1.0000
  H   H15       1.0  0.41320  0.79447  0.01970  1.0000
  H   H16       1.0  0.08680  0.70553  0.51970  1.0000
  H   H17       1.0  0.54490  0.28249  0.88968  1.0000
  H   H18       1.0  0.95510  0.21751  0.38968  1.0000
  H   H19       1.0  0.45510  0.71750  0.11032  1.0000
  H   H20       1.0  0.04491  0.78250  0.61032  1.0000
  C   C1        1.0  0.59410  0.91289  0.80035  1.0000
  C   C2        1.0  0.90589  0.58711  0.30035  1.0000
  C   C3        1.0  0.40590  0.08711  0.19965  1.0000
  C   C4        1.0  0.09410  0.41289  0.69965  1.0000
  C   C5        1.0  0.51284  0.84802  0.72691  1.0000
  C   C6        1.0  0.98716  0.65198  0.22691  1.0000
  C   C7        1.0  0.48716  0.15198  0.27309  1.0000
  C   C8        1.0  0.01284  0.34802  0.77309  1.0000
  C   C9        1.0  0.77216  0.89390  0.85931  1.0000
  C   C10       1.0  0.72785  0.60611  0.35930  1.0000
  C   C11       1.0  0.22785  0.10611  0.14070  1.0000
  C   C12       1.0  0.27215  0.39389  0.64069  1.0000
  C   C13       1.0  0.98829  0.80891  0.87389  1.0000
  C   C14       1.0  0.51170  0.69108  0.37390  1.0000
  C   C15       1.0  0.01170  0.19109  0.12611  1.0000
  C   C16       1.0  0.48830  0.30891  0.62610  1.0000
  C   C17       1.0  0.56652  0.07136  0.88583  1.0000
  C   C18       1.0  0.93347  0.42864  0.38582  1.0000
  C   C19       1.0  0.43348  0.92863  0.11417  1.0000
  C   C20       1.0  0.06652  0.57136  0.61417  1.0000
  C   C21       1.0  0.48628  0.19376  0.92532  1.0000
  C   C22       1.0  0.01372  0.30624  0.42532  1.0000
  C   C23       1.0  0.51372  0.80624  0.07468  1.0000
  C   C24       1.0  0.98628  0.69376  0.57468  1.0000
  N   N1        1.0  0.74629  0.99394  0.91242  1.0000
  N   N2        1.0  0.75371  0.50607  0.41242  1.0000
  N   N3        1.0  0.25371  0.00606  0.08758  1.0000
  N   N4        1.0  0.24628  0.49393  0.58758  1.0000
  N   N5        1.0  0.47104  0.02542  0.81822  1.0000
  N   N6        1.0  0.02895  0.47458  0.31822  1.0000
  N   N7        1.0  0.52896  0.97458  0.18178  1.0000
  N   N8        1.0  0.97105  0.52542  0.68178  1.0000
  O   O1        1.0  0.13842  0.84136  0.92894  1.0000
  O   O2        1.0  0.36158  0.65865  0.42894  1.0000
  O   O3        1.0  0.86158  0.15864  0.07106  1.0000
  O   O4        1.0  0.63841  0.34135  0.57106  1.0000
  O   O5        1.0  0.59302  0.73514  0.70634  1.0000
  O   O6        1.0  0.90699  0.76487  0.20634  1.0000
  O   O7        1.0  0.40698  0.26486  0.29366  1.0000
  O   O8        1.0  0.09302  0.23513  0.79365  1.0000
  O   O9        1.0  0.36014  0.90900  0.68513  1.0000
  O   O10       1.0  0.13984  0.59100  0.18512  1.0000
  O   O11       1.0  0.63984  0.09100  0.31487  1.0000
  O   O12       1.0  0.86016  0.40900  0.81488  1.0000
  O   O13       1.0  0.02591  0.70808  0.82996  1.0000
  O   O14       1.0  0.47408  0.79193  0.32996  1.0000
  O   O15       1.0  0.97408  0.29192  0.17004  1.0000
  O   O16       1.0  0.52591  0.20807  0.67004  1.0000
  O   O17       1.0  0.43391  0.56858  0.83711  1.0000
  O   O18       1.0  0.06610  0.93142  0.33712  1.0000
  O   O19       1.0  0.56610  0.43142  0.16289  1.0000
  O   O20       1.0  0.93390  0.06858  0.66289  1.0000
  O   O21       1.0  0.21066  0.18503  0.93982  1.0000
  O   O22       1.0  0.28934  0.31497  0.43982  1.0000
  O   O23       1.0  0.78934  0.81497  0.06018  1.0000
  O   O24       1.0  0.71066  0.68503  0.56018  1.0000
