data_image0
_chemical_formula_structural       Zn6H20C24N8O24
_chemical_formula_sum              "Zn6 H20 C24 N8 O24"
_cell_length_a       5.16296
_cell_length_b       9.98401
_cell_length_c       17.5686
_cell_angle_alpha    90
_cell_angle_beta     89.9998
_cell_angle_gamma    95.0562

_space_group_name_H-M_alt    "P 1"
_space_group_IT_number       1

loop_
  _space_group_symop_operation_xyz
  'x, y, z'

loop_
  _atom_site_type_symbol
  _atom_site_label
  _atom_site_symmetry_multiplicity
  _atom_site_fract_x
  _atom_site_fract_y
  _atom_site_fract_z
  _atom_site_occupancy
  Zn  Zn1       1.0  0.76960  0.10714  0.26675  1.0000
  Zn  Zn2       1.0  0.73039  0.39285  0.76675  1.0000
  Zn  Zn3       1.0  0.23040  0.89285  0.73325  1.0000
  Zn  Zn4       1.0  0.26962  0.60715  0.23325  1.0000
  Zn  Zn5       1.0  0.00000  0.50000  0.50000  1.0000
  Zn  Zn6       1.0  0.49999  1.00000  1.00000  1.0000
  H   H1        1.0  0.13103  0.71035  0.39340  1.0000
  H   H2        1.0  0.36898  0.78966  0.89340  1.0000
  H   H3        1.0  0.86898  0.28965  0.60660  1.0000
  H   H4        1.0  0.63102  0.21035  0.10660  1.0000
  H   H5        1.0  0.30094  0.14407  0.33713  1.0000
  H   H6        1.0  0.19905  0.35593  0.83714  1.0000
  H   H7        1.0  0.69906  0.85593  0.66286  1.0000
  H   H8        1.0  0.80095  0.64407  0.16286  1.0000
  H   H9        1.0  0.48493  0.06158  0.39016  1.0000
  H   H10       1.0  0.01506  0.43843  0.89016  1.0000
  H   H11       1.0  0.51508  0.93842  0.60984  1.0000
  H   H12       1.0  0.98493  0.56156  0.10985  1.0000
  H   H13       1.0  0.59138  0.70702  0.48235  1.0000
  H   H14       1.0  0.90863  0.79299  0.98235  1.0000
  H   H15       1.0  0.40863  0.29299  0.51765  1.0000
  H   H16       1.0  0.09138  0.20701  0.01765  1.0000
  H   H17       1.0  0.54663  0.78863  0.39339  1.0000
  H   H18       1.0  0.95338  0.71137  0.89338  1.0000
  H   H19       1.0  0.45338  0.21137  0.60661  1.0000
  H   H20       1.0  0.04662  0.28863  0.10662  1.0000
  C   C1        1.0  0.99882  0.31858  0.37107  1.0000
  C   C2        1.0  0.50117  0.18142  0.87107  1.0000
  C   C3        1.0  0.00118  0.68142  0.62893  1.0000
  C   C4        1.0  0.49883  0.81858  0.12892  1.0000
  C   C5        1.0  0.78128  0.40284  0.35752  1.0000
  C   C6        1.0  0.71871  0.09716  0.85752  1.0000
  C   C7        1.0  0.21871  0.59716  0.64248  1.0000
  C   C8        1.0  0.28129  0.90284  0.14248  1.0000
  C   C9        1.0  0.60424  0.42361  0.29874  1.0000
  C   C10       1.0  0.89576  0.07639  0.79874  1.0000
  C   C11       1.0  0.39576  0.57639  0.70126  1.0000
  C   C12       1.0  0.10424  0.92361  0.20125  1.0000
  C   C13       1.0  0.52428  0.36090  0.22463  1.0000
  C   C14       1.0  0.97572  0.13910  0.72462  1.0000
  C   C15       1.0  0.47573  0.63910  0.77538  1.0000
  C   C16       1.0  0.02427  0.86090  0.27537  1.0000
  C   C17       1.0  0.57183  0.57775  0.38635  1.0000
  C   C18       1.0  0.92818  0.92225  0.88635  1.0000
  C   C19       1.0  0.42816  0.42225  0.61365  1.0000
  C   C20       1.0  0.07182  0.07775  0.11365  1.0000
  C   C21       1.0  0.49021  0.69806  0.42751  1.0000
  C   C22       1.0  0.00979  0.80194  0.92751  1.0000
  C   C23       1.0  0.50979  0.30194  0.57249  1.0000
  C   C24       1.0  0.99021  0.19806  0.07249  1.0000
  N   N1        1.0  0.75206  0.49983  0.41195  1.0000
  N   N2        1.0  0.74795  0.00017  0.91194  1.0000
  N   N3        1.0  0.24794  0.50017  0.58806  1.0000
  N   N4        1.0  0.25205  0.99983  0.08806  1.0000
  N   N5        1.0  0.47865  0.53445  0.31816  1.0000
  N   N6        1.0  0.02134  0.96555  0.81816  1.0000
  N   N7        1.0  0.52135  0.46555  0.68184  1.0000
  N   N8        1.0  0.97865  0.03445  0.18184  1.0000
  O   O1        1.0  0.04156  0.22180  0.32510  1.0000
  O   O2        1.0  0.45842  0.27820  0.82510  1.0000
  O   O3        1.0  0.95843  0.77821  0.67490  1.0000
  O   O4        1.0  0.54158  0.72180  0.17490  1.0000
  O   O5        1.0  0.14508  0.34746  0.42731  1.0000
  O   O6        1.0  0.35493  0.15253  0.92732  1.0000
  O   O7        1.0  0.85492  0.65253  0.57269  1.0000
  O   O8        1.0  0.64507  0.84747  0.07268  1.0000
  O   O9        1.0  0.60302  0.24785  0.20389  1.0000
  O   O10       1.0  0.89698  0.25216  0.70389  1.0000
  O   O11       1.0  0.39698  0.75215  0.79611  1.0000
  O   O12       1.0  0.10301  0.74784  0.29611  1.0000
  O   O13       1.0  0.37343  0.42345  0.18335  1.0000
  O   O14       1.0  0.12657  0.07656  0.68334  1.0000
  O   O15       1.0  0.62657  0.57656  0.81665  1.0000
  O   O16       1.0  0.87342  0.92344  0.31665  1.0000
  O   O17       1.0  0.21503  0.68826  0.44228  1.0000
  O   O18       1.0  0.28497  0.81175  0.94228  1.0000
  O   O19       1.0  0.78498  0.31174  0.55772  1.0000
  O   O20       1.0  0.71502  0.18826  0.05772  1.0000
  O   O21       1.0  0.45058  0.08455  0.33767  1.0000
  O   O22       1.0  0.04943  0.41546  0.83768  1.0000
  O   O23       1.0  0.54942  0.91545  0.66233  1.0000
  O   O24       1.0  0.95057  0.58454  0.16232  1.0000
