data_image0
_chemical_formula_structural       Zn4H32C48N24
_chemical_formula_sum              "Zn4 H32 C48 N24"
_cell_length_a       9.56285
_cell_length_b       10.1736
_cell_length_c       12.4313
_cell_angle_alpha    90
_cell_angle_beta     90
_cell_angle_gamma    90

_space_group_name_H-M_alt    "P 1"
_space_group_IT_number       1

loop_
  _space_group_symop_operation_xyz
  'x, y, z'

loop_
  _atom_site_type_symbol
  _atom_site_label
  _atom_site_symmetry_multiplicity
  _atom_site_fract_x
  _atom_site_fract_y
  _atom_site_fract_z
  _atom_site_occupancy
  Zn  Zn1       1.0  0.44801  0.17303  0.36790  1.0000
  Zn  Zn2       1.0  0.05199  0.82697  0.86790  1.0000
  Zn  Zn3       1.0  0.55199  0.67303  0.13210  1.0000
  Zn  Zn4       1.0  0.94801  0.32697  0.63210  1.0000
  H   H1        1.0  0.24520  0.20131  0.56862  1.0000
  H   H2        1.0  0.25480  0.79869  0.06862  1.0000
  H   H3        1.0  0.75480  0.70131  0.93138  1.0000
  H   H4        1.0  0.74520  0.29869  0.43138  1.0000
  H   H5        1.0  0.86025  0.52206  0.23257  1.0000
  H   H6        1.0  0.63975  0.47794  0.73257  1.0000
  H   H7        1.0  0.13975  0.02206  0.26743  1.0000
  H   H8        1.0  0.36025  0.97794  0.76743  1.0000
  H   H9        1.0  0.05310  0.46212  0.10812  1.0000
  H   H10       1.0  0.44690  0.53788  0.60812  1.0000
  H   H11       1.0  0.94690  0.96212  0.39188  1.0000
  H   H12       1.0  0.55310  0.03788  0.89188  1.0000
  H   H13       1.0  0.25310  0.32484  0.17336  1.0000
  H   H14       1.0  0.24690  0.67516  0.67336  1.0000
  H   H15       1.0  0.74690  0.82484  0.32664  1.0000
  H   H16       1.0  0.75311  0.17516  0.82664  1.0000
  H   H17       1.0  0.56873  0.97119  0.19752  1.0000
  H   H18       1.0  0.93128  0.02881  0.69752  1.0000
  H   H19       1.0  0.43128  0.47119  0.30248  1.0000
  H   H20       1.0  0.06873  0.52881  0.80248  1.0000
  H   H21       1.0  0.23206  0.98131  0.51050  1.0000
  H   H22       1.0  0.26794  0.01869  0.01050  1.0000
  H   H23       1.0  0.76794  0.48132  0.98950  1.0000
  H   H24       1.0  0.73206  0.51868  0.48950  1.0000
  H   H25       1.0  0.10595  0.76999  0.55194  1.0000
  H   H26       1.0  0.39405  0.23001  0.05194  1.0000
  H   H27       1.0  0.89405  0.26999  0.94806  1.0000
  H   H28       1.0  0.60595  0.73001  0.44806  1.0000
  H   H29       1.0  0.16543  0.56672  0.45248  1.0000
  H   H30       1.0  0.33457  0.43328  0.95248  1.0000
  H   H31       1.0  0.83457  0.06672  0.04752  1.0000
  H   H32       1.0  0.66543  0.93328  0.54752  1.0000
  C   C1        1.0  0.19636  0.24729  0.49894  1.0000
  C   C2        1.0  0.30364  0.75271  0.99894  1.0000
  C   C3        1.0  0.80364  0.74729  0.00106  1.0000
  C   C4        1.0  0.69636  0.25271  0.50106  1.0000
  C   C5        1.0  0.04901  0.35347  0.39892  1.0000
  C   C6        1.0  0.45099  0.64653  0.89892  1.0000
  C   C7        1.0  0.95099  0.85347  0.10108  1.0000
  C   C8        1.0  0.54901  0.14653  0.60108  1.0000
  C   C9        1.0  0.94688  0.46200  0.26165  1.0000
  C   C10       1.0  0.55312  0.53800  0.76165  1.0000
  C   C11       1.0  0.05312  0.96200  0.23835  1.0000
  C   C12       1.0  0.44688  0.03800  0.73835  1.0000
  C   C13       1.0  0.05673  0.42870  0.19136  1.0000
  C   C14       1.0  0.44327  0.57130  0.69136  1.0000
  C   C15       1.0  0.94327  0.92870  0.30864  1.0000
  C   C16       1.0  0.55673  0.07130  0.80864  1.0000
  C   C17       1.0  0.16874  0.35303  0.22722  1.0000
  C   C18       1.0  0.33126  0.64696  0.72722  1.0000
  C   C19       1.0  0.83126  0.85303  0.27278  1.0000
  C   C20       1.0  0.66874  0.14696  0.77278  1.0000
  C   C21       1.0  0.16599  0.31635  0.33532  1.0000
  C   C22       1.0  0.33401  0.68365  0.83532  1.0000
  C   C23       1.0  0.83401  0.81635  0.16468  1.0000
  C   C24       1.0  0.66599  0.18365  0.66468  1.0000
  C   C25       1.0  0.49538  0.91992  0.25023  1.0000
  C   C26       1.0  0.00462  0.08008  0.75023  1.0000
  C   C27       1.0  0.50462  0.41992  0.24977  1.0000
  C   C28       1.0  0.99538  0.58008  0.74977  1.0000
  C   C29       1.0  0.34662  0.88831  0.37978  1.0000
  C   C30       1.0  0.15338  0.11169  0.87978  1.0000
  C   C31       1.0  0.65338  0.38831  0.12022  1.0000
  C   C32       1.0  0.84662  0.61169  0.62022  1.0000
  C   C33       1.0  0.25191  0.89194  0.46502  1.0000
  C   C34       1.0  0.24809  0.10806  0.96502  1.0000
  C   C35       1.0  0.74809  0.39194  0.03498  1.0000
  C   C36       1.0  0.75191  0.60806  0.53498  1.0000
  C   C37       1.0  0.18508  0.77384  0.48889  1.0000
  C   C38       1.0  0.31492  0.22616  0.98889  1.0000
  C   C39       1.0  0.81492  0.27384  0.01111  1.0000
  C   C40       1.0  0.68508  0.72616  0.51111  1.0000
  C   C41       1.0  0.21765  0.65857  0.43160  1.0000
  C   C42       1.0  0.28235  0.34143  0.93160  1.0000
  C   C43       1.0  0.78235  0.15857  0.06840  1.0000
  C   C44       1.0  0.71765  0.84143  0.56840  1.0000
  C   C45       1.0  0.37081  0.76710  0.32591  1.0000
  C   C46       1.0  0.12919  0.23290  0.82591  1.0000
  C   C47       1.0  0.62919  0.26710  0.17409  1.0000
  C   C48       1.0  0.87081  0.73290  0.67409  1.0000
  N   N1        1.0  0.07076  0.30727  0.50231  1.0000
  N   N2        1.0  0.42924  0.69273  0.00231  1.0000
  N   N3        1.0  0.92924  0.80726  0.99769  1.0000
  N   N4        1.0  0.57076  0.19273  0.49769  1.0000
  N   N5        1.0  0.25832  0.24875  0.40129  1.0000
  N   N6        1.0  0.24168  0.75125  0.90129  1.0000
  N   N7        1.0  0.74168  0.74875  0.09871  1.0000
  N   N8        1.0  0.75832  0.25125  0.59871  1.0000
  N   N9        1.0  0.42745  0.98357  0.32968  1.0000
  N   N10       1.0  0.07255  0.01643  0.82968  1.0000
  N   N11       1.0  0.57255  0.48357  0.17032  1.0000
  N   N12       1.0  0.92745  0.51643  0.67032  1.0000
  N   N13       1.0  0.46691  0.78994  0.24440  1.0000
  N   N14       1.0  0.03309  0.21006  0.74440  1.0000
  N   N15       1.0  0.53309  0.28994  0.25560  1.0000
  N   N16       1.0  0.96691  0.71006  0.75560  1.0000
  N   N17       1.0  0.93941  0.42379  0.36483  1.0000
  N   N18       1.0  0.56059  0.57621  0.86483  1.0000
  N   N19       1.0  0.06059  0.92379  0.13517  1.0000
  N   N20       1.0  0.43941  0.07621  0.63517  1.0000
  N   N21       1.0  0.31073  0.65231  0.35084  1.0000
  N   N22       1.0  0.18927  0.34769  0.85084  1.0000
  N   N23       1.0  0.68927  0.15232  0.14916  1.0000
  N   N24       1.0  0.81073  0.84769  0.64916  1.0000
