data_image0
_chemical_formula_structural       Zn4H36C44N20Cl8
_chemical_formula_sum              "Zn4 H36 C44 N20 Cl8"
_cell_length_a       9.05676
_cell_length_b       9.94096
_cell_length_c       15.1829
_cell_angle_alpha    89.9999
_cell_angle_beta     99.1767
_cell_angle_gamma    90.0001

_space_group_name_H-M_alt    "P 1"
_space_group_IT_number       1

loop_
  _space_group_symop_operation_xyz
  'x, y, z'

loop_
  _atom_site_type_symbol
  _atom_site_label
  _atom_site_symmetry_multiplicity
  _atom_site_fract_x
  _atom_site_fract_y
  _atom_site_fract_z
  _atom_site_occupancy
  Zn  Zn1       1.0  0.12124  0.52725  0.17203  1.0000
  Zn  Zn2       1.0  0.37876  0.02725  0.32797  1.0000
  Zn  Zn3       1.0  0.87876  0.47275  0.82797  1.0000
  Zn  Zn4       1.0  0.62124  0.97275  0.67203  1.0000
  H   H1        1.0  0.06945  0.39143  0.35573  1.0000
  H   H2        1.0  0.43055  0.89144  0.14427  1.0000
  H   H3        1.0  0.93055  0.60857  0.64427  1.0000
  H   H4        1.0  0.56945  0.10857  0.85573  1.0000
  H   H5        1.0  0.39107  0.68075  0.30917  1.0000
  H   H6        1.0  0.10893  0.18075  0.19083  1.0000
  H   H7        1.0  0.60893  0.31925  0.69083  1.0000
  H   H8        1.0  0.89107  0.81925  0.80917  1.0000
  H   H9        1.0  0.41766  0.63967  0.48990  1.0000
  H   H10       1.0  0.08234  0.13967  0.01010  1.0000
  H   H11       1.0  0.58235  0.36033  0.51010  1.0000
  H   H12       1.0  0.91766  0.86033  0.98990  1.0000
  H   H13       1.0  0.91459  0.15755  0.71881  1.0000
  H   H14       1.0  0.58541  0.65755  0.78119  1.0000
  H   H15       1.0  0.08541  0.84245  0.28119  1.0000
  H   H16       1.0  0.41459  0.34245  0.21881  1.0000
  H   H17       1.0  0.93067  0.17429  0.44088  1.0000
  H   H18       1.0  0.56933  0.67429  0.05912  1.0000
  H   H19       1.0  0.06933  0.82571  0.55912  1.0000
  H   H20       1.0  0.43067  0.32571  0.94088  1.0000
  H   H21       1.0  0.70522  0.99781  0.47154  1.0000
  H   H22       1.0  0.79478  0.49781  0.02846  1.0000
  H   H23       1.0  0.29479  0.00219  0.52846  1.0000
  H   H24       1.0  0.20522  0.50219  0.97154  1.0000
  H   H25       1.0  0.11268  0.28379  0.74286  1.0000
  H   H26       1.0  0.38732  0.78379  0.75714  1.0000
  H   H27       1.0  0.88732  0.71621  0.25714  1.0000
  H   H28       1.0  0.61268  0.21622  0.24286  1.0000
  H   H29       1.0  0.29945  0.46838  0.75381  1.0000
  H   H30       1.0  0.20055  0.96838  0.74619  1.0000
  H   H31       1.0  0.70055  0.53161  0.24619  1.0000
  H   H32       1.0  0.79945  0.03162  0.25381  1.0000
  H   H33       1.0  0.36258  0.57431  0.61494  1.0000
  H   H34       1.0  0.13742  0.07431  0.88506  1.0000
  H   H35       1.0  0.63742  0.42569  0.38506  1.0000
  H   H36       1.0  0.86258  0.92569  0.11494  1.0000
  C   C1        1.0  0.16022  0.46328  0.36611  1.0000
  C   C2        1.0  0.33978  0.96328  0.13389  1.0000
  C   C3        1.0  0.83978  0.53672  0.63389  1.0000
  C   C4        1.0  0.66022  0.03672  0.86611  1.0000
  C   C5        1.0  0.32799  0.61301  0.34514  1.0000
  C   C6        1.0  0.17201  0.11301  0.15486  1.0000
  C   C7        1.0  0.67201  0.38699  0.65486  1.0000
  C   C8        1.0  0.82799  0.88699  0.84514  1.0000
  C   C9        1.0  0.34335  0.59313  0.43530  1.0000
  C   C10       1.0  0.15665  0.09313  0.06470  1.0000
  C   C11       1.0  0.65665  0.40687  0.56469  1.0000
  C   C12       1.0  0.84335  0.90687  0.93531  1.0000
  C   C13       1.0  0.89028  0.13392  0.64797  1.0000
  C   C14       1.0  0.60972  0.63392  0.85202  1.0000
  C   C15       1.0  0.10972  0.86608  0.35202  1.0000
  C   C16       1.0  0.39028  0.36608  0.14797  1.0000
  C   C17       1.0  0.89258  0.14294  0.50163  1.0000
  C   C18       1.0  0.60741  0.64294  0.99837  1.0000
  C   C19       1.0  0.10742  0.85706  0.49837  1.0000
  C   C20       1.0  0.39258  0.35706  0.00163  1.0000
  C   C21       1.0  0.78288  0.05648  0.51836  1.0000
  C   C22       1.0  0.71712  0.55647  0.98164  1.0000
  C   C23       1.0  0.21712  0.94352  0.48164  1.0000
  C   C24       1.0  0.28288  0.44352  0.01836  1.0000
  C   C25       1.0  0.07427  0.29134  0.59738  1.0000
  C   C26       1.0  0.42573  0.79134  0.90262  1.0000
  C   C27       1.0  0.92574  0.70866  0.40262  1.0000
  C   C28       1.0  0.57427  0.20866  0.09738  1.0000
  C   C29       1.0  0.14199  0.32953  0.68279  1.0000
  C   C30       1.0  0.35801  0.82953  0.81721  1.0000
  C   C31       1.0  0.85801  0.67046  0.31721  1.0000
  C   C32       1.0  0.64199  0.17047  0.18279  1.0000
  C   C33       1.0  0.24676  0.43288  0.68851  1.0000
  C   C34       1.0  0.25324  0.93288  0.81149  1.0000
  C   C35       1.0  0.75324  0.56712  0.31149  1.0000
  C   C36       1.0  0.74676  0.06712  0.18851  1.0000
  C   C37       1.0  0.28180  0.49258  0.61140  1.0000
  C   C38       1.0  0.21820  0.99258  0.88860  1.0000
  C   C39       1.0  0.71820  0.50742  0.38860  1.0000
  C   C40       1.0  0.78180  0.00742  0.11140  1.0000
  C   C41       1.0  0.20802  0.44346  0.53004  1.0000
  C   C42       1.0  0.29198  0.94346  0.96996  1.0000
  C   C43       1.0  0.79198  0.55654  0.46996  1.0000
  C   C44       1.0  0.70802  0.05654  0.03004  1.0000
  N   N1        1.0  0.23588  0.49795  0.44790  1.0000
  N   N2        1.0  0.26412  0.99795  0.05210  1.0000
  N   N3        1.0  0.76412  0.50205  0.55210  1.0000
  N   N4        1.0  0.73589  0.00205  0.94790  1.0000
  N   N5        1.0  0.21308  0.53219  0.30308  1.0000
  N   N6        1.0  0.28692  0.03219  0.19692  1.0000
  N   N7        1.0  0.78693  0.46781  0.69692  1.0000
  N   N8        1.0  0.71308  0.96781  0.80308  1.0000
  N   N9        1.0  0.78285  0.05186  0.60961  1.0000
  N   N10       1.0  0.71715  0.55186  0.89039  1.0000
  N   N11       1.0  0.21716  0.94814  0.39039  1.0000
  N   N12       1.0  0.28284  0.44814  0.10961  1.0000
  N   N13       1.0  0.96046  0.19136  0.58414  1.0000
  N   N14       1.0  0.53954  0.69136  0.91586  1.0000
  N   N15       1.0  0.03954  0.80864  0.41586  1.0000
  N   N16       1.0  0.46046  0.30864  0.08414  1.0000
  N   N17       1.0  0.10606  0.34572  0.52251  1.0000
  N   N18       1.0  0.39394  0.84572  0.97749  1.0000
  N   N19       1.0  0.89394  0.65428  0.47749  1.0000
  N   N20       1.0  0.60606  0.15428  0.02251  1.0000
  Cl  Cl1       1.0  0.06138  0.73869  0.12606  1.0000
  Cl  Cl2       1.0  0.43862  0.23869  0.37394  1.0000
  Cl  Cl3       1.0  0.93862  0.26131  0.87394  1.0000
  Cl  Cl4       1.0  0.56138  0.76131  0.62606  1.0000
  Cl  Cl5       1.0  0.92766  0.38382  0.16514  1.0000
  Cl  Cl6       1.0  0.57234  0.88382  0.33486  1.0000
  Cl  Cl7       1.0  0.07234  0.61618  0.83486  1.0000
  Cl  Cl8       1.0  0.42766  0.11618  0.66514  1.0000
