data_image0
_chemical_formula_structural       Cu3H26C32N4O12
_chemical_formula_sum              "Cu3 H26 C32 N4 O12"
_cell_length_a       7.82785
_cell_length_b       8.67991
_cell_length_c       11.2918
_cell_angle_alpha    85.2237
_cell_angle_beta     76.5506
_cell_angle_gamma    87.1566

_space_group_name_H-M_alt    "P 1"
_space_group_IT_number       1

loop_
  _space_group_symop_operation_xyz
  'x, y, z'

loop_
  _atom_site_type_symbol
  _atom_site_label
  _atom_site_symmetry_multiplicity
  _atom_site_fract_x
  _atom_site_fract_y
  _atom_site_fract_z
  _atom_site_occupancy
  Cu  Cu1       1.0  0.88450  0.62267  0.42132  1.0000
  Cu  Cu2       1.0  0.11142  0.38236  0.57667  1.0000
  Cu  Cu3       1.0  0.49731  0.49757  0.50129  1.0000
  H   H1        1.0  0.16149  0.77203  0.22664  1.0000
  H   H2        1.0  0.83975  0.23164  0.77242  1.0000
  H   H3        1.0  0.15641  0.83207  0.73944  1.0000
  H   H4        1.0  0.84598  0.16927  0.25873  1.0000
  H   H5        1.0  0.38889  0.97429  0.20364  1.0000
  H   H6        1.0  0.61512  0.02725  0.79648  1.0000
  H   H7        1.0  0.42535  0.09029  0.39405  1.0000
  H   H8        1.0  0.57717  0.91076  0.60649  1.0000
  H   H9        1.0  0.02248  0.78963  0.59979  1.0000
  H   H10       1.0  0.97355  0.21590  0.39863  1.0000
  H   H11       1.0  0.15415  0.14648  0.82372  1.0000
  H   H12       1.0  0.84704  0.85340  0.17697  1.0000
  H   H13       1.0  0.29166  0.00403  0.87840  1.0000
  H   H14       1.0  0.70876  0.99511  0.12204  1.0000
  H   H15       1.0  0.03733  0.83357  0.96026  1.0000
  H   H16       1.0  0.96268  0.16598  0.03942  1.0000
  H   H17       1.0  0.89602  0.96913  0.90451  1.0000
  H   H18       1.0  0.10445  0.03063  0.09486  1.0000
  H   H19       1.0  0.37878  0.68072  0.83106  1.0000
  H   H20       1.0  0.61873  0.31408  0.17383  1.0000
  H   H21       1.0  0.33828  0.73990  0.04801  1.0000
  H   H22       1.0  0.66537  0.25864  0.95597  1.0000
  H   H23       1.0  0.59072  0.69829  0.15020  1.0000
  H   H24       1.0  0.41627  0.30037  0.85042  1.0000
  H   H25       1.0  0.88225  0.61481  0.03098  1.0000
  H   H26       1.0  0.12212  0.38112  0.96752  1.0000
  C   C1        1.0  0.18528  0.82536  0.30488  1.0000
  C   C2        1.0  0.81537  0.17843  0.69432  1.0000
  C   C3        1.0  0.31113  0.93659  0.29361  1.0000
  C   C4        1.0  0.69086  0.06600  0.70612  1.0000
  C   C5        1.0  0.33273  0.99961  0.39811  1.0000
  C   C6        1.0  0.66842  0.00276  0.60187  1.0000
  C   C7        1.0  0.23077  0.94641  0.51142  1.0000
  C   C8        1.0  0.76837  0.05690  0.48821  1.0000
  C   C9        1.0  0.10912  0.83254  0.51494  1.0000
  C   C10       1.0  0.88870  0.17220  0.48390  1.0000
  C   C11       1.0  0.24287  0.02464  0.62223  1.0000
  C   C12       1.0  0.75628  0.97821  0.37750  1.0000
  C   C13       1.0  0.17012  0.02143  0.84462  1.0000
  C   C14       1.0  0.83061  0.97829  0.15551  1.0000
  C   C15       1.0  0.01493  0.95825  0.94143  1.0000
  C   C16       1.0  0.98532  0.04130  0.05823  1.0000
  C   C17       1.0  0.67251  0.59641  0.67617  1.0000
  C   C18       1.0  0.32401  0.39989  0.32567  1.0000
  C   C19       1.0  0.65447  0.62312  0.80778  1.0000
  C   C20       1.0  0.34297  0.37076  0.19441  1.0000
  C   C21       1.0  0.48966  0.67223  0.87468  1.0000
  C   C22       1.0  0.50921  0.32246  0.12893  1.0000
  C   C23       1.0  0.46780  0.70396  0.99646  1.0000
  C   C24       1.0  0.53453  0.29274  0.00649  1.0000
  C   C25       1.0  0.60864  0.68219  0.05324  1.0000
  C   C26       1.0  0.39565  0.31479  0.94784  1.0000
  C   C27       1.0  0.77300  0.63394  0.98634  1.0000
  C   C28       1.0  0.23001  0.36164  0.01345  1.0000
  C   C29       1.0  0.79882  0.60589  0.86311  1.0000
  C   C30       1.0  0.20100  0.38904  0.13698  1.0000
  C   C31       1.0  0.98022  0.55725  0.79417  1.0000
  C   C32       1.0  0.02041  0.44257  0.20348  1.0000
  N   N1        1.0  0.08440  0.77473  0.41350  1.0000
  N   N2        1.0  0.91397  0.22992  0.58515  1.0000
  N   N3        1.0  0.18828  0.94691  0.73148  1.0000
  N   N4        1.0  0.81305  0.05432  0.26795  1.0000
  O   O1        1.0  0.29772  0.15987  0.61115  1.0000
  O   O2        1.0  0.69967  0.84360  0.38950  1.0000
  O   O3        1.0  0.80467  0.65134  0.60018  1.0000
  O   O4        1.0  0.18928  0.34894  0.40256  1.0000
  O   O5        1.0  0.54443  0.52470  0.65509  1.0000
  O   O6        1.0  0.45363  0.46806  0.34661  1.0000
  O   O7        1.0  0.98418  0.43018  0.74009  1.0000
  O   O8        1.0  0.01756  0.57113  0.25379  1.0000
  O   O9        1.0  0.10748  0.63564  0.79773  1.0000
  O   O10       1.0  0.89204  0.36358  0.20144  1.0000
  O   O11       1.0  0.72557  0.47231  0.42919  1.0000
  O   O12       1.0  0.26627  0.53496  0.56475  1.0000
