data_image0
_chemical_formula_structural       Cu2H36C44N8O12
_chemical_formula_sum              "Cu2 H36 C44 N8 O12"
_cell_length_a       10.0072
_cell_length_b       10.4863
_cell_length_c       11.2576
_cell_angle_alpha    107.21
_cell_angle_beta     97.969
_cell_angle_gamma    92.9198

_space_group_name_H-M_alt    "P 1"
_space_group_IT_number       1

loop_
  _space_group_symop_operation_xyz
  'x, y, z'

loop_
  _atom_site_type_symbol
  _atom_site_label
  _atom_site_symmetry_multiplicity
  _atom_site_fract_x
  _atom_site_fract_y
  _atom_site_fract_z
  _atom_site_occupancy
  Cu  Cu1       1.0  0.86319  0.15629  0.51136  1.0000
  Cu  Cu2       1.0  0.13683  0.84370  0.48864  1.0000
  H   H1        1.0  0.27616  0.41303  0.06403  1.0000
  H   H2        1.0  0.72384  0.58696  0.93598  1.0000
  H   H3        1.0  0.41328  0.14287  0.51369  1.0000
  H   H4        1.0  0.58674  0.85712  0.48631  1.0000
  H   H5        1.0  0.49092  0.83713  0.21121  1.0000
  H   H6        1.0  0.50907  0.16287  0.78879  1.0000
  H   H7        1.0  0.16599  0.47023  0.61491  1.0000
  H   H8        1.0  0.83402  0.52975  0.38511  1.0000
  H   H9        1.0  0.37479  0.63145  0.69289  1.0000
  H   H10       1.0  0.62522  0.36853  0.30713  1.0000
  H   H11       1.0  0.60167  0.54751  0.66795  1.0000
  H   H12       1.0  0.39834  0.45250  0.33206  1.0000
  H   H13       1.0  0.00175  0.38110  0.70982  1.0000
  H   H14       1.0  0.99826  0.61890  0.29019  1.0000
  H   H15       1.0  0.31703  0.63918  0.20941  1.0000
  H   H16       1.0  0.68297  0.36081  0.79059  1.0000
  H   H17       1.0  0.23333  0.69849  0.08910  1.0000
  H   H18       1.0  0.76667  0.30151  0.91091  1.0000
  H   H19       1.0  0.11164  0.25231  0.03754  1.0000
  H   H20       1.0  0.88835  0.74769  0.96247  1.0000
  H   H21       1.0  0.97930  0.03112  0.91614  1.0000
  H   H22       1.0  0.02069  0.96887  0.08386  1.0000
  H   H23       1.0  0.87162  0.99457  0.69224  1.0000
  H   H24       1.0  0.12836  0.00544  0.30776  1.0000
  H   H25       1.0  0.68773  0.94423  0.32435  1.0000
  H   H26       1.0  0.31226  0.05579  0.67565  1.0000
  H   H27       1.0  0.50736  0.57952  0.08990  1.0000
  H   H28       1.0  0.49264  0.42048  0.91010  1.0000
  H   H29       1.0  0.42273  0.62849  0.96296  1.0000
  H   H30       1.0  0.57726  0.37151  0.03703  1.0000
  H   H31       1.0  0.68325  0.02215  0.96709  1.0000
  H   H32       1.0  0.31675  0.97784  0.03290  1.0000
  H   H33       1.0  0.82708  0.24215  0.08909  1.0000
  H   H34       1.0  0.17293  0.75785  0.91089  1.0000
  H   H35       1.0  0.90405  0.28714  0.31915  1.0000
  H   H36       1.0  0.09596  0.71287  0.68084  1.0000
  C   C1        1.0  0.65869  0.29402  0.57103  1.0000
  C   C2        1.0  0.34136  0.70595  0.42897  1.0000
  C   C3        1.0  0.52125  0.34071  0.58881  1.0000
  C   C4        1.0  0.47877  0.65929  0.41118  1.0000
  C   C5        1.0  0.40480  0.25009  0.55217  1.0000
  C   C6        1.0  0.59521  0.74991  0.44783  1.0000
  C   C7        1.0  0.27672  0.29689  0.56171  1.0000
  C   C8        1.0  0.72328  0.70311  0.43829  1.0000
  C   C9        1.0  0.15349  0.19708  0.52286  1.0000
  C   C10       1.0  0.84650  0.80291  0.47713  1.0000
  C   C11       1.0  0.26607  0.43463  0.61099  1.0000
  C   C12       1.0  0.73394  0.56536  0.38901  1.0000
  C   C13       1.0  0.38288  0.52445  0.65336  1.0000
  C   C14       1.0  0.61713  0.47555  0.34666  1.0000
  C   C15       1.0  0.50979  0.47830  0.64078  1.0000
  C   C16       1.0  0.49021  0.52172  0.35923  1.0000
  C   C17       1.0  0.00276  0.30491  0.75766  1.0000
  C   C18       1.0  0.99724  0.69510  0.24234  1.0000
  C   C19       1.0  0.07078  0.33284  0.88088  1.0000
  C   C20       1.0  0.92922  0.66717  0.11913  1.0000
  C   C21       1.0  0.13862  0.47208  0.94102  1.0000
  C   C22       1.0  0.86138  0.52792  0.05899  1.0000
  C   C23       1.0  0.30289  0.62693  0.10838  1.0000
  C   C24       1.0  0.69711  0.37307  0.89162  1.0000
  C   C25       1.0  0.06321  0.23363  0.94041  1.0000
  C   C26       1.0  0.93678  0.76637  0.05960  1.0000
  C   C27       1.0  0.98922  0.11102  0.87357  1.0000
  C   C28       1.0  0.01077  0.88899  0.12642  1.0000
  C   C29       1.0  0.92773  0.08938  0.74972  1.0000
  C   C30       1.0  0.07225  0.91063  0.25028  1.0000
  C   C31       1.0  0.71275  0.00564  0.26590  1.0000
  C   C32       1.0  0.28725  0.99437  0.73410  1.0000
  C   C33       1.0  0.67064  0.96766  0.13575  1.0000
  C   C34       1.0  0.32935  0.03234  0.86425  1.0000
  C   C35       1.0  0.59537  0.83371  0.06517  1.0000
  C   C36       1.0  0.40462  0.16628  0.93483  1.0000
  C   C37       1.0  0.43796  0.64935  0.06573  1.0000
  C   C38       1.0  0.56204  0.35065  0.93427  1.0000
  C   C39       1.0  0.71323  0.05168  0.06912  1.0000
  C   C40       1.0  0.28676  0.94831  0.93088  1.0000
  C   C41       1.0  0.79395  0.17034  0.13455  1.0000
  C   C42       1.0  0.20605  0.82965  0.86544  1.0000
  C   C43       1.0  0.83579  0.19876  0.26394  1.0000
  C   C44       1.0  0.16420  0.80124  0.73606  1.0000
  N   N1        1.0  0.93552  0.18517  0.69289  1.0000
  N   N2        1.0  0.06448  0.81484  0.30711  1.0000
  N   N3        1.0  0.23833  0.49284  0.04109  1.0000
  N   N4        1.0  0.76167  0.50716  0.95892  1.0000
  N   N5        1.0  0.79654  0.11708  0.32754  1.0000
  N   N6        1.0  0.20346  0.88292  0.67246  1.0000
  N   N7        1.0  0.50160  0.78591  0.12153  1.0000
  N   N8        1.0  0.49839  0.21410  0.87847  1.0000
  O   O1        1.0  0.75776  0.37850  0.58514  1.0000
  O   O2        1.0  0.24224  0.62151  0.41484  1.0000
  O   O3        1.0  0.66710  0.16536  0.54201  1.0000
  O   O4        1.0  0.33288  0.83463  0.45799  1.0000
  O   O5        1.0  0.03969  0.24160  0.49355  1.0000
  O   O6        1.0  0.96030  0.75841  0.50644  1.0000
  O   O7        1.0  0.10033  0.56397  0.89927  1.0000
  O   O8        1.0  0.89967  0.43603  0.10073  1.0000
  O   O9        1.0  0.62096  0.76972  0.95961  1.0000
  O   O10       1.0  0.37904  0.23028  0.04038  1.0000
  O   O11       1.0  0.16804  0.07883  0.52321  1.0000
  O   O12       1.0  0.83198  0.92116  0.47679  1.0000
